/home/pchatterjee/Documents/git/vs_workflow/DiffDock/diffdock_run/pdbqt_scrubbed/46221689.pdbqt
     RDKit          3D

 29 32  0  0  1  0  0  0  0  0999 V2000
   12.7284   60.8915   83.1847 C   0  0  0  0  0  0  0  0  0  0  0  0
   13.4953   59.8882   83.7337 C   0  0  0  0  0  3  0  0  0  0  0  0
   14.8516   60.0740   83.9643 C   0  0  0  0  0  3  0  0  0  0  0  0
   15.3782   61.3167   83.6116 C   0  0  0  0  0  3  0  0  0  0  0  0
   14.6493   62.3309   83.0669 C   0  0  0  0  0  0  0  0  0  0  0  0
   13.3032   62.1145   82.8501 C   0  0  0  0  0  3  0  0  0  0  0  0
   11.2759   60.7255   82.9253 C   0  0  0  0  0  2  0  0  0  0  0  0
   10.4899   60.0960   84.3913 S   0  0  1  0  0  0  0  0  0  0  0  0
   11.0531   60.8640   85.5590 O   0  0  0  0  0  0  0  0  0  0  0  0
    9.0124   60.3652   84.3519 O   0  0  0  0  0  0  0  0  0  0  0  0
   10.8262   58.4182   84.5414 N   0  0  0  0  0  0  0  0  0  0  0  0
   15.3041   63.5515   82.7510 N   0  0  0  0  0  0  0  0  0  0  0  0
   14.7219   64.4012   81.7613 C   0  0  0  0  0  3  0  0  0  0  0  0
   13.3918   64.8296   82.0737 N   0  0  0  0  0  0  0  0  0  0  0  0
   15.5476   65.5437   81.4052 N   0  0  0  0  0  0  0  0  0  0  0  0
   13.1190   66.0034   82.5683 C   0  0  0  0  0  0  0  0  0  0  0  0
   15.3177   66.7124   81.8857 C   0  0  0  0  0  0  0  0  0  0  0  0
   14.1889   66.9836   82.8423 C   0  0  0  0  0  3  0  0  0  0  0  0
   15.9412   68.0002   81.7258 N   0  0  0  0  0  0  0  0  0  0  0  0
   13.8462   68.3370   82.4477 N   0  0  0  0  0  0  0  0  0  0  0  0
   15.0942   68.9257   82.0490 C   0  0  0  0  0  3  0  0  0  0  0  0
   11.7783   66.3160   82.8359 O   0  0  0  0  0  0  0  0  0  0  0  0
   10.8803   65.2316   83.0458 C   0  0  0  0  0  2  0  0  0  0  0  0
    9.7504   65.3767   82.0720 C   0  0  0  0  0  3  0  0  0  0  0  0
    8.9937   66.6548   82.3505 C   0  0  0  0  0  2  0  0  0  0  0  0
    8.8763   64.1439   82.1505 C   0  0  0  0  0  2  0  0  0  0  0  0
    8.0587   66.5512   83.5110 C   0  0  0  0  0  2  0  0  0  0  0  0
    8.1267   64.1008   83.4520 C   0  0  0  0  0  2  0  0  0  0  0  0
    7.1898   65.2906   83.4647 C   0  0  0  0  0  2  0  0  0  0  0  0
  1  2  2  0
  2  3  1  0
  4  3  2  0
  5  4  1  0
  6  5  2  0
  6  1  1  0
  7  1  1  0
  7  8  1  0
  8 11  1  1
  8 10  2  0
  9  8  2  0
 12  5  1  0
 13 12  1  0
 14 13  1  0
 15 13  1  0
 16 14  2  0
 17 15  2  0
 18 16  1  0
 18 17  1  0
 19 17  1  0
 20 21  1  0
 20 18  1  0
 21 19  2  0
 22 16  1  0
 23 22  1  0
 23 24  1  0
 25 24  1  0
 25 27  1  0
 26 24  1  0
 26 28  1  0
 29 27  1  0
 29 28  1  0
M  RAD  8   2   2   3   2   4   2   6   2   7   3  13   2  18   2  21   2
M  RAD  7  23   3  24   2  25   3  26   3  27   3  28   3  29   3
M  END
>  <REMARK>  (1) 
 SMILES NS(=O)(=O)Cc1cccc(Nc2nc(OCC3CCCCC3)c3[nH]cnc3n2)c1
 SMILES IDX 6 1 7 2 8 3 9 4 10 5 29 6 5 7 2 8 3 9 4 10 1 11 11 14 12 16
 SMILES IDX 13 17 28 18 14 19 27 20 23 21 26 22 24 23 25 24 15 26 16 27
 SMILES IDX 17 28 18 29 22 30 19 31 21 32 20 33
 H PARENT 1 12 1 13 11 15 24 25

>  <TORSDO>  (1) 
F 8

$$$$
