/home/pchatterjee/Documents/git/vs_workflow/DiffDock/diffdock_run/pdbqt_scrubbed/46221689.pdbqt
     RDKit          3D

 29 32  0  0  1  0  0  0  0  0999 V2000
    3.8868   41.2761   48.9643 C   0  0  0  0  0  0  0  0  0  0  0  0
    3.8529   40.7476   47.6933 C   0  0  0  0  0  3  0  0  0  0  0  0
    4.9918   40.7285   46.8996 C   0  0  0  0  0  3  0  0  0  0  0  0
    6.1498   41.2678   47.4601 C   0  0  0  0  0  3  0  0  0  0  0  0
    6.2191   41.7984   48.7131 C   0  0  0  0  0  0  0  0  0  0  0  0
    5.0692   41.8025   49.4771 C   0  0  0  0  0  3  0  0  0  0  0  0
    2.6873   41.3120   49.8387 C   0  0  0  0  0  2  0  0  0  0  0  0
    1.7785   39.7956   49.6446 S   0  0  1  0  0  0  0  0  0  0  0  0
    1.1574   39.8254   48.2720 O   0  0  0  0  0  0  0  0  0  0  0  0
    2.7087   38.6166   49.6872 O   0  0  0  0  0  0  0  0  0  0  0  0
    0.5707   39.6962   50.8620 N   0  0  0  0  0  0  0  0  0  0  0  0
    7.4605   42.3174   49.1691 N   0  0  0  0  0  0  0  0  0  0  0  0
    7.7067   43.7176   49.0293 C   0  0  0  0  0  3  0  0  0  0  0  0
    6.7453   44.5452   49.6933 N   0  0  0  0  0  0  0  0  0  0  0  0
    9.0550   44.1188   49.3969 N   0  0  0  0  0  0  0  0  0  0  0  0
    6.9614   45.0990   50.8524 C   0  0  0  0  0  0  0  0  0  0  0  0
    9.3076   44.6535   50.5370 C   0  0  0  0  0  0  0  0  0  0  0  0
    8.2389   44.9018   51.5662 C   0  0  0  0  0  3  0  0  0  0  0  0
   10.5053   45.1413   51.1699 N   0  0  0  0  0  0  0  0  0  0  0  0
    8.7535   46.1148   52.1735 N   0  0  0  0  0  0  0  0  0  0  0  0
   10.1816   45.9770   52.1053 C   0  0  0  0  0  3  0  0  0  0  0  0
    5.9469   45.8910   51.4094 O   0  0  0  0  0  0  0  0  0  0  0  0
    4.6196   45.3777   51.3757 C   0  0  0  0  0  2  0  0  0  0  0  0
    4.0955   45.3680   52.7797 C   0  0  0  0  0  3  0  0  0  0  0  0
    3.0420   44.2947   52.9270 C   0  0  0  0  0  2  0  0  0  0  0  0
    3.5817   46.7504   53.1190 C   0  0  0  0  0  2  0  0  0  0  0  0
    1.7123   44.6866   52.3702 C   0  0  0  0  0  2  0  0  0  0  0  0
    2.3287   47.0598   52.3496 C   0  0  0  0  0  2  0  0  0  0  0  0
    1.2688   46.0835   52.8154 C   0  0  0  0  0  2  0  0  0  0  0  0
  1  2  2  0
  2  3  1  0
  4  3  2  0
  5  4  1  0
  6  5  2  0
  6  1  1  0
  7  1  1  0
  7  8  1  0
  8 11  1  1
  8 10  2  0
  9  8  2  0
 12  5  1  0
 13 12  1  0
 14 13  1  0
 15 13  1  0
 16 14  2  0
 17 15  2  0
 18 16  1  0
 18 17  1  0
 19 17  1  0
 20 21  1  0
 20 18  1  0
 21 19  2  0
 22 16  1  0
 23 22  1  0
 23 24  1  0
 25 24  1  0
 25 27  1  0
 26 24  1  0
 26 28  1  0
 29 27  1  0
 29 28  1  0
M  RAD  8   2   2   3   2   4   2   6   2   7   3  13   2  18   2  21   2
M  RAD  7  23   3  24   2  25   3  26   3  27   3  28   3  29   3
M  END
>  <REMARK>  (1) 
 SMILES NS(=O)(=O)Cc1cccc(Nc2nc(OCC3CCCCC3)c3[nH]cnc3n2)c1
 SMILES IDX 6 1 7 2 8 3 9 4 10 5 29 6 5 7 2 8 3 9 4 10 1 11 11 14 12 16
 SMILES IDX 13 17 28 18 14 19 27 20 23 21 26 22 24 23 25 24 15 26 16 27
 SMILES IDX 17 28 18 29 22 30 19 31 21 32 20 33
 H PARENT 1 12 1 13 11 15 24 25

>  <TORSDO>  (1) 
F 8

$$$$
