/home/pchatterjee/Documents/git/vs_workflow/DiffDock/diffdock_run/pdbqt_scrubbed/46221689.pdbqt
     RDKit          3D

 29 32  0  0  1  0  0  0  0  0999 V2000
    4.6105   40.8050   47.5698 C   0  0  0  0  0  0  0  0  0  0  0  0
    3.6154   40.8168   48.5215 C   0  0  0  0  0  3  0  0  0  0  0  0
    3.8315   41.3827   49.7706 C   0  0  0  0  0  3  0  0  0  0  0  0
    5.0956   41.9277   49.9964 C   0  0  0  0  0  3  0  0  0  0  0  0
    6.1026   41.9333   49.0786 C   0  0  0  0  0  0  0  0  0  0  0  0
    5.8558   41.3628   47.8458 C   0  0  0  0  0  3  0  0  0  0  0  0
    4.4123   40.2082   46.2248 C   0  0  0  0  0  2  0  0  0  0  0  0
    2.8706   40.7858   45.5519 S   0  0  1  0  0  0  0  0  0  0  0  0
    1.7717   40.2075   46.4054 O   0  0  0  0  0  0  0  0  0  0  0  0
    2.7781   42.2815   45.6595 O   0  0  0  0  0  0  0  0  0  0  0  0
    2.7260   40.2560   43.9243 N   0  0  0  0  0  0  0  0  0  0  0  0
    7.3471   42.5207   49.4313 N   0  0  0  0  0  0  0  0  0  0  0  0
    7.5117   43.9284   49.2522 C   0  0  0  0  0  3  0  0  0  0  0  0
    6.6518   44.7229   50.0765 N   0  0  0  0  0  0  0  0  0  0  0  0
    8.8874   44.3818   49.3767 N   0  0  0  0  0  0  0  0  0  0  0  0
    7.0478   45.2906   51.1801 C   0  0  0  0  0  0  0  0  0  0  0  0
    9.3168   44.9316   50.4551 C   0  0  0  0  0  0  0  0  0  0  0  0
    8.4377   45.1452   51.6570 C   0  0  0  0  0  3  0  0  0  0  0  0
   10.5879   45.4674   50.8674 N   0  0  0  0  0  0  0  0  0  0  0  0
    9.0051   46.3798   52.1657 N   0  0  0  0  0  0  0  0  0  0  0  0
   10.4029   46.2953   51.8464 C   0  0  0  0  0  3  0  0  0  0  0  0
    6.1182   46.0469   51.9084 O   0  0  0  0  0  0  0  0  0  0  0  0
    4.7497   45.9479   51.5294 C   0  0  0  0  0  2  0  0  0  0  0  0
    4.1591   44.7716   52.2459 C   0  0  0  0  0  3  0  0  0  0  0  0
    2.6547   44.7861   52.1035 C   0  0  0  0  0  2  0  0  0  0  0  0
    4.6161   44.7982   53.6883 C   0  0  0  0  0  2  0  0  0  0  0  0
    1.9805   45.7566   53.0175 C   0  0  0  0  0  2  0  0  0  0  0  0
    3.9753   45.9356   54.4322 C   0  0  0  0  0  2  0  0  0  0  0  0
    2.4856   45.6647   54.4606 C   0  0  0  0  0  2  0  0  0  0  0  0
  1  2  2  0
  2  3  1  0
  4  3  2  0
  5  4  1  0
  6  5  2  0
  6  1  1  0
  7  1  1  0
  7  8  1  0
  8 11  1  6
  8 10  2  0
  9  8  2  0
 12  5  1  0
 13 12  1  0
 14 13  1  0
 15 13  1  0
 16 14  2  0
 17 15  2  0
 18 16  1  0
 18 17  1  0
 19 17  1  0
 20 21  1  0
 20 18  1  0
 21 19  2  0
 22 16  1  0
 23 22  1  0
 23 24  1  0
 25 24  1  0
 25 27  1  0
 26 24  1  0
 26 28  1  0
 29 27  1  0
 29 28  1  0
M  RAD  8   2   2   3   2   4   2   6   2   7   3  13   2  18   2  21   2
M  RAD  7  23   3  24   2  25   3  26   3  27   3  28   3  29   3
M  END
>  <REMARK>  (1) 
 SMILES NS(=O)(=O)Cc1cccc(Nc2nc(OCC3CCCCC3)c3[nH]cnc3n2)c1
 SMILES IDX 6 1 7 2 8 3 9 4 10 5 29 6 5 7 2 8 3 9 4 10 1 11 11 14 12 16
 SMILES IDX 13 17 28 18 14 19 27 20 23 21 26 22 24 23 25 24 15 26 16 27
 SMILES IDX 17 28 18 29 22 30 19 31 21 32 20 33
 H PARENT 1 12 1 13 11 15 24 25

>  <TORSDO>  (1) 
F 8

$$$$
