/home/pchatterjee/Documents/git/vs_workflow/DiffDock/diffdock_run/pdbqt_scrubbed/46221689.pdbqt
     RDKit          3D

 29 32  0  0  1  0  0  0  0  0999 V2000
    4.1554   40.9613   48.0444 C   0  0  0  0  0  0  0  0  0  0  0  0
    3.4125   40.9663   49.2037 C   0  0  0  0  0  3  0  0  0  0  0  0
    3.9447   41.4573   50.3882 C   0  0  0  0  0  3  0  0  0  0  0  0
    5.2538   41.9359   50.3309 C   0  0  0  0  0  3  0  0  0  0  0  0
    6.0170   41.9461   49.2022 C   0  0  0  0  0  0  0  0  0  0  0  0
    5.4586   41.4509   48.0407 C   0  0  0  0  0  3  0  0  0  0  0  0
    3.6166   40.4436   46.7613 C   0  0  0  0  0  2  0  0  0  0  0  0
    2.3334   39.2604   47.1028 S   0  0  1  0  0  0  0  0  0  0  0  0
    2.8878   38.2853   48.1088 O   0  0  0  0  0  0  0  0  0  0  0  0
    1.1525   39.9357   47.7406 O   0  0  0  0  0  0  0  0  0  0  0  0
    1.8970   38.4585   45.6477 N   0  0  0  0  0  0  0  0  0  0  0  0
    7.3390   42.4614   49.2744 N   0  0  0  0  0  0  0  0  0  0  0  0
    7.5406   43.8564   49.0420 C   0  0  0  0  0  3  0  0  0  0  0  0
    6.6914   44.7037   49.8237 N   0  0  0  0  0  0  0  0  0  0  0  0
    8.9257   44.2806   49.1657 N   0  0  0  0  0  0  0  0  0  0  0  0
    7.0887   45.3049   50.9089 C   0  0  0  0  0  0  0  0  0  0  0  0
    9.3563   44.8621   50.2269 C   0  0  0  0  0  0  0  0  0  0  0  0
    8.4691   45.1446   51.4084 C   0  0  0  0  0  3  0  0  0  0  0  0
   10.6356   45.3825   50.6336 N   0  0  0  0  0  0  0  0  0  0  0  0
    9.0612   46.3842   51.8752 N   0  0  0  0  0  0  0  0  0  0  0  0
   10.4600   46.2529   51.5769 C   0  0  0  0  0  3  0  0  0  0  0  0
    6.1700   46.1121   51.5953 O   0  0  0  0  0  0  0  0  0  0  0  0
    4.9114   45.5369   51.9292 C   0  0  0  0  0  2  0  0  0  0  0  0
    4.4287   46.1890   53.1892 C   0  0  0  0  0  3  0  0  0  0  0  0
    4.1362   45.1358   54.2327 C   0  0  0  0  0  2  0  0  0  0  0  0
    3.2264   47.0489   52.8648 C   0  0  0  0  0  2  0  0  0  0  0  0
    2.8319   44.4381   54.0238 C   0  0  0  0  0  2  0  0  0  0  0  0
    2.0392   46.1982   52.5117 C   0  0  0  0  0  2  0  0  0  0  0  0
    1.6764   45.4056   53.7501 C   0  0  0  0  0  2  0  0  0  0  0  0
  1  2  2  0
  2  3  1  0
  4  3  2  0
  5  4  1  0
  6  5  2  0
  6  1  1  0
  7  1  1  0
  7  8  1  0
  8 11  1  6
  8 10  2  0
  9  8  2  0
 12  5  1  0
 13 12  1  0
 14 13  1  0
 15 13  1  0
 16 14  2  0
 17 15  2  0
 18 16  1  0
 18 17  1  0
 19 17  1  0
 20 21  1  0
 20 18  1  0
 21 19  2  0
 22 16  1  0
 23 22  1  0
 23 24  1  0
 25 24  1  0
 25 27  1  0
 26 24  1  0
 26 28  1  0
 29 27  1  0
 29 28  1  0
M  RAD  8   2   2   3   2   4   2   6   2   7   3  13   2  18   2  21   2
M  RAD  7  23   3  24   2  25   3  26   3  27   3  28   3  29   3
M  END
>  <REMARK>  (1) 
 SMILES NS(=O)(=O)Cc1cccc(Nc2nc(OCC3CCCCC3)c3[nH]cnc3n2)c1
 SMILES IDX 6 1 7 2 8 3 9 4 10 5 29 6 5 7 2 8 3 9 4 10 1 11 11 14 12 16
 SMILES IDX 13 17 28 18 14 19 27 20 23 21 26 22 24 23 25 24 15 26 16 27
 SMILES IDX 17 28 18 29 22 30 19 31 21 32 20 33
 H PARENT 1 12 1 13 11 15 24 25

>  <TORSDO>  (1) 
F 8

$$$$
