/home/pchatterjee/Documents/git/vs_workflow/DiffDock/diffdock_run/pdbqt_scrubbed/46221689.pdbqt
     RDKit          3D

 29 32  0  0  1  0  0  0  0  0999 V2000
    3.9286   41.3077   47.8653 C   0  0  0  0  0  0  0  0  0  0  0  0
    3.3577   40.7556   48.9902 C   0  0  0  0  0  3  0  0  0  0  0  0
    4.0376   40.7430   50.2005 C   0  0  0  0  0  3  0  0  0  0  0  0
    5.3105   41.3136   50.2050 C   0  0  0  0  0  3  0  0  0  0  0  0
    5.9054   41.8681   49.1118 C   0  0  0  0  0  0  0  0  0  0  0  0
    5.2030   41.8649   47.9233 C   0  0  0  0  0  3  0  0  0  0  0  0
    3.2290   41.3375   46.5560 C   0  0  0  0  0  2  0  0  0  0  0  0
    3.0424   39.6734   45.9565 S   0  0  1  0  0  0  0  0  0  0  0  0
    4.4206   39.0668   45.9006 O   0  0  0  0  0  0  0  0  0  0  0  0
    2.2340   38.8546   46.9225 O   0  0  0  0  0  0  0  0  0  0  0  0
    2.3240   39.7078   44.3965 N   0  0  0  0  0  0  0  0  0  0  0  0
    7.2084   42.4179   49.2465 N   0  0  0  0  0  0  0  0  0  0  0  0
    7.3895   43.8122   48.9941 C   0  0  0  0  0  3  0  0  0  0  0  0
    6.4615   44.6531   49.6883 N   0  0  0  0  0  0  0  0  0  0  0  0
    8.7495   44.2788   49.2097 N   0  0  0  0  0  0  0  0  0  0  0  0
    6.7598   45.2909   50.7843 C   0  0  0  0  0  0  0  0  0  0  0  0
    9.0833   44.8974   50.2847 C   0  0  0  0  0  0  0  0  0  0  0  0
    8.1024   45.1822   51.3892 C   0  0  0  0  0  3  0  0  0  0  0  0
   10.3139   45.4637   50.7721 N   0  0  0  0  0  0  0  0  0  0  0  0
    8.6243   46.4489   51.8667 N   0  0  0  0  0  0  0  0  0  0  0  0
   10.0447   46.3507   51.6770 C   0  0  0  0  0  3  0  0  0  0  0  0
    5.7707   46.0874   51.3793 O   0  0  0  0  0  0  0  0  0  0  0  0
    4.4472   45.5654   51.4262 C   0  0  0  0  0  2  0  0  0  0  0  0
    3.9876   45.6078   52.8520 C   0  0  0  0  0  3  0  0  0  0  0  0
    3.0138   44.4816   53.1111 C   0  0  0  0  0  2  0  0  0  0  0  0
    3.4003   46.9733   53.1358 C   0  0  0  0  0  2  0  0  0  0  0  0
    1.6380   44.7554   52.5973 C   0  0  0  0  0  2  0  0  0  0  0  0
    2.0970   47.1569   52.4110 C   0  0  0  0  0  2  0  0  0  0  0  0
    1.1246   46.1462   52.9824 C   0  0  0  0  0  2  0  0  0  0  0  0
  1  2  2  0
  2  3  1  0
  4  3  2  0
  5  4  1  0
  6  5  2  0
  6  1  1  0
  7  1  1  0
  7  8  1  0
  8 11  1  6
  8 10  2  0
  9  8  2  0
 12  5  1  0
 13 12  1  0
 14 13  1  0
 15 13  1  0
 16 14  2  0
 17 15  2  0
 18 16  1  0
 18 17  1  0
 19 17  1  0
 20 21  1  0
 20 18  1  0
 21 19  2  0
 22 16  1  0
 23 22  1  0
 23 24  1  0
 25 24  1  0
 25 27  1  0
 26 24  1  0
 26 28  1  0
 29 27  1  0
 29 28  1  0
M  RAD  8   2   2   3   2   4   2   6   2   7   3  13   2  18   2  21   2
M  RAD  7  23   3  24   2  25   3  26   3  27   3  28   3  29   3
M  END
>  <REMARK>  (1) 
 SMILES NS(=O)(=O)Cc1cccc(Nc2nc(OCC3CCCCC3)c3[nH]cnc3n2)c1
 SMILES IDX 6 1 7 2 8 3 9 4 10 5 29 6 5 7 2 8 3 9 4 10 1 11 11 14 12 16
 SMILES IDX 13 17 28 18 14 19 27 20 23 21 26 22 24 23 25 24 15 26 16 27
 SMILES IDX 17 28 18 29 22 30 19 31 21 32 20 33
 H PARENT 1 12 1 13 11 15 24 25

>  <TORSDO>  (1) 
F 8

$$$$
