/home/pchatterjee/Documents/git/vs_workflow/DiffDock/diffdock_run/pdbqt_scrubbed/46221689.pdbqt
     RDKit          3D

 29 32  0  0  1  0  0  0  0  0999 V2000
    3.8054   41.2812   49.4390 C   0  0  0  0  0  0  0  0  0  0  0  0
    3.6795   40.6429   48.2254 C   0  0  0  0  0  3  0  0  0  0  0  0
    4.7438   40.5884   47.3357 C   0  0  0  0  0  3  0  0  0  0  0  0
    5.9257   41.2090   47.7408 C   0  0  0  0  0  3  0  0  0  0  0  0
    6.0852   41.8489   48.9331 C   0  0  0  0  0  0  0  0  0  0  0  0
    5.0078   41.8854   49.7956 C   0  0  0  0  0  3  0  0  0  0  0  0
    2.6873   41.3576   50.4129 C   0  0  0  0  0  2  0  0  0  0  0  0
    1.3627   40.3053   49.8638 S   0  0  1  0  0  0  0  0  0  0  0  0
    0.9072   40.8298   48.5267 O   0  0  0  0  0  0  0  0  0  0  0  0
    1.8603   38.9044   49.6471 O   0  0  0  0  0  0  0  0  0  0  0  0
    0.0841   40.3551   51.0098 N   0  0  0  0  0  0  0  0  0  0  0  0
    7.3416   42.4426   49.2286 N   0  0  0  0  0  0  0  0  0  0  0  0
    7.5165   43.8355   48.9643 C   0  0  0  0  0  3  0  0  0  0  0  0
    6.6931   44.6869   49.7688 N   0  0  0  0  0  0  0  0  0  0  0  0
    8.9008   44.2768   49.0191 N   0  0  0  0  0  0  0  0  0  0  0  0
    7.1311   45.3109   50.8251 C   0  0  0  0  0  0  0  0  0  0  0  0
    9.3712   44.8811   50.0502 C   0  0  0  0  0  0  0  0  0  0  0  0
    8.5340   45.1742   51.2652 C   0  0  0  0  0  3  0  0  0  0  0  0
   10.6611   45.4223   50.3907 N   0  0  0  0  0  0  0  0  0  0  0  0
    9.1318   46.4280   51.6843 N   0  0  0  0  0  0  0  0  0  0  0  0
   10.5175   46.3068   51.3263 C   0  0  0  0  0  3  0  0  0  0  0  0
    6.2344   46.1197   51.5381 O   0  0  0  0  0  0  0  0  0  0  0  0
    4.9225   45.6120   51.7560 C   0  0  0  0  0  2  0  0  0  0  0  0
    4.2616   46.4759   52.7869 C   0  0  0  0  0  3  0  0  0  0  0  0
    4.6545   46.0148   54.1714 C   0  0  0  0  0  2  0  0  0  0  0  0
    2.7658   46.4516   52.5587 C   0  0  0  0  0  2  0  0  0  0  0  0
    3.9121   44.8010   54.6266 C   0  0  0  0  0  2  0  0  0  0  0  0
    2.1929   45.1064   52.9050 C   0  0  0  0  0  2  0  0  0  0  0  0
    2.4021   44.9036   54.3912 C   0  0  0  0  0  2  0  0  0  0  0  0
  1  2  2  0
  2  3  1  0
  4  3  2  0
  5  4  1  0
  6  5  2  0
  6  1  1  0
  7  1  1  0
  7  8  1  0
  8 11  1  1
  8 10  2  0
  9  8  2  0
 12  5  1  0
 13 12  1  0
 14 13  1  0
 15 13  1  0
 16 14  2  0
 17 15  2  0
 18 16  1  0
 18 17  1  0
 19 17  1  0
 20 21  1  0
 20 18  1  0
 21 19  2  0
 22 16  1  0
 23 22  1  0
 23 24  1  0
 25 24  1  0
 25 27  1  0
 26 24  1  0
 26 28  1  0
 29 27  1  0
 29 28  1  0
M  RAD  8   2   2   3   2   4   2   6   2   7   3  13   2  18   2  21   2
M  RAD  7  23   3  24   2  25   3  26   3  27   3  28   3  29   3
M  END
>  <REMARK>  (1) 
 SMILES NS(=O)(=O)Cc1cccc(Nc2nc(OCC3CCCCC3)c3[nH]cnc3n2)c1
 SMILES IDX 6 1 7 2 8 3 9 4 10 5 29 6 5 7 2 8 3 9 4 10 1 11 11 14 12 16
 SMILES IDX 13 17 28 18 14 19 27 20 23 21 26 22 24 23 25 24 15 26 16 27
 SMILES IDX 17 28 18 29 22 30 19 31 21 32 20 33
 H PARENT 1 12 1 13 11 15 24 25

>  <TORSDO>  (1) 
F 8

$$$$
