/home/pchatterjee/Documents/git/vs_workflow/DiffDock/diffdock_run/pdbqt_scrubbed/46221689.pdbqt
     RDKit          3D

 29 32  0  0  1  0  0  0  0  0999 V2000
    4.0654   41.3085   47.8657 C   0  0  0  0  0  0  0  0  0  0  0  0
    3.2801   41.0825   48.9740 C   0  0  0  0  0  3  0  0  0  0  0  0
    3.7499   41.3657   50.2492 C   0  0  0  0  0  3  0  0  0  0  0  0
    5.0424   41.8835   50.3352 C   0  0  0  0  0  3  0  0  0  0  0  0
    5.8463   42.1194   49.2608 C   0  0  0  0  0  0  0  0  0  0  0  0
    5.3496   41.8271   48.0062 C   0  0  0  0  0  3  0  0  0  0  0  0
    3.5935   41.0166   46.4885 C   0  0  0  0  0  2  0  0  0  0  0  0
    2.3961   39.7028   46.5485 S   0  0  1  0  0  0  0  0  0  0  0  0
    1.2195   40.2132   47.3393 O   0  0  0  0  0  0  0  0  0  0  0  0
    1.8993   39.3815   45.1675 O   0  0  0  0  0  0  0  0  0  0  0  0
    3.0957   38.3296   47.3073 N   0  0  0  0  0  0  0  0  0  0  0  0
    7.1456   42.6501   49.4812 N   0  0  0  0  0  0  0  0  0  0  0  0
    7.3590   44.0450   49.2594 C   0  0  0  0  0  3  0  0  0  0  0  0
    6.5174   44.8936   50.0479 N   0  0  0  0  0  0  0  0  0  0  0  0
    8.7477   44.4565   49.3855 N   0  0  0  0  0  0  0  0  0  0  0  0
    6.9204   45.4831   51.1375 C   0  0  0  0  0  0  0  0  0  0  0  0
    9.1838   45.0263   50.4508 C   0  0  0  0  0  0  0  0  0  0  0  0
    8.2996   45.3074   51.6349 C   0  0  0  0  0  3  0  0  0  0  0  0
   10.4676   45.5327   50.8607 N   0  0  0  0  0  0  0  0  0  0  0  0
    8.9024   46.5383   52.1107 N   0  0  0  0  0  0  0  0  0  0  0  0
   10.3000   46.3974   51.8106 C   0  0  0  0  0  3  0  0  0  0  0  0
    6.0089   46.2929   51.8304 O   0  0  0  0  0  0  0  0  0  0  0  0
    4.6258   46.1215   51.5407 C   0  0  0  0  0  2  0  0  0  0  0  0
    4.1384   44.9347   52.3152 C   0  0  0  0  0  3  0  0  0  0  0  0
    2.6566   44.7458   52.0866 C   0  0  0  0  0  2  0  0  0  0  0  0
    4.4913   45.1250   53.7745 C   0  0  0  0  0  2  0  0  0  0  0  0
    1.8083   45.6860   52.8791 C   0  0  0  0  0  2  0  0  0  0  0  0
    3.6668   46.2222   54.3862 C   0  0  0  0  0  2  0  0  0  0  0  0
    2.2233   45.7654   54.3514 C   0  0  0  0  0  2  0  0  0  0  0  0
  1  2  2  0
  2  3  1  0
  4  3  2  0
  5  4  1  0
  6  5  2  0
  6  1  1  0
  7  1  1  0
  7  8  1  0
  8 11  1  1
  8 10  2  0
  9  8  2  0
 12  5  1  0
 13 12  1  0
 14 13  1  0
 15 13  1  0
 16 14  2  0
 17 15  2  0
 18 16  1  0
 18 17  1  0
 19 17  1  0
 20 21  1  0
 20 18  1  0
 21 19  2  0
 22 16  1  0
 23 22  1  0
 23 24  1  0
 25 24  1  0
 25 27  1  0
 26 24  1  0
 26 28  1  0
 29 27  1  0
 29 28  1  0
M  RAD  8   2   2   3   2   4   2   6   2   7   3  13   2  18   2  21   2
M  RAD  7  23   3  24   2  25   3  26   3  27   3  28   3  29   3
M  END
>  <REMARK>  (1) 
 SMILES NS(=O)(=O)Cc1cccc(Nc2nc(OCC3CCCCC3)c3[nH]cnc3n2)c1
 SMILES IDX 6 1 7 2 8 3 9 4 10 5 29 6 5 7 2 8 3 9 4 10 1 11 11 14 12 16
 SMILES IDX 13 17 28 18 14 19 27 20 23 21 26 22 24 23 25 24 15 26 16 27
 SMILES IDX 17 28 18 29 22 30 19 31 21 32 20 33
 H PARENT 1 12 1 13 11 15 24 25

>  <TORSDO>  (1) 
F 8

$$$$
