/home/pchatterjee/Documents/git/vs_workflow/DiffDock/diffdock_run/pdbqt_scrubbed/46221689.pdbqt
     RDKit          3D

 29 32  0  0  1  0  0  0  0  0999 V2000
    3.8166   41.3109   48.0439 C   0  0  0  0  0  0  0  0  0  0  0  0
    3.3574   40.6725   49.1743 C   0  0  0  0  0  3  0  0  0  0  0  0
    4.1661   40.5393   50.2948 C   0  0  0  0  0  3  0  0  0  0  0  0
    5.4479   41.0823   50.2051 C   0  0  0  0  0  3  0  0  0  0  0  0
    5.9344   41.7198   49.1036 C   0  0  0  0  0  0  0  0  0  0  0  0
    5.1054   41.8358   48.0058 C   0  0  0  0  0  3  0  0  0  0  0  0
    2.9778   41.4703   46.8292 C   0  0  0  0  0  2  0  0  0  0  0  0
    1.8404   40.1071   46.7228 S   0  0  1  0  0  0  0  0  0  0  0  0
    2.6653   38.8503   46.6214 O   0  0  0  0  0  0  0  0  0  0  0  0
    1.0245   40.0045   47.9802 O   0  0  0  0  0  0  0  0  0  0  0  0
    0.8468   40.3020   45.3351 N   0  0  0  0  0  0  0  0  0  0  0  0
    7.2599   42.2300   49.1376 N   0  0  0  0  0  0  0  0  0  0  0  0
    7.4616   43.6213   48.8840 C   0  0  0  0  0  3  0  0  0  0  0  0
    6.5488   44.4766   49.5807 N   0  0  0  0  0  0  0  0  0  0  0  0
    8.8293   44.0670   49.0953 N   0  0  0  0  0  0  0  0  0  0  0  0
    6.8603   45.1102   50.6756 C   0  0  0  0  0  0  0  0  0  0  0  0
    9.1759   44.6807   50.1691 C   0  0  0  0  0  0  0  0  0  0  0  0
    8.2029   44.9810   51.2764 C   0  0  0  0  0  3  0  0  0  0  0  0
   10.4166   45.2282   50.6524 N   0  0  0  0  0  0  0  0  0  0  0  0
    8.7457   46.2397   51.7518 N   0  0  0  0  0  0  0  0  0  0  0  0
   10.1638   46.1196   51.5578 C   0  0  0  0  0  3  0  0  0  0  0  0
    5.8854   45.9220   51.2733 O   0  0  0  0  0  0  0  0  0  0  0  0
    4.5927   45.3594   51.4700 C   0  0  0  0  0  2  0  0  0  0  0  0
    4.1800   45.6410   52.8830 C   0  0  0  0  0  3  0  0  0  0  0  0
    2.9900   44.7851   53.2504 C   0  0  0  0  0  2  0  0  0  0  0  0
    3.9085   47.1228   53.0266 C   0  0  0  0  0  2  0  0  0  0  0  0
    1.6970   45.3001   52.7074 C   0  0  0  0  0  2  0  0  0  0  0  0
    2.6627   47.5137   52.2830 C   0  0  0  0  0  2  0  0  0  0  0  0
    1.5050   46.8003   52.9496 C   0  0  0  0  0  2  0  0  0  0  0  0
  1  2  2  0
  2  3  1  0
  4  3  2  0
  5  4  1  0
  6  5  2  0
  6  1  1  0
  7  1  1  0
  7  8  1  0
  8 11  1  6
  8 10  2  0
  9  8  2  0
 12  5  1  0
 13 12  1  0
 14 13  1  0
 15 13  1  0
 16 14  2  0
 17 15  2  0
 18 16  1  0
 18 17  1  0
 19 17  1  0
 20 21  1  0
 20 18  1  0
 21 19  2  0
 22 16  1  0
 23 22  1  0
 23 24  1  0
 25 24  1  0
 25 27  1  0
 26 24  1  0
 26 28  1  0
 29 27  1  0
 29 28  1  0
M  RAD  8   2   2   3   2   4   2   6   2   7   3  13   2  18   2  21   2
M  RAD  7  23   3  24   2  25   3  26   3  27   3  28   3  29   3
M  END
>  <REMARK>  (1) 
 SMILES NS(=O)(=O)Cc1cccc(Nc2nc(OCC3CCCCC3)c3[nH]cnc3n2)c1
 SMILES IDX 6 1 7 2 8 3 9 4 10 5 29 6 5 7 2 8 3 9 4 10 1 11 11 14 12 16
 SMILES IDX 13 17 28 18 14 19 27 20 23 21 26 22 24 23 25 24 15 26 16 27
 SMILES IDX 17 28 18 29 22 30 19 31 21 32 20 33
 H PARENT 1 12 1 13 11 15 24 25

>  <TORSDO>  (1) 
F 8

$$$$
