/home/pchatterjee/Documents/git/vs_workflow/DiffDock/diffdock_run/pdbqt_scrubbed/46221689.pdbqt
     RDKit          3D

 29 32  0  0  1  0  0  0  0  0999 V2000
    4.0796   41.0964   47.4589 C   0  0  0  0  0  0  0  0  0  0  0  0
    3.3090   40.8005   48.5610 C   0  0  0  0  0  3  0  0  0  0  0  0
    3.8064   40.9752   49.8453 C   0  0  0  0  0  3  0  0  0  0  0  0
    5.1105   41.4599   49.9467 C   0  0  0  0  0  3  0  0  0  0  0  0
    5.9005   41.7628   48.8788 C   0  0  0  0  0  0  0  0  0  0  0  0
    5.3764   41.5780   47.6149 C   0  0  0  0  0  3  0  0  0  0  0  0
    3.5782   40.9211   46.0724 C   0  0  0  0  0  2  0  0  0  0  0  0
    2.2627   39.7241   46.0750 S   0  0  1  0  0  0  0  0  0  0  0  0
    1.1236   40.3213   46.8601 O   0  0  0  0  0  0  0  0  0  0  0  0
    1.7650   39.4877   44.6773 O   0  0  0  0  0  0  0  0  0  0  0  0
    2.8164   38.2717   46.8063 N   0  0  0  0  0  0  0  0  0  0  0  0
    7.2140   42.2499   49.1151 N   0  0  0  0  0  0  0  0  0  0  0  0
    7.4735   43.6392   48.9074 C   0  0  0  0  0  3  0  0  0  0  0  0
    6.5987   44.5083   49.6350 N   0  0  0  0  0  0  0  0  0  0  0  0
    8.8591   44.0198   49.1291 N   0  0  0  0  0  0  0  0  0  0  0  0
    6.9385   45.0913   50.7494 C   0  0  0  0  0  0  0  0  0  0  0  0
    9.2331   44.5822   50.2216 C   0  0  0  0  0  0  0  0  0  0  0  0
    8.2756   44.8858   51.3413 C   0  0  0  0  0  3  0  0  0  0  0  0
   10.4966   45.0607   50.7190 N   0  0  0  0  0  0  0  0  0  0  0  0
    8.8716   46.1040   51.8567 N   0  0  0  0  0  0  0  0  0  0  0  0
   10.2831   45.9311   51.6543 C   0  0  0  0  0  3  0  0  0  0  0  0
    5.9997   45.9229   51.3769 O   0  0  0  0  0  0  0  0  0  0  0  0
    4.6266   45.5639   51.2663 C   0  0  0  0  0  2  0  0  0  0  0  0
    4.1065   45.3082   52.6483 C   0  0  0  0  0  3  0  0  0  0  0  0
    2.8931   44.4099   52.5821 C   0  0  0  0  0  2  0  0  0  0  0  0
    3.8227   46.6357   53.3171 C   0  0  0  0  0  2  0  0  0  0  0  0
    1.6448   45.1257   52.1807 C   0  0  0  0  0  2  0  0  0  0  0  0
    2.6370   47.3102   52.6871 C   0  0  0  0  0  2  0  0  0  0  0  0
    1.4327   46.4313   52.9531 C   0  0  0  0  0  2  0  0  0  0  0  0
  1  2  2  0
  2  3  1  0
  4  3  2  0
  5  4  1  0
  6  5  2  0
  6  1  1  0
  7  1  1  0
  7  8  1  0
  8 11  1  1
  8 10  2  0
  9  8  2  0
 12  5  1  0
 13 12  1  0
 14 13  1  0
 15 13  1  0
 16 14  2  0
 17 15  2  0
 18 16  1  0
 18 17  1  0
 19 17  1  0
 20 21  1  0
 20 18  1  0
 21 19  2  0
 22 16  1  0
 23 22  1  0
 23 24  1  0
 25 24  1  0
 25 27  1  0
 26 24  1  0
 26 28  1  0
 29 27  1  0
 29 28  1  0
M  RAD  8   2   2   3   2   4   2   6   2   7   3  13   2  18   2  21   2
M  RAD  7  23   3  24   2  25   3  26   3  27   3  28   3  29   3
M  END
>  <REMARK>  (1) 
 SMILES NS(=O)(=O)Cc1cccc(Nc2nc(OCC3CCCCC3)c3[nH]cnc3n2)c1
 SMILES IDX 6 1 7 2 8 3 9 4 10 5 29 6 5 7 2 8 3 9 4 10 1 11 11 14 12 16
 SMILES IDX 13 17 28 18 14 19 27 20 23 21 26 22 24 23 25 24 15 26 16 27
 SMILES IDX 17 28 18 29 22 30 19 31 21 32 20 33
 H PARENT 1 12 1 13 11 15 24 25

>  <TORSDO>  (1) 
F 8

$$$$
