/home/pchatterjee/Documents/git/vs_workflow/DiffDock/diffdock_run/pdbqt_scrubbed/46221689.pdbqt
     RDKit          3D

 29 32  0  0  1  0  0  0  0  0999 V2000
    8.1810   67.8614   82.6106 C   0  0  0  0  0  0  0  0  0  0  0  0
    8.8540   68.7926   81.8517 C   0  0  0  0  0  3  0  0  0  0  0  0
   10.1456   68.5482   81.4054 C   0  0  0  0  0  3  0  0  0  0  0  0
   10.7077   67.3237   81.7673 C   0  0  0  0  0  3  0  0  0  0  0  0
   10.0712   66.3802   82.5163 C   0  0  0  0  0  0  0  0  0  0  0  0
    8.7875   66.6536   82.9446 C   0  0  0  0  0  3  0  0  0  0  0  0
    6.7994   68.0913   83.1036 C   0  0  0  0  0  2  0  0  0  0  0  0
    6.8610   68.5379   84.8241 S   0  0  1  0  0  0  0  0  0  0  0  0
    7.4034   67.3467   85.5706 O   0  0  0  0  0  0  0  0  0  0  0  0
    7.8214   69.6731   85.0380 O   0  0  0  0  0  0  0  0  0  0  0  0
    5.2796   68.9330   85.3662 N   0  0  0  0  0  0  0  0  0  0  0  0
   10.7532   65.1709   82.8178 N   0  0  0  0  0  0  0  0  0  0  0  0
   10.2771   63.9563   82.2359 C   0  0  0  0  0  3  0  0  0  0  0  0
   11.1927   62.8612   82.3477 N   0  0  0  0  0  0  0  0  0  0  0  0
    8.9578   63.5580   82.6991 N   0  0  0  0  0  0  0  0  0  0  0  0
   11.0787   61.9260   83.2474 C   0  0  0  0  0  0  0  0  0  0  0  0
    8.8080   62.6508   83.5959 C   0  0  0  0  0  0  0  0  0  0  0  0
    9.9740   61.9401   84.2270 C   0  0  0  0  0  3  0  0  0  0  0  0
    7.6639   62.0589   84.2389 N   0  0  0  0  0  0  0  0  0  0  0  0
    9.3816   60.6342   84.4473 N   0  0  0  0  0  0  0  0  0  0  0  0
    7.9984   60.9052   84.7240 C   0  0  0  0  0  3  0  0  0  0  0  0
   12.0348   60.9001   83.2637 O   0  0  0  0  0  0  0  0  0  0  0  0
   13.4063   61.2799   83.2313 C   0  0  0  0  0  2  0  0  0  0  0  0
   14.2280   60.0277   83.1797 C   0  0  0  0  0  3  0  0  0  0  0  0
   14.0131   59.2204   84.4390 C   0  0  0  0  0  2  0  0  0  0  0  0
   15.6773   60.4030   82.9589 C   0  0  0  0  0  2  0  0  0  0  0  0
   14.7724   59.7410   85.6156 C   0  0  0  0  0  2  0  0  0  0  0  0
   16.2498   61.0691   84.1781 C   0  0  0  0  0  2  0  0  0  0  0  0
   16.2388   60.0426   85.2916 C   0  0  0  0  0  2  0  0  0  0  0  0
  1  2  2  0
  2  3  1  0
  4  3  2  0
  5  4  1  0
  6  5  2  0
  6  1  1  0
  7  1  1  0
  7  8  1  0
  8 11  1  1
  8 10  2  0
  9  8  2  0
 12  5  1  0
 13 12  1  0
 14 13  1  0
 15 13  1  0
 16 14  2  0
 17 15  2  0
 18 16  1  0
 18 17  1  0
 19 17  1  0
 20 21  1  0
 20 18  1  0
 21 19  2  0
 22 16  1  0
 23 22  1  0
 23 24  1  0
 25 24  1  0
 25 27  1  0
 26 24  1  0
 26 28  1  0
 29 27  1  0
 29 28  1  0
M  RAD  8   2   2   3   2   4   2   6   2   7   3  13   2  18   2  21   2
M  RAD  7  23   3  24   2  25   3  26   3  27   3  28   3  29   3
M  END
>  <REMARK>  (1) 
 SMILES NS(=O)(=O)Cc1cccc(Nc2nc(OCC3CCCCC3)c3[nH]cnc3n2)c1
 SMILES IDX 6 1 7 2 8 3 9 4 10 5 29 6 5 7 2 8 3 9 4 10 1 11 11 14 12 16
 SMILES IDX 13 17 28 18 14 19 27 20 23 21 26 22 24 23 25 24 15 26 16 27
 SMILES IDX 17 28 18 29 22 30 19 31 21 32 20 33
 H PARENT 1 12 1 13 11 15 24 25

>  <TORSDO>  (1) 
F 8

$$$$
