MODEL 1
REMARK VINA RESULT:    -8.966      0.000      0.000
REMARK INTER + INTRA:         -14.021
REMARK INTER:                 -12.636
REMARK INTRA:                  -1.385
REMARK UNBOUND:                -1.385
REMARK SMILES C=CS(=O)(=O)c1ccc(Nc2nc(OCC3CCCCC3)c3[nH]cnc3n2)cc1
REMARK SMILES IDX 10 1 9 3 6 4 7 5 29 6 8 7 28 8 3 9 4 10 5 11 2 12 1 13 11 14
REMARK SMILES IDX 12 15 27 16 13 17 26 18 22 19 25 20 23 21 24 22 14 24 15 25
REMARK SMILES IDX 16 26 17 27 21 28 18 29 20 30 19 31
REMARK H PARENT 10 2 23 23
ROOT
ATOM      1  N   UNL     1       3.174  45.828  56.031  1.00  0.00    -0.324 N 
ATOM      2  H   UNL     1       3.241  46.066  57.011  1.00  0.00     0.170 HD
ENDROOT
BRANCH   1   3
ATOM      3  C   UNL     1       4.290  46.097  55.232  1.00  0.00     0.041 A 
ATOM      4  C   UNL     1       6.472  46.758  53.575  1.00  0.00     0.071 A 
ATOM      5  C   UNL     1       5.349  47.584  53.599  1.00  0.00     0.023 A 
ATOM      6  C   UNL     1       6.530  45.624  54.384  1.00  0.00     0.023 A 
ATOM      7  C   UNL     1       4.269  47.246  54.421  1.00  0.00     0.027 A 
ATOM      8  C   UNL     1       5.441  45.301  55.202  1.00  0.00     0.027 A 
BRANCH   4   9
ATOM      9  S   UNL     1       7.861  47.181  52.544  1.00  0.00     0.199 S 
ATOM     10  O   UNL     1       7.963  48.630  52.535  1.00  0.00    -0.219 OA
ATOM     11  O   UNL     1       7.706  46.448  51.302  1.00  0.00    -0.219 OA
BRANCH   9  12
ATOM     12  C   UNL     1       9.186  46.487  53.430  1.00  0.00     0.103 C 
ATOM     13  C   UNL     1       9.899  47.222  54.293  1.00  0.00     0.022 C 
ENDBRANCH   9  12
ENDBRANCH   4   9
ENDBRANCH   1   3
BRANCH   1  14
ATOM     14  C   UNL     1       1.902  45.303  55.793  1.00  0.00     0.232 A 
ATOM     15  N   UNL     1       1.632  44.627  54.656  1.00  0.00    -0.175 NA
ATOM     16  N   UNL     1       1.027  45.535  56.780  1.00  0.00    -0.191 NA
ATOM     17  C   UNL     1       0.398  44.128  54.458  1.00  0.00     0.245 A 
ATOM     18  C   UNL     1      -0.198  45.034  56.566  1.00  0.00     0.186 A 
ATOM     19  C   UNL     1      -0.541  44.335  55.431  1.00  0.00     0.148 A 
ATOM     20  N   UNL     1      -1.267  45.137  57.416  1.00  0.00    -0.217 NA
ATOM     21  N   UNL     1      -1.854  44.003  55.597  1.00  0.00    -0.339 N 
ATOM     22  C   UNL     1      -2.248  44.507  56.806  1.00  0.00     0.199 A 
ATOM     23  H   UNL     1      -2.423  43.481  54.945  1.00  0.00     0.168 HD
BRANCH  17  24
ATOM     24  O   UNL     1       0.075  43.430  53.315  1.00  0.00    -0.476 OA
BRANCH  24  25
ATOM     25  C   UNL     1       1.157  42.628  52.827  1.00  0.00     0.235 C 
BRANCH  25  26
ATOM     26  C   UNL     1       1.433  43.007  51.360  1.00  0.00     0.027 C 
ATOM     27  C   UNL     1       1.610  44.524  51.167  1.00  0.00     0.007 C 
ATOM     28  C   UNL     1       2.652  42.253  50.808  1.00  0.00     0.007 C 
ATOM     29  C   UNL     1       2.933  45.046  51.724  1.00  0.00     0.000 C 
ATOM     30  C   UNL     1       3.977  42.769  51.367  1.00  0.00     0.000 C 
ATOM     31  C   UNL     1       4.124  44.273  51.165  1.00  0.00     0.000 C 
ENDBRANCH  25  26
ENDBRANCH  24  25
ENDBRANCH  17  24
ENDBRANCH   1  14
TORSDOF 7
ENDMDL
MODEL 2
REMARK VINA RESULT:    -8.774      3.487      8.329
REMARK INTER + INTRA:         -13.751
REMARK INTER:                 -12.961
REMARK INTRA:                  -0.789
REMARK UNBOUND:                -1.385
REMARK SMILES C=CS(=O)(=O)c1ccc(Nc2nc(OCC3CCCCC3)c3[nH]cnc3n2)cc1
REMARK SMILES IDX 10 1 9 3 6 4 7 5 29 6 8 7 28 8 3 9 4 10 5 11 2 12 1 13 11 14
REMARK SMILES IDX 12 15 27 16 13 17 26 18 22 19 25 20 23 21 24 22 14 24 15 25
REMARK SMILES IDX 16 26 17 27 21 28 18 29 20 30 19 31
REMARK H PARENT 10 2 23 23
ROOT
ATOM      1  N   UNL     1       3.176  43.432  53.452  1.00  0.00    -0.324 N 
ATOM      2  H   UNL     1       3.716  43.305  54.297  1.00  0.00     0.170 HD
ENDROOT
BRANCH   1   3
ATOM      3  C   UNL     1       1.795  43.599  53.596  1.00  0.00     0.041 A 
ATOM      4  C   UNL     1      -0.961  44.058  53.960  1.00  0.00     0.071 A 
ATOM      5  C   UNL     1      -0.037  44.963  54.479  1.00  0.00     0.023 A 
ATOM      6  C   UNL     1      -0.530  42.943  53.242  1.00  0.00     0.023 A 
ATOM      7  C   UNL     1       1.329  44.726  54.298  1.00  0.00     0.027 A 
ATOM      8  C   UNL     1       0.841  42.721  53.069  1.00  0.00     0.027 A 
BRANCH   4   9
ATOM      9  S   UNL     1      -2.705  44.353  54.170  1.00  0.00     0.199 S 
ATOM     10  O   UNL     1      -3.398  43.152  53.739  1.00  0.00    -0.219 OA
ATOM     11  O   UNL     1      -2.996  45.632  53.549  1.00  0.00    -0.219 OA
BRANCH   9  12
ATOM     12  C   UNL     1      -2.831  44.539  55.894  1.00  0.00     0.103 C 
ATOM     13  C   UNL     1      -2.766  43.478  56.708  1.00  0.00     0.022 C 
ENDBRANCH   9  12
ENDBRANCH   4   9
ENDBRANCH   1   3
BRANCH   1  14
ATOM     14  C   UNL     1       4.047  43.366  52.362  1.00  0.00     0.232 A 
ATOM     15  N   UNL     1       4.917  44.366  52.108  1.00  0.00    -0.175 NA
ATOM     16  N   UNL     1       3.924  42.246  51.637  1.00  0.00    -0.191 NA
ATOM     17  C   UNL     1       5.749  44.272  51.054  1.00  0.00     0.245 A 
ATOM     18  C   UNL     1       4.757  42.170  50.589  1.00  0.00     0.186 A 
ATOM     19  C   UNL     1       5.668  43.151  50.273  1.00  0.00     0.148 A 
ATOM     20  N   UNL     1       4.827  41.135  49.694  1.00  0.00    -0.217 NA
ATOM     21  N   UNL     1       6.312  42.699  49.158  1.00  0.00    -0.339 N 
ATOM     22  C   UNL     1       5.772  41.481  48.846  1.00  0.00     0.199 A 
ATOM     23  H   UNL     1       7.049  43.179  48.660  1.00  0.00     0.168 HD
BRANCH  17  24
ATOM     24  O   UNL     1       6.655  45.265  50.756  1.00  0.00    -0.476 OA
BRANCH  24  25
ATOM     25  C   UNL     1       6.886  46.156  51.853  1.00  0.00     0.235 C 
BRANCH  25  26
ATOM     26  C   UNL     1       8.054  47.094  51.494  1.00  0.00     0.027 C 
ATOM     27  C   UNL     1       8.122  48.329  52.411  1.00  0.00     0.007 C 
ATOM     28  C   UNL     1       9.395  46.346  51.506  1.00  0.00     0.007 C 
ATOM     29  C   UNL     1       8.605  47.997  53.822  1.00  0.00     0.000 C 
ATOM     30  C   UNL     1       9.878  46.008  52.915  1.00  0.00     0.000 C 
ATOM     31  C   UNL     1       9.933  47.249  53.802  1.00  0.00     0.000 C 
ENDBRANCH  25  26
ENDBRANCH  24  25
ENDBRANCH  17  24
ENDBRANCH   1  14
TORSDOF 7
ENDMDL
MODEL 3
REMARK VINA RESULT:    -8.768      3.451      7.972
REMARK INTER + INTRA:         -13.741
REMARK INTER:                 -13.010
REMARK INTRA:                  -0.731
REMARK UNBOUND:                -1.385
REMARK SMILES C=CS(=O)(=O)c1ccc(Nc2nc(OCC3CCCCC3)c3[nH]cnc3n2)cc1
REMARK SMILES IDX 10 1 9 3 6 4 7 5 29 6 8 7 28 8 3 9 4 10 5 11 2 12 1 13 11 14
REMARK SMILES IDX 12 15 27 16 13 17 26 18 22 19 25 20 23 21 24 22 14 24 15 25
REMARK SMILES IDX 16 26 17 27 21 28 18 29 20 30 19 31
REMARK H PARENT 10 2 23 23
ROOT
ATOM      1  N   UNL     1       2.282  43.201  53.358  1.00  0.00    -0.324 N 
ATOM      2  H   UNL     1       2.168  42.206  53.223  1.00  0.00     0.170 HD
ENDROOT
BRANCH   1   3
ATOM      3  C   UNL     1       1.348  43.844  54.178  1.00  0.00     0.041 A 
ATOM      4  C   UNL     1      -0.637  45.071  55.756  1.00  0.00     0.071 A 
ATOM      5  C   UNL     1      -1.009  44.182  54.748  1.00  0.00     0.023 A 
ATOM      6  C   UNL     1       0.710  45.334  56.002  1.00  0.00     0.023 A 
ATOM      7  C   UNL     1      -0.018  43.581  53.967  1.00  0.00     0.027 A 
ATOM      8  C   UNL     1       1.689  44.723  55.211  1.00  0.00     0.027 A 
BRANCH   4   9
ATOM      9  S   UNL     1      -1.887  45.834  56.770  1.00  0.00     0.199 S 
ATOM     10  O   UNL     1      -2.192  44.907  57.844  1.00  0.00    -0.219 OA
ATOM     11  O   UNL     1      -2.934  46.295  55.877  1.00  0.00    -0.219 OA
BRANCH   9  12
ATOM     12  C   UNL     1      -1.044  47.223  57.390  1.00  0.00     0.103 C 
ATOM     13  C   UNL     1      -1.314  47.705  58.610  1.00  0.00     0.022 C 
ENDBRANCH   9  12
ENDBRANCH   4   9
ENDBRANCH   1   3
BRANCH   1  14
ATOM     14  C   UNL     1       3.386  43.621  52.613  1.00  0.00     0.232 A 
ATOM     15  N   UNL     1       3.911  44.852  52.785  1.00  0.00    -0.175 NA
ATOM     16  N   UNL     1       3.841  42.699  51.754  1.00  0.00    -0.191 NA
ATOM     17  C   UNL     1       4.980  45.226  52.057  1.00  0.00     0.245 A 
ATOM     18  C   UNL     1       4.903  43.089  51.034  1.00  0.00     0.186 A 
ATOM     19  C   UNL     1       5.489  44.328  51.159  1.00  0.00     0.148 A 
ATOM     20  N   UNL     1       5.551  42.338  50.089  1.00  0.00    -0.217 NA
ATOM     21  N   UNL     1       6.522  44.329  50.268  1.00  0.00    -0.339 N 
ATOM     22  C   UNL     1       6.521  43.110  49.647  1.00  0.00     0.199 A 
ATOM     23  H   UNL     1       7.165  45.091  50.102  1.00  0.00     0.168 HD
BRANCH  17  24
ATOM     24  O   UNL     1       5.551  46.471  52.198  1.00  0.00    -0.476 OA
BRANCH  24  25
ATOM     25  C   UNL     1       6.672  46.472  53.090  1.00  0.00     0.235 C 
BRANCH  25  26
ATOM     26  C   UNL     1       7.647  47.585  52.662  1.00  0.00     0.027 C 
ATOM     27  C   UNL     1       8.686  47.909  53.750  1.00  0.00     0.007 C 
ATOM     28  C   UNL     1       8.347  47.236  51.340  1.00  0.00     0.007 C 
ATOM     29  C   UNL     1       9.743  46.817  53.908  1.00  0.00     0.000 C 
ATOM     30  C   UNL     1       9.400  46.141  51.495  1.00  0.00     0.000 C 
ATOM     31  C   UNL     1      10.415  46.486  52.580  1.00  0.00     0.000 C 
ENDBRANCH  25  26
ENDBRANCH  24  25
ENDBRANCH  17  24
ENDBRANCH   1  14
TORSDOF 7
ENDMDL
MODEL 4
REMARK VINA RESULT:    -8.756      3.632      8.342
REMARK INTER + INTRA:         -13.725
REMARK INTER:                 -12.961
REMARK INTRA:                  -0.764
REMARK UNBOUND:                -1.385
REMARK SMILES C=CS(=O)(=O)c1ccc(Nc2nc(OCC3CCCCC3)c3[nH]cnc3n2)cc1
REMARK SMILES IDX 10 1 9 3 6 4 7 5 29 6 8 7 28 8 3 9 4 10 5 11 2 12 1 13 11 14
REMARK SMILES IDX 12 15 27 16 13 17 26 18 22 19 25 20 23 21 24 22 14 24 15 25
REMARK SMILES IDX 16 26 17 27 21 28 18 29 20 30 19 31
REMARK H PARENT 10 2 23 23
ROOT
ATOM      1  N   UNL     1       3.093  43.518  53.433  1.00  0.00    -0.324 N 
ATOM      2  H   UNL     1       3.616  43.476  54.296  1.00  0.00     0.170 HD
ENDROOT
BRANCH   1   3
ATOM      3  C   UNL     1       1.701  43.607  53.535  1.00  0.00     0.041 A 
ATOM      4  C   UNL     1      -1.087  43.912  53.812  1.00  0.00     0.071 A 
ATOM      5  C   UNL     1      -0.232  44.883  54.330  1.00  0.00     0.023 A 
ATOM      6  C   UNL     1      -0.571  42.807  53.136  1.00  0.00     0.023 A 
ATOM      7  C   UNL     1       1.150  44.722  54.193  1.00  0.00     0.027 A 
ATOM      8  C   UNL     1       0.815  42.662  53.006  1.00  0.00     0.027 A 
BRANCH   4   9
ATOM      9  S   UNL     1      -2.850  44.109  53.966  1.00  0.00     0.199 S 
ATOM     10  O   UNL     1      -3.146  44.224  55.382  1.00  0.00    -0.219 OA
ATOM     11  O   UNL     1      -3.465  43.063  53.169  1.00  0.00    -0.219 OA
BRANCH   9  12
ATOM     12  C   UNL     1      -3.110  45.632  53.167  1.00  0.00     0.103 C 
ATOM     13  C   UNL     1      -2.764  45.805  51.885  1.00  0.00     0.022 C 
ENDBRANCH   9  12
ENDBRANCH   4   9
ENDBRANCH   1   3
BRANCH   1  14
ATOM     14  C   UNL     1       3.995  43.442  52.369  1.00  0.00     0.232 A 
ATOM     15  N   UNL     1       4.879  44.435  52.137  1.00  0.00    -0.175 NA
ATOM     16  N   UNL     1       3.885  42.320  51.646  1.00  0.00    -0.191 NA
ATOM     17  C   UNL     1       5.741  44.330  51.108  1.00  0.00     0.245 A 
ATOM     18  C   UNL     1       4.747  42.233  50.623  1.00  0.00     0.186 A 
ATOM     19  C   UNL     1       5.675  43.207  50.330  1.00  0.00     0.148 A 
ATOM     20  N   UNL     1       4.836  41.194  49.735  1.00  0.00    -0.217 NA
ATOM     21  N   UNL     1       6.347  42.746  49.236  1.00  0.00    -0.339 N 
ATOM     22  C   UNL     1       5.808  41.530  48.913  1.00  0.00     0.199 A 
ATOM     23  H   UNL     1       7.103  43.218  48.758  1.00  0.00     0.168 HD
BRANCH  17  24
ATOM     24  O   UNL     1       6.662  45.316  50.833  1.00  0.00    -0.476 OA
BRANCH  24  25
ATOM     25  C   UNL     1       6.912  46.174  51.953  1.00  0.00     0.235 C 
BRANCH  25  26
ATOM     26  C   UNL     1       8.091  47.104  51.612  1.00  0.00     0.027 C 
ATOM     27  C   UNL     1       8.170  48.322  52.550  1.00  0.00     0.007 C 
ATOM     28  C   UNL     1       9.424  46.342  51.612  1.00  0.00     0.007 C 
ATOM     29  C   UNL     1       8.647  47.962  53.956  1.00  0.00     0.000 C 
ATOM     30  C   UNL     1       9.900  45.975  53.017  1.00  0.00     0.000 C 
ATOM     31  C   UNL     1       9.967  47.199  53.925  1.00  0.00     0.000 C 
ENDBRANCH  25  26
ENDBRANCH  24  25
ENDBRANCH  17  24
ENDBRANCH   1  14
TORSDOF 7
ENDMDL
MODEL 5
REMARK VINA RESULT:    -8.664      3.251      7.349
REMARK INTER + INTRA:         -13.595
REMARK INTER:                 -12.381
REMARK INTRA:                  -1.213
REMARK UNBOUND:                -1.385
REMARK SMILES C=CS(=O)(=O)c1ccc(Nc2nc(OCC3CCCCC3)c3[nH]cnc3n2)cc1
REMARK SMILES IDX 10 1 9 3 6 4 7 5 29 6 8 7 28 8 3 9 4 10 5 11 2 12 1 13 11 14
REMARK SMILES IDX 12 15 27 16 13 17 26 18 22 19 25 20 23 21 24 22 14 24 15 25
REMARK SMILES IDX 16 26 17 27 21 28 18 29 20 30 19 31
REMARK H PARENT 10 2 23 23
ROOT
ATOM      1  N   UNL     1       4.634  47.149  54.246  1.00  0.00    -0.324 N 
ATOM      2  H   UNL     1       4.605  47.972  54.832  1.00  0.00     0.170 HD
ENDROOT
BRANCH   1   3
ATOM      3  C   UNL     1       3.444  46.428  54.098  1.00  0.00     0.041 A 
ATOM      4  C   UNL     1       1.026  45.045  53.676  1.00  0.00     0.071 A 
ATOM      5  C   UNL     1       1.463  45.975  52.733  1.00  0.00     0.023 A 
ATOM      6  C   UNL     1       1.792  44.779  54.810  1.00  0.00     0.023 A 
ATOM      7  C   UNL     1       2.662  46.661  52.953  1.00  0.00     0.027 A 
ATOM      8  C   UNL     1       2.990  45.473  55.014  1.00  0.00     0.027 A 
BRANCH   4   9
ATOM      9  S   UNL     1      -0.492  44.154  53.404  1.00  0.00     0.199 S 
ATOM     10  O   UNL     1      -1.265  44.909  52.435  1.00  0.00    -0.219 OA
ATOM     11  O   UNL     1      -1.046  43.853  54.712  1.00  0.00    -0.219 OA
BRANCH   9  12
ATOM     12  C   UNL     1       0.085  42.674  52.699  1.00  0.00     0.103 C 
ATOM     13  C   UNL     1       1.077  42.680  51.798  1.00  0.00     0.022 C 
ENDBRANCH   9  12
ENDBRANCH   4   9
ENDBRANCH   1   3
BRANCH   1  14
ATOM     14  C   UNL     1       5.940  46.992  53.777  1.00  0.00     0.232 A 
ATOM     15  N   UNL     1       6.179  46.549  52.524  1.00  0.00    -0.175 NA
ATOM     16  N   UNL     1       6.880  47.322  54.672  1.00  0.00    -0.191 NA
ATOM     17  C   UNL     1       7.448  46.414  52.098  1.00  0.00     0.245 A 
ATOM     18  C   UNL     1       8.139  47.178  54.233  1.00  0.00     0.186 A 
ATOM     19  C   UNL     1       8.454  46.732  52.970  1.00  0.00     0.148 A 
ATOM     20  N   UNL     1       9.275  47.442  54.952  1.00  0.00    -0.217 NA
ATOM     21  N   UNL     1       9.817  46.728  52.918  1.00  0.00    -0.339 N 
ATOM     22  C   UNL     1      10.268  47.164  54.135  1.00  0.00     0.199 A 
ATOM     23  H   UNL     1      10.383  46.455  52.127  1.00  0.00     0.168 HD
BRANCH  17  24
ATOM     24  O   UNL     1       7.741  45.967  50.829  1.00  0.00    -0.476 OA
BRANCH  24  25
ATOM     25  C   UNL     1       7.603  44.548  50.691  1.00  0.00     0.235 C 
BRANCH  25  26
ATOM     26  C   UNL     1       6.427  44.254  49.741  1.00  0.00     0.027 C 
ATOM     27  C   UNL     1       6.532  42.864  49.088  1.00  0.00     0.007 C 
ATOM     28  C   UNL     1       5.078  44.406  50.459  1.00  0.00     0.007 C 
ATOM     29  C   UNL     1       6.246  41.723  50.063  1.00  0.00     0.000 C 
ATOM     30  C   UNL     1       4.791  43.270  51.439  1.00  0.00     0.000 C 
ATOM     31  C   UNL     1       4.905  41.906  50.766  1.00  0.00     0.000 C 
ENDBRANCH  25  26
ENDBRANCH  24  25
ENDBRANCH  17  24
ENDBRANCH   1  14
TORSDOF 7
ENDMDL
MODEL 6
REMARK VINA RESULT:    -8.379      3.683      8.109
REMARK INTER + INTRA:         -13.193
REMARK INTER:                 -12.361
REMARK INTRA:                  -0.831
REMARK UNBOUND:                -1.385
REMARK SMILES C=CS(=O)(=O)c1ccc(Nc2nc(OCC3CCCCC3)c3[nH]cnc3n2)cc1
REMARK SMILES IDX 10 1 9 3 6 4 7 5 29 6 8 7 28 8 3 9 4 10 5 11 2 12 1 13 11 14
REMARK SMILES IDX 12 15 27 16 13 17 26 18 22 19 25 20 23 21 24 22 14 24 15 25
REMARK SMILES IDX 16 26 17 27 21 28 18 29 20 30 19 31
REMARK H PARENT 10 2 23 23
ROOT
ATOM      1  N   UNL     1       2.396  45.038  55.988  1.00  0.00    -0.324 N 
ATOM      2  H   UNL     1       2.757  44.174  56.367  1.00  0.00     0.170 HD
ENDROOT
BRANCH   1   3
ATOM      3  C   UNL     1       1.224  45.545  56.560  1.00  0.00     0.041 A 
ATOM      4  C   UNL     1      -1.212  46.490  57.615  1.00  0.00     0.071 A 
ATOM      5  C   UNL     1      -1.224  45.609  56.535  1.00  0.00     0.023 A 
ATOM      6  C   UNL     1      -0.004  46.884  58.190  1.00  0.00     0.023 A 
ATOM      7  C   UNL     1      -0.011  45.148  56.014  1.00  0.00     0.027 A 
ATOM      8  C   UNL     1       1.201  46.413  57.657  1.00  0.00     0.027 A 
BRANCH   4   9
ATOM      9  S   UNL     1      -2.749  47.075  58.299  1.00  0.00     0.199 S 
ATOM     10  O   UNL     1      -3.211  46.068  59.237  1.00  0.00    -0.219 OA
ATOM     11  O   UNL     1      -3.584  47.477  57.182  1.00  0.00    -0.219 OA
BRANCH   9  12
ATOM     12  C   UNL     1      -2.241  48.505  59.146  1.00  0.00     0.103 C 
ATOM     13  C   UNL     1      -2.626  49.721  58.738  1.00  0.00     0.022 C 
ENDBRANCH   9  12
ENDBRANCH   4   9
ENDBRANCH   1   3
BRANCH   1  14
ATOM     14  C   UNL     1       3.229  45.440  54.941  1.00  0.00     0.232 A 
ATOM     15  N   UNL     1       4.248  46.298  55.156  1.00  0.00    -0.175 NA
ATOM     16  N   UNL     1       2.914  44.894  53.759  1.00  0.00    -0.191 NA
ATOM     17  C   UNL     1       5.038  46.662  54.128  1.00  0.00     0.245 A 
ATOM     18  C   UNL     1       3.708  45.269  52.746  1.00  0.00     0.186 A 
ATOM     19  C   UNL     1       4.764  46.139  52.894  1.00  0.00     0.148 A 
ATOM     20  N   UNL     1       3.596  44.858  51.444  1.00  0.00    -0.217 NA
ATOM     21  N   UNL     1       5.309  46.259  51.649  1.00  0.00    -0.339 N 
ATOM     22  C   UNL     1       4.573  45.469  50.808  1.00  0.00     0.199 A 
ATOM     23  H   UNL     1       6.108  46.825  51.401  1.00  0.00     0.168 HD
BRANCH  17  24
ATOM     24  O   UNL     1       6.090  47.534  54.299  1.00  0.00    -0.476 OA
BRANCH  24  25
ATOM     25  C   UNL     1       7.348  46.867  54.451  1.00  0.00     0.235 C 
BRANCH  25  26
ATOM     26  C   UNL     1       8.473  47.819  54.004  1.00  0.00     0.027 C 
ATOM     27  C   UNL     1       9.869  47.185  54.137  1.00  0.00     0.007 C 
ATOM     28  C   UNL     1       8.246  48.317  52.569  1.00  0.00     0.007 C 
ATOM     29  C   UNL     1      10.138  46.109  53.086  1.00  0.00     0.000 C 
ATOM     30  C   UNL     1       8.509  47.242  51.516  1.00  0.00     0.000 C 
ATOM     31  C   UNL     1       9.897  46.630  51.672  1.00  0.00     0.000 C 
ENDBRANCH  25  26
ENDBRANCH  24  25
ENDBRANCH  17  24
ENDBRANCH   1  14
TORSDOF 7
ENDMDL
MODEL 7
REMARK VINA RESULT:    -8.278      4.805      8.168
REMARK INTER + INTRA:         -13.051
REMARK INTER:                 -12.185
REMARK INTRA:                  -0.866
REMARK UNBOUND:                -1.385
REMARK SMILES C=CS(=O)(=O)c1ccc(Nc2nc(OCC3CCCCC3)c3[nH]cnc3n2)cc1
REMARK SMILES IDX 10 1 9 3 6 4 7 5 29 6 8 7 28 8 3 9 4 10 5 11 2 12 1 13 11 14
REMARK SMILES IDX 12 15 27 16 13 17 26 18 22 19 25 20 23 21 24 22 14 24 15 25
REMARK SMILES IDX 16 26 17 27 21 28 18 29 20 30 19 31
REMARK H PARENT 10 2 23 23
ROOT
ATOM      1  N   UNL     1       5.302  41.988  50.416  1.00  0.00    -0.324 N 
ATOM      2  H   UNL     1       5.963  41.430  50.938  1.00  0.00     0.170 HD
ENDROOT
BRANCH   1   3
ATOM      3  C   UNL     1       5.021  41.584  49.106  1.00  0.00     0.041 A 
ATOM      4  C   UNL     1       4.341  40.698  46.519  1.00  0.00     0.071 A 
ATOM      5  C   UNL     1       3.553  40.323  47.606  1.00  0.00     0.023 A 
ATOM      6  C   UNL     1       5.447  41.527  46.703  1.00  0.00     0.023 A 
ATOM      7  C   UNL     1       3.899  40.763  48.887  1.00  0.00     0.027 A 
ATOM      8  C   UNL     1       5.780  41.960  47.992  1.00  0.00     0.027 A 
BRANCH   4   9
ATOM      9  S   UNL     1       3.906  40.157  44.879  1.00  0.00     0.199 S 
ATOM     10  O   UNL     1       2.684  40.850  44.510  1.00  0.00    -0.219 OA
ATOM     11  O   UNL     1       3.955  38.706  44.884  1.00  0.00    -0.219 OA
BRANCH   9  12
ATOM     12  C   UNL     1       5.245  40.748  43.941  1.00  0.00     0.103 C 
ATOM     13  C   UNL     1       5.961  39.924  43.166  1.00  0.00     0.022 C 
ENDBRANCH   9  12
ENDBRANCH   4   9
ENDBRANCH   1   3
BRANCH   1  14
ATOM     14  C   UNL     1       4.889  43.050  51.223  1.00  0.00     0.232 A 
ATOM     15  N   UNL     1       5.591  44.201  51.267  1.00  0.00    -0.175 NA
ATOM     16  N   UNL     1       3.766  42.802  51.911  1.00  0.00    -0.191 NA
ATOM     17  C   UNL     1       5.165  45.210  52.050  1.00  0.00     0.245 A 
ATOM     18  C   UNL     1       3.357  43.816  52.688  1.00  0.00     0.186 A 
ATOM     19  C   UNL     1       4.024  45.016  52.780  1.00  0.00     0.148 A 
ATOM     20  N   UNL     1       2.246  43.814  53.489  1.00  0.00    -0.217 NA
ATOM     21  N   UNL     1       3.297  45.765  53.659  1.00  0.00    -0.339 N 
ATOM     22  C   UNL     1       2.236  45.000  54.060  1.00  0.00     0.199 A 
ATOM     23  H   UNL     1       3.508  46.708  53.954  1.00  0.00     0.168 HD
BRANCH  17  24
ATOM     24  O   UNL     1       5.847  46.404  52.127  1.00  0.00    -0.476 OA
BRANCH  24  25
ATOM     25  C   UNL     1       6.742  46.465  53.243  1.00  0.00     0.235 C 
BRANCH  25  26
ATOM     26  C   UNL     1       7.752  47.604  53.008  1.00  0.00     0.027 C 
ATOM     27  C   UNL     1       8.886  47.609  54.049  1.00  0.00     0.007 C 
ATOM     28  C   UNL     1       8.332  47.553  51.587  1.00  0.00     0.007 C 
ATOM     29  C   UNL     1       9.880  46.465  53.854  1.00  0.00     0.000 C 
ATOM     30  C   UNL     1       9.322  46.407  51.387  1.00  0.00     0.000 C 
ATOM     31  C   UNL     1      10.432  46.436  52.432  1.00  0.00     0.000 C 
ENDBRANCH  25  26
ENDBRANCH  24  25
ENDBRANCH  17  24
ENDBRANCH   1  14
TORSDOF 7
ENDMDL
MODEL 8
REMARK VINA RESULT:    -8.252      5.099      8.935
REMARK INTER + INTRA:         -13.015
REMARK INTER:                 -12.171
REMARK INTRA:                  -0.843
REMARK UNBOUND:                -1.385
REMARK SMILES C=CS(=O)(=O)c1ccc(Nc2nc(OCC3CCCCC3)c3[nH]cnc3n2)cc1
REMARK SMILES IDX 10 1 9 3 6 4 7 5 29 6 8 7 28 8 3 9 4 10 5 11 2 12 1 13 11 14
REMARK SMILES IDX 12 15 27 16 13 17 26 18 22 19 25 20 23 21 24 22 14 24 15 25
REMARK SMILES IDX 16 26 17 27 21 28 18 29 20 30 19 31
REMARK H PARENT 10 2 23 23
ROOT
ATOM      1  N   UNL     1       5.632  41.623  49.436  1.00  0.00    -0.324 N 
ATOM      2  H   UNL     1       6.361  41.029  49.805  1.00  0.00     0.170 HD
ENDROOT
BRANCH   1   3
ATOM      3  C   UNL     1       5.026  41.222  48.242  1.00  0.00     0.041 A 
ATOM      4  C   UNL     1       3.707  40.338  45.913  1.00  0.00     0.071 A 
ATOM      5  C   UNL     1       3.241  39.937  47.164  1.00  0.00     0.023 A 
ATOM      6  C   UNL     1       4.804  41.192  45.811  1.00  0.00     0.023 A 
ATOM      7  C   UNL     1       3.904  40.376  48.315  1.00  0.00     0.027 A 
ATOM      8  C   UNL     1       5.455  41.624  46.972  1.00  0.00     0.027 A 
BRANCH   4   9
ATOM      9  S   UNL     1       2.867  39.798  44.439  1.00  0.00     0.199 S 
ATOM     10  O   UNL     1       2.377  38.455  44.692  1.00  0.00    -0.219 OA
ATOM     11  O   UNL     1       3.759  40.057  43.324  1.00  0.00    -0.219 OA
BRANCH   9  12
ATOM     12  C   UNL     1       1.542  40.920  44.353  1.00  0.00     0.103 C 
ATOM     13  C   UNL     1       1.687  42.190  44.754  1.00  0.00     0.022 C 
ENDBRANCH   9  12
ENDBRANCH   4   9
ENDBRANCH   1   3
BRANCH   1  14
ATOM     14  C   UNL     1       5.491  42.722  50.286  1.00  0.00     0.232 A 
ATOM     15  N   UNL     1       6.284  43.806  50.156  1.00  0.00    -0.175 NA
ATOM     16  N   UNL     1       4.519  42.580  51.197  1.00  0.00    -0.191 NA
ATOM     17  C   UNL     1       6.119  44.853  50.986  1.00  0.00     0.245 A 
ATOM     18  C   UNL     1       4.371  43.630  52.018  1.00  0.00     0.186 A 
ATOM     19  C   UNL     1       5.144  44.766  51.941  1.00  0.00     0.148 A 
ATOM     20  N   UNL     1       3.456  43.732  53.032  1.00  0.00    -0.217 NA
ATOM     21  N   UNL     1       4.684  45.582  52.933  1.00  0.00    -0.339 N 
ATOM     22  C   UNL     1       3.667  44.918  53.564  1.00  0.00     0.199 A 
ATOM     23  H   UNL     1       5.033  46.504  53.156  1.00  0.00     0.168 HD
BRANCH  17  24
ATOM     24  O   UNL     1       6.903  45.982  50.891  1.00  0.00    -0.476 OA
BRANCH  24  25
ATOM     25  C   UNL     1       8.285  45.726  51.169  1.00  0.00     0.235 C 
BRANCH  25  26
ATOM     26  C   UNL     1       8.982  47.061  51.492  1.00  0.00     0.027 C 
ATOM     27  C   UNL     1       8.036  48.072  52.165  1.00  0.00     0.007 C 
ATOM     28  C   UNL     1      10.234  46.844  52.354  1.00  0.00     0.007 C 
ATOM     29  C   UNL     1       7.704  47.706  53.611  1.00  0.00     0.000 C 
ATOM     30  C   UNL     1       9.905  46.473  53.799  1.00  0.00     0.000 C 
ATOM     31  C   UNL     1       8.965  47.489  54.440  1.00  0.00     0.000 C 
ENDBRANCH  25  26
ENDBRANCH  24  25
ENDBRANCH  17  24
ENDBRANCH   1  14
TORSDOF 7
ENDMDL
MODEL 9
REMARK VINA RESULT:    -8.251      3.369      7.497
REMARK INTER + INTRA:         -13.013
REMARK INTER:                 -11.940
REMARK INTRA:                  -1.074
REMARK UNBOUND:                -1.385
REMARK SMILES C=CS(=O)(=O)c1ccc(Nc2nc(OCC3CCCCC3)c3[nH]cnc3n2)cc1
REMARK SMILES IDX 10 1 9 3 6 4 7 5 29 6 8 7 28 8 3 9 4 10 5 11 2 12 1 13 11 14
REMARK SMILES IDX 12 15 27 16 13 17 26 18 22 19 25 20 23 21 24 22 14 24 15 25
REMARK SMILES IDX 16 26 17 27 21 28 18 29 20 30 19 31
REMARK H PARENT 10 2 23 23
ROOT
ATOM      1  N   UNL     1       3.768  46.957  53.369  1.00  0.00    -0.324 N 
ATOM      2  H   UNL     1       3.674  47.937  53.593  1.00  0.00     0.170 HD
ENDROOT
BRANCH   1   3
ATOM      3  C   UNL     1       2.664  46.136  53.623  1.00  0.00     0.041 A 
ATOM      4  C   UNL     1       0.389  44.518  54.005  1.00  0.00     0.071 A 
ATOM      5  C   UNL     1       0.537  45.230  52.816  1.00  0.00     0.023 A 
ATOM      6  C   UNL     1       1.372  44.582  54.992  1.00  0.00     0.023 A 
ATOM      7  C   UNL     1       1.667  46.034  52.636  1.00  0.00     0.027 A 
ATOM      8  C   UNL     1       2.497  45.391  54.796  1.00  0.00     0.027 A 
BRANCH   4   9
ATOM      9  S   UNL     1      -1.037  43.478  54.244  1.00  0.00     0.199 S 
ATOM     10  O   UNL     1      -1.542  43.744  55.579  1.00  0.00    -0.219 OA
ATOM     11  O   UNL     1      -0.650  42.133  53.859  1.00  0.00    -0.219 OA
BRANCH   9  12
ATOM     12  C   UNL     1      -2.135  44.097  53.046  1.00  0.00     0.103 C 
ATOM     13  C   UNL     1      -3.271  44.708  53.403  1.00  0.00     0.022 C 
ENDBRANCH   9  12
ENDBRANCH   4   9
ENDBRANCH   1   3
BRANCH   1  14
ATOM     14  C   UNL     1       5.057  46.741  52.876  1.00  0.00     0.232 A 
ATOM     15  N   UNL     1       5.291  45.807  51.931  1.00  0.00    -0.175 NA
ATOM     16  N   UNL     1       5.985  47.536  53.424  1.00  0.00    -0.191 NA
ATOM     17  C   UNL     1       6.543  45.628  51.470  1.00  0.00     0.245 A 
ATOM     18  C   UNL     1       7.227  47.342  52.958  1.00  0.00     0.186 A 
ATOM     19  C   UNL     1       7.536  46.409  51.994  1.00  0.00     0.148 A 
ATOM     20  N   UNL     1       8.349  48.020  53.355  1.00  0.00    -0.217 NA
ATOM     21  N   UNL     1       8.882  46.524  51.800  1.00  0.00    -0.339 N 
ATOM     22  C   UNL     1       9.328  47.507  52.641  1.00  0.00     0.199 A 
ATOM     23  H   UNL     1       9.439  45.983  51.153  1.00  0.00     0.168 HD
BRANCH  17  24
ATOM     24  O   UNL     1       6.831  44.688  50.505  1.00  0.00    -0.476 OA
BRANCH  24  25
ATOM     25  C   UNL     1       5.681  43.937  50.097  1.00  0.00     0.235 C 
BRANCH  25  26
ATOM     26  C   UNL     1       5.715  42.562  50.790  1.00  0.00     0.027 C 
ATOM     27  C   UNL     1       4.387  42.221  51.488  1.00  0.00     0.007 C 
ATOM     28  C   UNL     1       6.102  41.449  49.804  1.00  0.00     0.007 C 
ATOM     29  C   UNL     1       3.267  41.883  50.506  1.00  0.00     0.000 C 
ATOM     30  C   UNL     1       4.986  41.112  48.817  1.00  0.00     0.000 C 
ATOM     31  C   UNL     1       3.681  40.782  49.536  1.00  0.00     0.000 C 
ENDBRANCH  25  26
ENDBRANCH  24  25
ENDBRANCH  17  24
ENDBRANCH   1  14
TORSDOF 7
ENDMDL
MODEL 10
REMARK VINA RESULT:    -8.121      1.633      2.546
REMARK INTER + INTRA:         -12.829
REMARK INTER:                 -12.268
REMARK INTRA:                  -0.562
REMARK UNBOUND:                -1.385
REMARK SMILES C=CS(=O)(=O)c1ccc(Nc2nc(OCC3CCCCC3)c3[nH]cnc3n2)cc1
REMARK SMILES IDX 10 1 9 3 6 4 7 5 29 6 8 7 28 8 3 9 4 10 5 11 2 12 1 13 11 14
REMARK SMILES IDX 12 15 27 16 13 17 26 18 22 19 25 20 23 21 24 22 14 24 15 25
REMARK SMILES IDX 16 26 17 27 21 28 18 29 20 30 19 31
REMARK H PARENT 10 2 23 23
ROOT
ATOM      1  N   UNL     1       2.845  45.362  55.059  1.00  0.00    -0.324 N 
ATOM      2  H   UNL     1       2.543  45.430  56.021  1.00  0.00     0.170 HD
ENDROOT
BRANCH   1   3
ATOM      3  C   UNL     1       4.083  45.929  54.738  1.00  0.00     0.041 A 
ATOM      4  C   UNL     1       6.641  46.964  54.168  1.00  0.00     0.071 A 
ATOM      5  C   UNL     1       6.520  45.820  54.956  1.00  0.00     0.023 A 
ATOM      6  C   UNL     1       5.507  47.581  53.642  1.00  0.00     0.023 A 
ATOM      7  C   UNL     1       5.246  45.315  55.238  1.00  0.00     0.027 A 
ATOM      8  C   UNL     1       4.240  47.062  53.933  1.00  0.00     0.027 A 
BRANCH   4   9
ATOM      9  S   UNL     1       8.256  47.612  53.788  1.00  0.00     0.199 S 
ATOM     10  O   UNL     1       8.892  47.945  55.050  1.00  0.00    -0.219 OA
ATOM     11  O   UNL     1       8.076  48.626  52.766  1.00  0.00    -0.219 OA
BRANCH   9  12
ATOM     12  C   UNL     1       9.032  46.234  53.065  1.00  0.00     0.103 C 
ATOM     13  C   UNL     1      10.165  46.371  52.364  1.00  0.00     0.022 C 
ENDBRANCH   9  12
ENDBRANCH   4   9
ENDBRANCH   1   3
BRANCH   1  14
ATOM     14  C   UNL     1       1.848  44.709  54.332  1.00  0.00     0.232 A 
ATOM     15  N   UNL     1       2.162  43.857  53.333  1.00  0.00    -0.175 NA
ATOM     16  N   UNL     1       0.604  45.011  54.727  1.00  0.00    -0.191 NA
ATOM     17  C   UNL     1       1.179  43.237  52.655  1.00  0.00     0.245 A 
ATOM     18  C   UNL     1      -0.364  44.388  54.038  1.00  0.00     0.186 A 
ATOM     19  C   UNL     1      -0.114  43.508  53.010  1.00  0.00     0.148 A 
ATOM     20  N   UNL     1      -1.711  44.527  54.243  1.00  0.00    -0.217 NA
ATOM     21  N   UNL     1      -1.342  43.099  52.580  1.00  0.00    -0.339 N 
ATOM     22  C   UNL     1      -2.274  43.739  53.352  1.00  0.00     0.199 A 
ATOM     23  H   UNL     1      -1.524  42.444  51.832  1.00  0.00     0.168 HD
BRANCH  17  24
ATOM     24  O   UNL     1       1.451  42.358  51.629  1.00  0.00    -0.476 OA
BRANCH  24  25
ATOM     25  C   UNL     1       2.571  42.760  50.832  1.00  0.00     0.235 C 
BRANCH  25  26
ATOM     26  C   UNL     1       3.865  42.282  51.517  1.00  0.00     0.027 C 
ATOM     27  C   UNL     1       4.583  41.181  50.715  1.00  0.00     0.007 C 
ATOM     28  C   UNL     1       4.820  43.453  51.789  1.00  0.00     0.007 C 
ATOM     29  C   UNL     1       5.253  41.708  49.447  1.00  0.00     0.000 C 
ATOM     30  C   UNL     1       5.487  43.986  50.522  1.00  0.00     0.000 C 
ATOM     31  C   UNL     1       6.188  42.875  49.747  1.00  0.00     0.000 C 
ENDBRANCH  25  26
ENDBRANCH  24  25
ENDBRANCH  17  24
ENDBRANCH   1  14
TORSDOF 7
ENDMDL
