MODEL 1
REMARK VINA RESULT:    -9.798      0.000      0.000
REMARK INTER + INTRA:         -13.314
REMARK INTER:                 -12.662
REMARK INTRA:                  -0.652
REMARK UNBOUND:                -0.652
REMARK SMILES Fc1ccc(Nc2nc3nc[nH]c3c(OCC3CCCCC3)[nH+]2)cc1
REMARK SMILES IDX 7 1 8 2 9 3 10 4 11 5 12 6 13 7 14 8 23 9 6 12 5 14 2 15
REMARK SMILES IDX 3 16 25 17 4 18 24 19 1 20 15 21 16 22 17 23 18 24 22 25
REMARK SMILES IDX 19 26 21 27 20 28
REMARK H PARENT 12 10 23 11 6 13
ROOT
ATOM      1  C   UNL     1       3.436  43.883  53.120  1.00  0.00     0.399 A 
ATOM      2  N   UNL     1       2.195  44.022  53.605  1.00  0.00    -0.048 NA
ATOM      3  C   UNL     1       2.121  44.780  54.714  1.00  0.00     0.264 A 
ATOM      4  N   UNL     1       0.982  45.097  55.384  1.00  0.00    -0.202 NA
ATOM      5  C   UNL     1       1.369  45.847  56.396  1.00  0.00     0.201 A 
ATOM      6  N   UNL     1       2.727  46.034  56.398  1.00  0.00    -0.336 N 
ATOM      7  C   UNL     1       3.231  45.334  55.331  1.00  0.00     0.180 A 
ATOM      8  C   UNL     1       4.488  45.102  54.816  1.00  0.00     0.284 A 
ATOM      9  N   UNL     1       4.531  44.389  53.694  1.00  0.00    -0.209 N 
ATOM     10  H   UNL     1       3.249  46.569  57.083  1.00  0.00     0.168 HD
ATOM     11  H   UNL     1       5.420  44.196  53.252  1.00  0.00     0.270 HD
ENDROOT
BRANCH   1  12
ATOM     12  N   UNL     1       3.607  43.089  51.983  1.00  0.00    -0.242 N 
ATOM     13  H   UNL     1       2.706  42.982  51.507  1.00  0.00     0.267 HD
BRANCH  12  14
ATOM     14  C   UNL     1       4.686  43.035  51.085  1.00  0.00     0.099 A 
ATOM     15  C   UNL     1       6.861  43.048  49.326  1.00  0.00     0.123 A 
ATOM     16  C   UNL     1       6.452  44.236  49.917  1.00  0.00     0.043 A 
ATOM     17  C   UNL     1       6.208  41.852  49.602  1.00  0.00     0.043 A 
ATOM     18  C   UNL     1       5.373  44.226  50.801  1.00  0.00     0.046 A 
ATOM     19  C   UNL     1       5.123  41.843  50.483  1.00  0.00     0.046 A 
ATOM     20  F   UNL     1       7.897  43.051  48.481  1.00  0.00    -0.207 F 
ENDBRANCH  12  14
ENDBRANCH   1  12
BRANCH   8  21
ATOM     21  O   UNL     1       5.619  45.653  55.355  1.00  0.00    -0.466 OA
BRANCH  21  22
ATOM     22  C   UNL     1       6.053  46.781  54.572  1.00  0.00     0.236 C 
BRANCH  22  23
ATOM     23  C   UNL     1       7.396  46.431  53.911  1.00  0.00     0.027 C 
ATOM     24  C   UNL     1       7.357  46.726  52.406  1.00  0.00     0.007 C 
ATOM     25  C   UNL     1       8.568  47.168  54.581  1.00  0.00     0.007 C 
ATOM     26  C   UNL     1       8.689  46.396  51.737  1.00  0.00     0.000 C 
ATOM     27  C   UNL     1       9.898  46.850  53.903  1.00  0.00     0.000 C 
ATOM     28  C   UNL     1       9.849  47.130  52.404  1.00  0.00     0.000 C 
ENDBRANCH  22  23
ENDBRANCH  21  22
ENDBRANCH   8  21
TORSDOF 5
ENDMDL
MODEL 2
REMARK VINA RESULT:    -9.726      3.033      6.271
REMARK INTER + INTRA:         -13.220
REMARK INTER:                 -12.202
REMARK INTRA:                  -1.018
REMARK UNBOUND:                -0.652
REMARK SMILES Fc1ccc(Nc2nc3nc[nH]c3c(OCC3CCCCC3)[nH+]2)cc1
REMARK SMILES IDX 7 1 8 2 9 3 10 4 11 5 12 6 13 7 14 8 23 9 6 12 5 14 2 15
REMARK SMILES IDX 3 16 25 17 4 18 24 19 1 20 15 21 16 22 17 23 18 24 22 25
REMARK SMILES IDX 19 26 21 27 20 28
REMARK H PARENT 12 10 23 11 6 13
ROOT
ATOM      1  C   UNL     1       5.915  46.971  54.040  1.00  0.00     0.399 A 
ATOM      2  N   UNL     1       6.905  47.347  54.861  1.00  0.00    -0.048 NA
ATOM      3  C   UNL     1       8.138  47.158  54.356  1.00  0.00     0.264 A 
ATOM      4  N   UNL     1       9.305  47.481  54.973  1.00  0.00    -0.202 NA
ATOM      5  C   UNL     1      10.254  47.127  54.129  1.00  0.00     0.201 A 
ATOM      6  N   UNL     1       9.736  46.593  52.978  1.00  0.00    -0.336 N 
ATOM      7  C   UNL     1       8.371  46.586  53.116  1.00  0.00     0.180 A 
ATOM      8  C   UNL     1       7.310  46.164  52.346  1.00  0.00     0.284 A 
ATOM      9  N   UNL     1       6.101  46.403  52.846  1.00  0.00    -0.209 N 
ATOM     10  H   UNL     1      10.276  46.247  52.192  1.00  0.00     0.168 HD
ATOM     11  H   UNL     1       5.275  46.135  52.324  1.00  0.00     0.270 HD
ENDROOT
BRANCH   1  12
ATOM     12  N   UNL     1       4.601  47.110  54.497  1.00  0.00    -0.242 N 
ATOM     13  H   UNL     1       4.393  48.103  54.632  1.00  0.00     0.267 HD
BRANCH  12  14
ATOM     14  C   UNL     1       3.455  46.372  54.155  1.00  0.00     0.099 A 
ATOM     15  C   UNL     1       1.169  44.968  53.365  1.00  0.00     0.123 A 
ATOM     16  C   UNL     1       1.622  46.028  52.592  1.00  0.00     0.043 A 
ATOM     17  C   UNL     1       1.841  44.591  54.522  1.00  0.00     0.043 A 
ATOM     18  C   UNL     1       2.767  46.722  52.983  1.00  0.00     0.046 A 
ATOM     19  C   UNL     1       2.985  45.290  54.918  1.00  0.00     0.046 A 
ATOM     20  F   UNL     1       0.075  44.297  52.992  1.00  0.00    -0.207 F 
ENDBRANCH  12  14
ENDBRANCH   1  12
BRANCH   8  21
ATOM     21  O   UNL     1       7.472  45.628  51.097  1.00  0.00    -0.466 OA
BRANCH  21  22
ATOM     22  C   UNL     1       6.193  45.327  50.507  1.00  0.00     0.236 C 
BRANCH  22  23
ATOM     23  C   UNL     1       5.822  43.876  50.856  1.00  0.00     0.027 C 
ATOM     24  C   UNL     1       4.334  43.764  51.215  1.00  0.00     0.007 C 
ATOM     25  C   UNL     1       6.183  42.908  49.718  1.00  0.00     0.007 C 
ATOM     26  C   UNL     1       3.947  42.326  51.551  1.00  0.00     0.000 C 
ATOM     27  C   UNL     1       5.783  41.472  50.047  1.00  0.00     0.000 C 
ATOM     28  C   UNL     1       4.306  41.368  50.419  1.00  0.00     0.000 C 
ENDBRANCH  22  23
ENDBRANCH  21  22
ENDBRANCH   8  21
TORSDOF 5
ENDMDL
MODEL 3
REMARK VINA RESULT:    -9.550      1.827      4.428
REMARK INTER + INTRA:         -12.993
REMARK INTER:                 -11.978
REMARK INTRA:                  -1.015
REMARK UNBOUND:                -0.652
REMARK SMILES Fc1ccc(Nc2nc3nc[nH]c3c(OCC3CCCCC3)[nH+]2)cc1
REMARK SMILES IDX 7 1 8 2 9 3 10 4 11 5 12 6 13 7 14 8 23 9 6 12 5 14 2 15
REMARK SMILES IDX 3 16 25 17 4 18 24 19 1 20 15 21 16 22 17 23 18 24 22 25
REMARK SMILES IDX 19 26 21 27 20 28
REMARK H PARENT 12 10 23 11 6 13
ROOT
ATOM      1  C   UNL     1       5.005  46.312  54.466  1.00  0.00     0.399 A 
ATOM      2  N   UNL     1       4.000  46.575  55.312  1.00  0.00    -0.048 NA
ATOM      3  C   UNL     1       2.970  45.714  55.225  1.00  0.00     0.264 A 
ATOM      4  N   UNL     1       1.845  45.742  55.988  1.00  0.00    -0.202 NA
ATOM      5  C   UNL     1       1.114  44.728  55.569  1.00  0.00     0.201 A 
ATOM      6  N   UNL     1       1.736  44.037  54.562  1.00  0.00    -0.336 N 
ATOM      7  C   UNL     1       2.926  44.672  54.313  1.00  0.00     0.180 A 
ATOM      8  C   UNL     1       3.966  44.493  53.427  1.00  0.00     0.284 A 
ATOM      9  N   UNL     1       4.992  45.328  53.564  1.00  0.00    -0.209 N 
ATOM     10  H   UNL     1       1.360  43.226  54.083  1.00  0.00     0.168 HD
ATOM     11  H   UNL     1       5.799  45.242  52.957  1.00  0.00     0.270 HD
ENDROOT
BRANCH   1  12
ATOM     12  N   UNL     1       6.105  47.174  54.473  1.00  0.00    -0.242 N 
ATOM     13  H   UNL     1       6.267  47.508  55.428  1.00  0.00     0.267 HD
BRANCH  12  14
ATOM     14  C   UNL     1       7.295  47.109  53.729  1.00  0.00     0.099 A 
ATOM     15  C   UNL     1       9.702  46.885  52.323  1.00  0.00     0.123 A 
ATOM     16  C   UNL     1       9.523  46.158  53.492  1.00  0.00     0.043 A 
ATOM     17  C   UNL     1       8.699  47.716  51.839  1.00  0.00     0.043 A 
ATOM     18  C   UNL     1       8.319  46.264  54.187  1.00  0.00     0.046 A 
ATOM     19  C   UNL     1       7.494  47.828  52.539  1.00  0.00     0.046 A 
ATOM     20  F   UNL     1      10.853  46.783  51.650  1.00  0.00    -0.207 F 
ENDBRANCH  12  14
ENDBRANCH   1  12
BRANCH   8  21
ATOM     21  O   UNL     1       4.001  43.460  52.529  1.00  0.00    -0.466 OA
BRANCH  21  22
ATOM     22  C   UNL     1       4.231  43.958  51.197  1.00  0.00     0.236 C 
BRANCH  22  23
ATOM     23  C   UNL     1       5.714  43.752  50.847  1.00  0.00     0.027 C 
ATOM     24  C   UNL     1       5.877  42.655  49.786  1.00  0.00     0.007 C 
ATOM     25  C   UNL     1       6.376  45.061  50.386  1.00  0.00     0.007 C 
ATOM     26  C   UNL     1       7.344  42.449  49.417  1.00  0.00     0.000 C 
ATOM     27  C   UNL     1       7.839  44.851  50.003  1.00  0.00     0.000 C 
ATOM     28  C   UNL     1       7.997  43.749  48.959  1.00  0.00     0.000 C 
ENDBRANCH  22  23
ENDBRANCH  21  22
ENDBRANCH   8  21
TORSDOF 5
ENDMDL
MODEL 4
REMARK VINA RESULT:    -9.206      2.813      6.305
REMARK INTER + INTRA:         -12.549
REMARK INTER:                 -11.932
REMARK INTRA:                  -0.617
REMARK UNBOUND:                -0.652
REMARK SMILES Fc1ccc(Nc2nc3nc[nH]c3c(OCC3CCCCC3)[nH+]2)cc1
REMARK SMILES IDX 7 1 8 2 9 3 10 4 11 5 12 6 13 7 14 8 23 9 6 12 5 14 2 15
REMARK SMILES IDX 3 16 25 17 4 18 24 19 1 20 15 21 16 22 17 23 18 24 22 25
REMARK SMILES IDX 19 26 21 27 20 28
REMARK H PARENT 12 10 23 11 6 13
ROOT
ATOM      1  C   UNL     1       5.226  44.946  51.673  1.00  0.00     0.399 A 
ATOM      2  N   UNL     1       4.242  45.287  52.515  1.00  0.00    -0.048 NA
ATOM      3  C   UNL     1       3.352  44.305  52.744  1.00  0.00     0.264 A 
ATOM      4  N   UNL     1       2.280  44.385  53.577  1.00  0.00    -0.202 NA
ATOM      5  C   UNL     1       1.689  43.209  53.498  1.00  0.00     0.201 A 
ATOM      6  N   UNL     1       2.352  42.365  52.645  1.00  0.00    -0.336 N 
ATOM      7  C   UNL     1       3.416  43.063  52.134  1.00  0.00     0.180 A 
ATOM      8  C   UNL     1       4.420  42.797  51.229  1.00  0.00     0.284 A 
ATOM      9  N   UNL     1       5.314  43.766  51.054  1.00  0.00    -0.209 N 
ATOM     10  H   UNL     1       2.077  41.414  52.423  1.00  0.00     0.168 HD
ATOM     11  H   UNL     1       6.089  43.631  50.416  1.00  0.00     0.270 HD
ENDROOT
BRANCH   1  12
ATOM     12  N   UNL     1       6.182  45.917  51.359  1.00  0.00    -0.242 N 
ATOM     13  H   UNL     1       5.720  46.711  50.905  1.00  0.00     0.267 HD
BRANCH  12  14
ATOM     14  C   UNL     1       7.323  46.313  52.078  1.00  0.00     0.099 A 
ATOM     15  C   UNL     1       9.522  47.105  53.613  1.00  0.00     0.123 A 
ATOM     16  C   UNL     1       8.254  47.120  54.177  1.00  0.00     0.043 A 
ATOM     17  C   UNL     1       9.714  46.695  52.299  1.00  0.00     0.043 A 
ATOM     18  C   UNL     1       7.159  46.717  53.413  1.00  0.00     0.046 A 
ATOM     19  C   UNL     1       8.616  46.296  51.531  1.00  0.00     0.046 A 
ATOM     20  F   UNL     1      10.575  47.487  54.343  1.00  0.00    -0.207 F 
ENDBRANCH  12  14
ENDBRANCH   1  12
BRANCH   8  21
ATOM     21  O   UNL     1       4.561  41.578  50.622  1.00  0.00    -0.466 OA
BRANCH  21  22
ATOM     22  C   UNL     1       5.744  41.558  49.801  1.00  0.00     0.236 C 
BRANCH  22  23
ATOM     23  C   UNL     1       5.368  41.012  48.413  1.00  0.00     0.027 C 
ATOM     24  C   UNL     1       3.886  40.618  48.364  1.00  0.00     0.007 C 
ATOM     25  C   UNL     1       5.703  42.017  47.298  1.00  0.00     0.007 C 
ATOM     26  C   UNL     1       3.493  40.088  46.988  1.00  0.00     0.000 C 
ATOM     27  C   UNL     1       5.297  41.492  45.923  1.00  0.00     0.000 C 
ATOM     28  C   UNL     1       3.826  41.087  45.884  1.00  0.00     0.000 C 
ENDBRANCH  22  23
ENDBRANCH  21  22
ENDBRANCH   8  21
TORSDOF 5
ENDMDL
MODEL 5
REMARK VINA RESULT:    -9.154      2.978      6.014
REMARK INTER + INTRA:         -12.481
REMARK INTER:                 -11.560
REMARK INTRA:                  -0.922
REMARK UNBOUND:                -0.652
REMARK SMILES Fc1ccc(Nc2nc3nc[nH]c3c(OCC3CCCCC3)[nH+]2)cc1
REMARK SMILES IDX 7 1 8 2 9 3 10 4 11 5 12 6 13 7 14 8 23 9 6 12 5 14 2 15
REMARK SMILES IDX 3 16 25 17 4 18 24 19 1 20 15 21 16 22 17 23 18 24 22 25
REMARK SMILES IDX 19 26 21 27 20 28
REMARK H PARENT 12 10 23 11 6 13
ROOT
ATOM      1  C   UNL     1       6.728  44.398  50.293  1.00  0.00     0.399 A 
ATOM      2  N   UNL     1       6.824  43.491  49.311  1.00  0.00    -0.048 NA
ATOM      3  C   UNL     1       5.897  42.519  49.369  1.00  0.00     0.264 A 
ATOM      4  N   UNL     1       5.760  41.499  48.481  1.00  0.00    -0.202 NA
ATOM      5  C   UNL     1       4.737  40.791  48.917  1.00  0.00     0.201 A 
ATOM      6  N   UNL     1       4.200  41.327  50.059  1.00  0.00    -0.336 N 
ATOM      7  C   UNL     1       4.950  42.431  50.376  1.00  0.00     0.180 A 
ATOM      8  C   UNL     1       4.943  43.362  51.392  1.00  0.00     0.284 A 
ATOM      9  N   UNL     1       5.839  44.339  51.288  1.00  0.00    -0.209 N 
ATOM     10  H   UNL     1       3.413  40.950  50.575  1.00  0.00     0.168 HD
ATOM     11  H   UNL     1       5.878  45.067  51.991  1.00  0.00     0.270 HD
ENDROOT
BRANCH   1  12
ATOM     12  N   UNL     1       7.670  45.430  50.323  1.00  0.00    -0.242 N 
ATOM     13  H   UNL     1       7.471  46.091  49.566  1.00  0.00     0.267 HD
BRANCH  12  14
ATOM     14  C   UNL     1       8.273  46.057  51.427  1.00  0.00     0.099 A 
ATOM     15  C   UNL     1       9.584  47.275  53.575  1.00  0.00     0.123 A 
ATOM     16  C   UNL     1      10.316  46.527  52.663  1.00  0.00     0.043 A 
ATOM     17  C   UNL     1       8.211  47.433  53.430  1.00  0.00     0.043 A 
ATOM     18  C   UNL     1       9.661  45.927  51.587  1.00  0.00     0.046 A 
ATOM     19  C   UNL     1       7.553  46.827  52.356  1.00  0.00     0.046 A 
ATOM     20  F   UNL     1      10.208  47.855  54.606  1.00  0.00    -0.207 F 
ENDBRANCH  12  14
ENDBRANCH   1  12
BRANCH   8  21
ATOM     21  O   UNL     1       4.009  43.353  52.394  1.00  0.00    -0.466 OA
BRANCH  21  22
ATOM     22  C   UNL     1       2.964  44.304  52.117  1.00  0.00     0.236 C 
BRANCH  22  23
ATOM     23  C   UNL     1       3.102  45.483  53.096  1.00  0.00     0.027 C 
ATOM     24  C   UNL     1       3.877  45.061  54.351  1.00  0.00     0.007 C 
ATOM     25  C   UNL     1       3.764  46.700  52.429  1.00  0.00     0.007 C 
ATOM     26  C   UNL     1       4.035  46.225  55.327  1.00  0.00     0.000 C 
ATOM     27  C   UNL     1       3.934  47.859  53.409  1.00  0.00     0.000 C 
ATOM     28  C   UNL     1       4.691  47.431  54.663  1.00  0.00     0.000 C 
ENDBRANCH  22  23
ENDBRANCH  21  22
ENDBRANCH   8  21
TORSDOF 5
ENDMDL
MODEL 6
REMARK VINA RESULT:    -9.131      1.535      2.207
REMARK INTER + INTRA:         -12.452
REMARK INTER:                 -11.823
REMARK INTRA:                  -0.629
REMARK UNBOUND:                -0.652
REMARK SMILES Fc1ccc(Nc2nc3nc[nH]c3c(OCC3CCCCC3)[nH+]2)cc1
REMARK SMILES IDX 7 1 8 2 9 3 10 4 11 5 12 6 13 7 14 8 23 9 6 12 5 14 2 15
REMARK SMILES IDX 3 16 25 17 4 18 24 19 1 20 15 21 16 22 17 23 18 24 22 25
REMARK SMILES IDX 19 26 21 27 20 28
REMARK H PARENT 12 10 23 11 6 13
ROOT
ATOM      1  C   UNL     1       3.589  42.718  52.317  1.00  0.00     0.399 A 
ATOM      2  N   UNL     1       2.311  42.724  52.719  1.00  0.00    -0.048 NA
ATOM      3  C   UNL     1       1.975  43.791  53.466  1.00  0.00     0.264 A 
ATOM      4  N   UNL     1       0.740  44.048  53.972  1.00  0.00    -0.202 NA
ATOM      5  C   UNL     1       0.863  45.184  54.631  1.00  0.00     0.201 A 
ATOM      6  N   UNL     1       2.140  45.676  54.560  1.00  0.00    -0.336 N 
ATOM      7  C   UNL     1       2.877  44.779  53.829  1.00  0.00     0.180 A 
ATOM      8  C   UNL     1       4.193  44.682  53.434  1.00  0.00     0.284 A 
ATOM      9  N   UNL     1       4.490  43.643  52.659  1.00  0.00    -0.209 N 
ATOM     10  H   UNL     1       2.469  46.531  54.995  1.00  0.00     0.168 HD
ATOM     11  H   UNL     1       5.435  43.520  52.317  1.00  0.00     0.270 HD
ENDROOT
BRANCH   1  12
ATOM     12  N   UNL     1       4.029  41.631  51.557  1.00  0.00    -0.242 N 
ATOM     13  H   UNL     1       3.435  40.819  51.753  1.00  0.00     0.267 HD
BRANCH  12  14
ATOM     14  C   UNL     1       4.542  41.605  50.249  1.00  0.00     0.099 A 
ATOM     15  C   UNL     1       5.456  41.495  47.608  1.00  0.00     0.123 A 
ATOM     16  C   UNL     1       4.296  40.818  47.959  1.00  0.00     0.043 A 
ATOM     17  C   UNL     1       6.164  42.232  48.551  1.00  0.00     0.043 A 
ATOM     18  C   UNL     1       3.837  40.881  49.275  1.00  0.00     0.046 A 
ATOM     19  C   UNL     1       5.708  42.291  49.870  1.00  0.00     0.046 A 
ATOM     20  F   UNL     1       5.899  41.441  46.348  1.00  0.00    -0.207 F 
ENDBRANCH  12  14
ENDBRANCH   1  12
BRANCH   8  21
ATOM     21  O   UNL     1       5.123  45.644  53.726  1.00  0.00    -0.466 OA
BRANCH  21  22
ATOM     22  C   UNL     1       5.399  46.448  52.564  1.00  0.00     0.236 C 
BRANCH  22  23
ATOM     23  C   UNL     1       6.803  47.057  52.712  1.00  0.00     0.027 C 
ATOM     24  C   UNL     1       7.357  46.816  54.123  1.00  0.00     0.007 C 
ATOM     25  C   UNL     1       7.771  46.519  51.646  1.00  0.00     0.007 C 
ATOM     26  C   UNL     1       8.757  47.403  54.281  1.00  0.00     0.000 C 
ATOM     27  C   UNL     1       9.175  47.096  51.813  1.00  0.00     0.000 C 
ATOM     28  C   UNL     1       9.715  46.867  53.222  1.00  0.00     0.000 C 
ENDBRANCH  22  23
ENDBRANCH  21  22
ENDBRANCH   8  21
TORSDOF 5
ENDMDL
MODEL 7
REMARK VINA RESULT:    -9.076      2.551      6.623
REMARK INTER + INTRA:         -12.381
REMARK INTER:                 -11.719
REMARK INTRA:                  -0.662
REMARK UNBOUND:                -0.652
REMARK SMILES Fc1ccc(Nc2nc3nc[nH]c3c(OCC3CCCCC3)[nH+]2)cc1
REMARK SMILES IDX 7 1 8 2 9 3 10 4 11 5 12 6 13 7 14 8 23 9 6 12 5 14 2 15
REMARK SMILES IDX 3 16 25 17 4 18 24 19 1 20 15 21 16 22 17 23 18 24 22 25
REMARK SMILES IDX 19 26 21 27 20 28
REMARK H PARENT 12 10 23 11 6 13
ROOT
ATOM      1  C   UNL     1       5.634  45.154  51.531  1.00  0.00     0.399 A 
ATOM      2  N   UNL     1       6.012  44.156  50.721  1.00  0.00    -0.048 NA
ATOM      3  C   UNL     1       5.201  43.084  50.756  1.00  0.00     0.264 A 
ATOM      4  N   UNL     1       5.345  41.955  50.013  1.00  0.00    -0.202 NA
ATOM      5  C   UNL     1       4.340  41.177  50.362  1.00  0.00     0.201 A 
ATOM      6  N   UNL     1       3.542  41.772  51.304  1.00  0.00    -0.336 N 
ATOM      7  C   UNL     1       4.094  42.996  51.585  1.00  0.00     0.180 A 
ATOM      8  C   UNL     1       3.795  44.034  52.440  1.00  0.00     0.284 A 
ATOM      9  N   UNL     1       4.584  45.100  52.354  1.00  0.00    -0.209 N 
ATOM     10  H   UNL     1       2.716  41.359  51.724  1.00  0.00     0.168 HD
ATOM     11  H   UNL     1       4.411  45.907  52.941  1.00  0.00     0.270 HD
ENDROOT
BRANCH   1  12
ATOM     12  N   UNL     1       6.438  46.298  51.575  1.00  0.00    -0.242 N 
ATOM     13  H   UNL     1       5.860  47.124  51.393  1.00  0.00     0.267 HD
BRANCH  12  14
ATOM     14  C   UNL     1       7.528  46.591  52.412  1.00  0.00     0.099 A 
ATOM     15  C   UNL     1       9.774  47.161  53.978  1.00  0.00     0.123 A 
ATOM     16  C   UNL     1       9.944  46.716  52.674  1.00  0.00     0.043 A 
ATOM     17  C   UNL     1       8.502  47.333  54.513  1.00  0.00     0.043 A 
ATOM     18  C   UNL     1       8.823  46.441  51.892  1.00  0.00     0.046 A 
ATOM     19  C   UNL     1       7.378  47.051  53.731  1.00  0.00     0.046 A 
ATOM     20  F   UNL     1      10.845  47.430  54.731  1.00  0.00    -0.207 F 
ENDBRANCH  12  14
ENDBRANCH   1  12
BRANCH   8  21
ATOM     21  O   UNL     1       2.694  44.024  53.255  1.00  0.00    -0.466 OA
BRANCH  21  22
ATOM     22  C   UNL     1       2.830  45.010  54.296  1.00  0.00     0.236 C 
BRANCH  22  23
ATOM     23  C   UNL     1       1.431  45.336  54.846  1.00  0.00     0.027 C 
ATOM     24  C   UNL     1       0.406  44.290  54.387  1.00  0.00     0.007 C 
ATOM     25  C   UNL     1       1.438  45.457  56.379  1.00  0.00     0.007 C 
ATOM     26  C   UNL     1      -0.985  44.593  54.937  1.00  0.00     0.000 C 
ATOM     27  C   UNL     1       0.043  45.746  56.930  1.00  0.00     0.000 C 
ATOM     28  C   UNL     1      -0.975  44.712  56.458  1.00  0.00     0.000 C 
ENDBRANCH  22  23
ENDBRANCH  21  22
ENDBRANCH   8  21
TORSDOF 5
ENDMDL
MODEL 8
REMARK VINA RESULT:    -9.072      3.119      5.637
REMARK INTER + INTRA:         -12.375
REMARK INTER:                 -11.877
REMARK INTRA:                  -0.498
REMARK UNBOUND:                -0.652
REMARK SMILES Fc1ccc(Nc2nc3nc[nH]c3c(OCC3CCCCC3)[nH+]2)cc1
REMARK SMILES IDX 7 1 8 2 9 3 10 4 11 5 12 6 13 7 14 8 23 9 6 12 5 14 2 15
REMARK SMILES IDX 3 16 25 17 4 18 24 19 1 20 15 21 16 22 17 23 18 24 22 25
REMARK SMILES IDX 19 26 21 27 20 28
REMARK H PARENT 12 10 23 11 6 13
ROOT
ATOM      1  C   UNL     1       3.497  42.763  52.262  1.00  0.00     0.399 A 
ATOM      2  N   UNL     1       4.038  41.849  51.447  1.00  0.00    -0.048 NA
ATOM      3  C   UNL     1       5.041  42.319  50.684  1.00  0.00     0.264 A 
ATOM      4  N   UNL     1       5.772  41.591  49.798  1.00  0.00    -0.202 NA
ATOM      5  C   UNL     1       6.636  42.440  49.278  1.00  0.00     0.201 A 
ATOM      6  N   UNL     1       6.494  43.696  49.808  1.00  0.00    -0.336 N 
ATOM      7  C   UNL     1       5.455  43.640  50.703  1.00  0.00     0.180 A 
ATOM      8  C   UNL     1       4.816  44.546  51.520  1.00  0.00     0.284 A 
ATOM      9  N   UNL     1       3.859  44.049  52.298  1.00  0.00    -0.209 N 
ATOM     10  H   UNL     1       7.045  44.510  49.556  1.00  0.00     0.168 HD
ATOM     11  H   UNL     1       3.359  44.655  52.936  1.00  0.00     0.270 HD
ENDROOT
BRANCH   1  12
ATOM     12  N   UNL     1       2.430  42.365  53.072  1.00  0.00    -0.242 N 
ATOM     13  H   UNL     1       2.789  41.810  53.855  1.00  0.00     0.267 HD
BRANCH  12  14
ATOM     14  C   UNL     1       1.259  43.063  53.414  1.00  0.00     0.099 A 
ATOM     15  C   UNL     1      -0.999  44.535  54.159  1.00  0.00     0.123 A 
ATOM     16  C   UNL     1       0.234  44.846  54.716  1.00  0.00     0.043 A 
ATOM     17  C   UNL     1      -1.124  43.508  53.231  1.00  0.00     0.043 A 
ATOM     18  C   UNL     1       1.361  44.116  54.337  1.00  0.00     0.046 A 
ATOM     19  C   UNL     1       0.004  42.773  52.855  1.00  0.00     0.046 A 
ATOM     20  F   UNL     1      -2.081  45.234  54.516  1.00  0.00    -0.207 F 
ENDBRANCH  12  14
ENDBRANCH   1  12
BRANCH   8  21
ATOM     21  O   UNL     1       5.202  45.857  51.614  1.00  0.00    -0.466 OA
BRANCH  21  22
ATOM     22  C   UNL     1       5.599  46.170  52.962  1.00  0.00     0.236 C 
BRANCH  22  23
ATOM     23  C   UNL     1       6.939  46.922  52.916  1.00  0.00     0.027 C 
ATOM     24  C   UNL     1       7.680  46.801  54.254  1.00  0.00     0.007 C 
ATOM     25  C   UNL     1       7.824  46.435  51.757  1.00  0.00     0.007 C 
ATOM     26  C   UNL     1       9.019  47.531  54.220  1.00  0.00     0.000 C 
ATOM     27  C   UNL     1       9.170  47.156  51.731  1.00  0.00     0.000 C 
ATOM     28  C   UNL     1       9.895  47.046  53.069  1.00  0.00     0.000 C 
ENDBRANCH  22  23
ENDBRANCH  21  22
ENDBRANCH   8  21
TORSDOF 5
ENDMDL
MODEL 9
REMARK VINA RESULT:    -9.035      2.820      5.303
REMARK INTER + INTRA:         -12.328
REMARK INTER:                 -11.412
REMARK INTRA:                  -0.916
REMARK UNBOUND:                -0.652
REMARK SMILES Fc1ccc(Nc2nc3nc[nH]c3c(OCC3CCCCC3)[nH+]2)cc1
REMARK SMILES IDX 7 1 8 2 9 3 10 4 11 5 12 6 13 7 14 8 23 9 6 12 5 14 2 15
REMARK SMILES IDX 3 16 25 17 4 18 24 19 1 20 15 21 16 22 17 23 18 24 22 25
REMARK SMILES IDX 19 26 21 27 20 28
REMARK H PARENT 12 10 23 11 6 13
ROOT
ATOM      1  C   UNL     1       7.497  45.672  51.248  1.00  0.00     0.399 A 
ATOM      2  N   UNL     1       8.779  45.713  51.635  1.00  0.00    -0.048 NA
ATOM      3  C   UNL     1       9.004  46.494  52.707  1.00  0.00     0.264 A 
ATOM      4  N   UNL     1      10.206  46.684  53.312  1.00  0.00    -0.202 NA
ATOM      5  C   UNL     1       9.968  47.514  54.308  1.00  0.00     0.201 A 
ATOM      6  N   UNL     1       8.644  47.863  54.372  1.00  0.00    -0.336 N 
ATOM      7  C   UNL     1       8.010  47.229  53.333  1.00  0.00     0.180 A 
ATOM      8  C   UNL     1       6.722  47.192  52.847  1.00  0.00     0.284 A 
ATOM      9  N   UNL     1       6.515  46.377  51.816  1.00  0.00    -0.209 N 
ATOM     10  H   UNL     1       8.231  48.493  55.051  1.00  0.00     0.168 HD
ATOM     11  H   UNL     1       5.588  46.287  51.420  1.00  0.00     0.270 HD
ENDROOT
BRANCH   1  12
ATOM     12  N   UNL     1       7.179  44.903  50.125  1.00  0.00    -0.242 N 
ATOM     13  H   UNL     1       7.989  44.870  49.498  1.00  0.00     0.267 HD
BRANCH  12  14
ATOM     14  C   UNL     1       6.393  43.742  50.031  1.00  0.00     0.099 A 
ATOM     15  C   UNL     1       4.746  41.484  49.925  1.00  0.00     0.123 A 
ATOM     16  C   UNL     1       4.477  42.484  50.850  1.00  0.00     0.043 A 
ATOM     17  C   UNL     1       5.818  41.595  49.047  1.00  0.00     0.043 A 
ATOM     18  C   UNL     1       5.294  43.614  50.895  1.00  0.00     0.046 A 
ATOM     19  C   UNL     1       6.641  42.723  49.096  1.00  0.00     0.046 A 
ATOM     20  F   UNL     1       3.963  40.402  49.874  1.00  0.00    -0.207 F 
ENDBRANCH  12  14
ENDBRANCH   1  12
BRANCH   8  21
ATOM     21  O   UNL     1       5.688  47.863  53.444  1.00  0.00    -0.466 OA
BRANCH  21  22
ATOM     22  C   UNL     1       5.188  47.119  54.570  1.00  0.00     0.236 C 
BRANCH  22  23
ATOM     23  C   UNL     1       3.841  46.487  54.180  1.00  0.00     0.027 C 
ATOM     24  C   UNL     1       3.315  47.089  52.870  1.00  0.00     0.007 C 
ATOM     25  C   UNL     1       3.940  44.957  54.077  1.00  0.00     0.007 C 
ATOM     26  C   UNL     1       1.984  46.462  52.462  1.00  0.00     0.000 C 
ATOM     27  C   UNL     1       2.613  44.331  53.655  1.00  0.00     0.000 C 
ATOM     28  C   UNL     1       2.086  44.943  52.360  1.00  0.00     0.000 C 
ENDBRANCH  22  23
ENDBRANCH  21  22
ENDBRANCH   8  21
TORSDOF 5
ENDMDL
MODEL 10
REMARK VINA RESULT:    -9.001      2.390      3.468
REMARK INTER + INTRA:         -12.284
REMARK INTER:                 -11.689
REMARK INTRA:                  -0.595
REMARK UNBOUND:                -0.652
REMARK SMILES Fc1ccc(Nc2nc3nc[nH]c3c(OCC3CCCCC3)[nH+]2)cc1
REMARK SMILES IDX 7 1 8 2 9 3 10 4 11 5 12 6 13 7 14 8 23 9 6 12 5 14 2 15
REMARK SMILES IDX 3 16 25 17 4 18 24 19 1 20 15 21 16 22 17 23 18 24 22 25
REMARK SMILES IDX 19 26 21 27 20 28
REMARK H PARENT 12 10 23 11 6 13
ROOT
ATOM      1  C   UNL     1       4.700  42.252  50.781  1.00  0.00     0.399 A 
ATOM      2  N   UNL     1       3.464  41.929  51.184  1.00  0.00    -0.048 NA
ATOM      3  C   UNL     1       2.964  42.747  52.128  1.00  0.00     0.264 A 
ATOM      4  N   UNL     1       1.726  42.655  52.682  1.00  0.00    -0.202 NA
ATOM      5  C   UNL     1       1.658  43.645  53.550  1.00  0.00     0.201 A 
ATOM      6  N   UNL     1       2.813  44.383  53.569  1.00  0.00    -0.336 N 
ATOM      7  C   UNL     1       3.674  43.805  52.671  1.00  0.00     0.180 A 
ATOM      8  C   UNL     1       4.966  44.046  52.257  1.00  0.00     0.284 A 
ATOM      9  N   UNL     1       5.422  43.253  51.291  1.00  0.00    -0.209 N 
ATOM     10  H   UNL     1       2.991  45.187  54.161  1.00  0.00     0.168 HD
ATOM     11  H   UNL     1       6.357  43.386  50.927  1.00  0.00     0.270 HD
ENDROOT
BRANCH   1  12
ATOM     12  N   UNL     1       5.306  41.438  49.820  1.00  0.00    -0.242 N 
ATOM     13  H   UNL     1       5.585  40.553  50.254  1.00  0.00     0.267 HD
BRANCH  12  14
ATOM     14  C   UNL     1       4.996  41.282  48.458  1.00  0.00     0.099 A 
ATOM     15  C   UNL     1       4.271  40.915  45.782  1.00  0.00     0.123 A 
ATOM     16  C   UNL     1       3.514  40.322  46.783  1.00  0.00     0.043 A 
ATOM     17  C   UNL     1       5.380  41.693  46.093  1.00  0.00     0.043 A 
ATOM     18  C   UNL     1       3.871  40.513  48.118  1.00  0.00     0.046 A 
ATOM     19  C   UNL     1       5.742  41.881  47.430  1.00  0.00     0.046 A 
ATOM     20  F   UNL     1       3.930  40.738  44.502  1.00  0.00    -0.207 F 
ENDBRANCH  12  14
ENDBRANCH   1  12
BRANCH   8  21
ATOM     21  O   UNL     1       5.707  45.098  52.726  1.00  0.00    -0.466 OA
BRANCH  21  22
ATOM     22  C   UNL     1       6.187  45.903  51.633  1.00  0.00     0.236 C 
BRANCH  22  23
ATOM     23  C   UNL     1       7.442  46.661  52.098  1.00  0.00     0.027 C 
ATOM     24  C   UNL     1       7.489  46.753  53.629  1.00  0.00     0.007 C 
ATOM     25  C   UNL     1       8.728  46.020  51.550  1.00  0.00     0.007 C 
ATOM     26  C   UNL     1       8.736  47.491  54.106  1.00  0.00     0.000 C 
ATOM     27  C   UNL     1       9.976  46.750  52.039  1.00  0.00     0.000 C 
ATOM     28  C   UNL     1      10.010  46.853  53.562  1.00  0.00     0.000 C 
ENDBRANCH  22  23
ENDBRANCH  21  22
ENDBRANCH   8  21
TORSDOF 5
ENDMDL
