MODEL 1
REMARK VINA RESULT:    -8.061      0.000      0.000
REMARK INTER + INTRA:         -11.626
REMARK INTER:                 -10.889
REMARK INTRA:                  -0.737
REMARK UNBOUND:                -0.737
REMARK SMILES CCCCc1ccc(Nc2nc(OC)c3[nH]cnc3n2)cc1
REMARK SMILES IDX 5 1 6 2 7 3 8 4 21 5 22 6 4 7 3 8 2 9 1 10 9 11 10 13 11 14
REMARK SMILES IDX 20 15 12 16 19 17 15 18 18 19 16 20 17 21 13 23 14 24
REMARK H PARENT 9 12 16 22
ROOT
ATOM      1  C   UNL     1       7.461  46.745  51.696  1.00  0.00    -0.048 A 
ATOM      2  C   UNL     1       7.282  45.586  50.937  1.00  0.00     0.006 A 
ATOM      3  C   UNL     1       6.095  44.847  51.027  1.00  0.00     0.026 A 
ATOM      4  C   UNL     1       5.057  45.240  51.875  1.00  0.00     0.041 A 
ATOM      5  C   UNL     1       5.249  46.406  52.634  1.00  0.00     0.026 A 
ATOM      6  C   UNL     1       6.431  47.150  52.548  1.00  0.00     0.006 A 
ENDROOT
BRANCH   1   7
ATOM      7  C   UNL     1       8.736  47.545  51.592  1.00  0.00     0.035 C 
BRANCH   7   8
ATOM      8  C   UNL     1       9.979  46.793  52.081  1.00  0.00     0.004 C 
BRANCH   8   9
ATOM      9  C   UNL     1       9.875  46.353  53.544  1.00  0.00    -0.003 C 
ATOM     10  C   UNL     1       9.689  47.544  54.470  1.00  0.00     0.004 C 
ENDBRANCH   8   9
ENDBRANCH   7   8
ENDBRANCH   1   7
BRANCH   4  11
ATOM     11  N   UNL     1       3.849  44.548  52.011  1.00  0.00    -0.324 N 
ATOM     12  H   UNL     1       3.744  43.705  51.465  1.00  0.00     0.170 HD
BRANCH  11  13
ATOM     13  C   UNL     1       2.691  44.750  52.762  1.00  0.00     0.232 A 
ATOM     14  N   UNL     1       1.613  45.081  52.013  1.00  0.00    -0.175 NA
ATOM     15  N   UNL     1       2.693  44.617  54.092  1.00  0.00    -0.191 NA
ATOM     16  C   UNL     1       0.430  45.303  52.616  1.00  0.00     0.244 A 
ATOM     17  C   UNL     1       1.508  44.841  54.678  1.00  0.00     0.186 A 
ATOM     18  C   UNL     1       0.372  45.181  53.979  1.00  0.00     0.148 A 
ATOM     19  N   UNL     1       1.249  44.770  56.020  1.00  0.00    -0.217 NA
ATOM     20  N   UNL     1      -0.603  45.319  54.922  1.00  0.00    -0.339 N 
ATOM     21  C   UNL     1      -0.029  45.063  56.138  1.00  0.00     0.199 A 
ATOM     22  H   UNL     1      -1.568  45.567  54.751  1.00  0.00     0.168 HD
BRANCH  16  23
ATOM     23  O   UNL     1      -0.697  45.641  51.898  1.00  0.00    -0.479 OA
ATOM     24  C   UNL     1      -1.445  44.503  51.480  1.00  0.00     0.280 C 
ENDBRANCH  16  23
ENDBRANCH  11  13
ENDBRANCH   4  11
TORSDOF 6
ENDMDL
MODEL 2
REMARK VINA RESULT:    -8.040      1.632      2.733
REMARK INTER + INTRA:         -11.597
REMARK INTER:                 -10.919
REMARK INTRA:                  -0.677
REMARK UNBOUND:                -0.737
REMARK SMILES CCCCc1ccc(Nc2nc(OC)c3[nH]cnc3n2)cc1
REMARK SMILES IDX 5 1 6 2 7 3 8 4 21 5 22 6 4 7 3 8 2 9 1 10 9 11 10 13 11 14
REMARK SMILES IDX 20 15 12 16 19 17 15 18 18 19 16 20 17 21 13 23 14 24
REMARK H PARENT 9 12 16 22
ROOT
ATOM      1  C   UNL     1       6.840  46.282  51.673  1.00  0.00    -0.048 A 
ATOM      2  C   UNL     1       6.382  47.063  52.738  1.00  0.00     0.006 A 
ATOM      3  C   UNL     1       5.010  47.250  52.950  1.00  0.00     0.026 A 
ATOM      4  C   UNL     1       4.058  46.668  52.109  1.00  0.00     0.041 A 
ATOM      5  C   UNL     1       4.531  45.888  51.041  1.00  0.00     0.026 A 
ATOM      6  C   UNL     1       5.899  45.695  50.823  1.00  0.00     0.006 A 
ENDROOT
BRANCH   1   7
ATOM      7  C   UNL     1       8.317  46.075  51.450  1.00  0.00     0.035 C 
BRANCH   7   8
ATOM      8  C   UNL     1       9.192  47.198  52.018  1.00  0.00     0.004 C 
BRANCH   8   9
ATOM      9  C   UNL     1      10.010  46.762  53.237  1.00  0.00    -0.003 C 
ATOM     10  C   UNL     1       9.625  47.556  54.475  1.00  0.00     0.004 C 
ENDBRANCH   8   9
ENDBRANCH   7   8
ENDBRANCH   1   7
BRANCH   4  11
ATOM     11  N   UNL     1       2.676  46.817  52.266  1.00  0.00    -0.324 N 
ATOM     12  H   UNL     1       2.260  47.646  51.868  1.00  0.00     0.170 HD
BRANCH  11  13
ATOM     13  C   UNL     1       1.678  46.053  52.872  1.00  0.00     0.232 A 
ATOM     14  N   UNL     1       1.935  45.760  54.168  1.00  0.00    -0.175 NA
ATOM     15  N   UNL     1       0.589  45.672  52.197  1.00  0.00    -0.191 NA
ATOM     16  C   UNL     1       1.048  45.027  54.869  1.00  0.00     0.244 A 
ATOM     17  C   UNL     1      -0.283  44.944  52.908  1.00  0.00     0.186 A 
ATOM     18  C   UNL     1      -0.087  44.608  54.228  1.00  0.00     0.148 A 
ATOM     19  N   UNL     1      -1.469  44.435  52.449  1.00  0.00    -0.217 NA
ATOM     20  N   UNL     1      -1.183  43.877  54.580  1.00  0.00    -0.339 N 
ATOM     21  C   UNL     1      -1.988  43.798  53.476  1.00  0.00     0.199 A 
ATOM     22  H   UNL     1      -1.362  43.469  55.488  1.00  0.00     0.168 HD
BRANCH  16  23
ATOM     23  O   UNL     1       1.262  44.702  56.191  1.00  0.00    -0.479 OA
ATOM     24  C   UNL     1       0.631  45.610  57.089  1.00  0.00     0.280 C 
ENDBRANCH  16  23
ENDBRANCH  11  13
ENDBRANCH   4  11
TORSDOF 6
ENDMDL
MODEL 3
REMARK VINA RESULT:    -8.032      1.838      2.510
REMARK INTER + INTRA:         -11.587
REMARK INTER:                 -10.833
REMARK INTRA:                  -0.753
REMARK UNBOUND:                -0.737
REMARK SMILES CCCCc1ccc(Nc2nc(OC)c3[nH]cnc3n2)cc1
REMARK SMILES IDX 5 1 6 2 7 3 8 4 21 5 22 6 4 7 3 8 2 9 1 10 9 11 10 13 11 14
REMARK SMILES IDX 20 15 12 16 19 17 15 18 18 19 16 20 17 21 13 23 14 24
REMARK H PARENT 9 12 16 22
ROOT
ATOM      1  C   UNL     1       6.534  46.395  52.968  1.00  0.00    -0.048 A 
ATOM      2  C   UNL     1       6.508  45.283  53.814  1.00  0.00     0.006 A 
ATOM      3  C   UNL     1       5.496  45.135  54.771  1.00  0.00     0.026 A 
ATOM      4  C   UNL     1       4.485  46.090  54.914  1.00  0.00     0.041 A 
ATOM      5  C   UNL     1       4.524  47.204  54.060  1.00  0.00     0.026 A 
ATOM      6  C   UNL     1       5.531  47.358  53.100  1.00  0.00     0.006 A 
ENDROOT
BRANCH   1   7
ATOM      7  C   UNL     1       7.620  46.550  51.933  1.00  0.00     0.035 C 
BRANCH   7   8
ATOM      8  C   UNL     1       8.722  47.537  52.333  1.00  0.00     0.004 C 
BRANCH   8   9
ATOM      9  C   UNL     1       9.887  46.869  53.068  1.00  0.00    -0.003 C 
ATOM     10  C   UNL     1       9.915  47.262  54.536  1.00  0.00     0.004 C 
ENDBRANCH   8   9
ENDBRANCH   7   8
ENDBRANCH   1   7
BRANCH   4  11
ATOM     11  N   UNL     1       3.449  46.002  55.849  1.00  0.00    -0.324 N 
ATOM     12  H   UNL     1       3.640  46.355  56.775  1.00  0.00     0.170 HD
BRANCH  11  13
ATOM     13  C   UNL     1       2.140  45.518  55.808  1.00  0.00     0.232 A 
ATOM     14  N   UNL     1       1.839  44.873  54.658  1.00  0.00    -0.175 NA
ATOM     15  N   UNL     1       1.302  45.698  56.833  1.00  0.00    -0.191 NA
ATOM     16  C   UNL     1       0.606  44.356  54.492  1.00  0.00     0.244 A 
ATOM     17  C   UNL     1       0.079  45.179  56.653  1.00  0.00     0.186 A 
ATOM     18  C   UNL     1      -0.297  44.511  55.510  1.00  0.00     0.148 A 
ATOM     19  N   UNL     1      -0.956  45.229  57.548  1.00  0.00    -0.217 NA
ATOM     20  N   UNL     1      -1.594  44.145  55.717  1.00  0.00    -0.339 N 
ATOM     21  C   UNL     1      -1.950  44.600  56.958  1.00  0.00     0.199 A 
ATOM     22  H   UNL     1      -2.181  43.635  55.070  1.00  0.00     0.168 HD
BRANCH  16  23
ATOM     23  O   UNL     1       0.249  43.689  53.340  1.00  0.00    -0.479 OA
ATOM     24  C   UNL     1       0.434  42.280  53.440  1.00  0.00     0.280 C 
ENDBRANCH  16  23
ENDBRANCH  11  13
ENDBRANCH   4  11
TORSDOF 6
ENDMDL
MODEL 4
REMARK VINA RESULT:    -8.001      1.187      1.332
REMARK INTER + INTRA:         -11.544
REMARK INTER:                 -10.933
REMARK INTRA:                  -0.611
REMARK UNBOUND:                -0.737
REMARK SMILES CCCCc1ccc(Nc2nc(OC)c3[nH]cnc3n2)cc1
REMARK SMILES IDX 5 1 6 2 7 3 8 4 21 5 22 6 4 7 3 8 2 9 1 10 9 11 10 13 11 14
REMARK SMILES IDX 20 15 12 16 19 17 15 18 18 19 16 20 17 21 13 23 14 24
REMARK H PARENT 9 12 16 22
ROOT
ATOM      1  C   UNL     1       6.879  45.784  51.756  1.00  0.00    -0.048 A 
ATOM      2  C   UNL     1       5.931  45.199  50.912  1.00  0.00     0.006 A 
ATOM      3  C   UNL     1       4.809  44.547  51.438  1.00  0.00     0.026 A 
ATOM      4  C   UNL     1       4.602  44.456  52.817  1.00  0.00     0.041 A 
ATOM      5  C   UNL     1       5.562  45.045  53.655  1.00  0.00     0.026 A 
ATOM      6  C   UNL     1       6.685  45.700  53.137  1.00  0.00     0.006 A 
ENDROOT
BRANCH   1   7
ATOM      7  C   UNL     1       8.083  46.493  51.188  1.00  0.00     0.035 C 
BRANCH   7   8
ATOM      8  C   UNL     1       8.744  47.470  52.166  1.00  0.00     0.004 C 
BRANCH   8   9
ATOM      9  C   UNL     1       9.953  46.869  52.888  1.00  0.00    -0.003 C 
ATOM     10  C   UNL     1       9.924  47.186  54.375  1.00  0.00     0.004 C 
ENDBRANCH   8   9
ENDBRANCH   7   8
ENDBRANCH   1   7
BRANCH   4  11
ATOM     11  N   UNL     1       3.504  43.819  53.405  1.00  0.00    -0.324 N 
ATOM     12  H   UNL     1       3.519  42.810  53.420  1.00  0.00     0.170 HD
BRANCH  11  13
ATOM     13  C   UNL     1       2.330  44.265  54.012  1.00  0.00     0.232 A 
ATOM     14  N   UNL     1       1.224  44.067  53.258  1.00  0.00    -0.175 NA
ATOM     15  N   UNL     1       2.345  44.827  55.225  1.00  0.00    -0.191 NA
ATOM     16  C   UNL     1       0.023  44.454  53.729  1.00  0.00     0.244 A 
ATOM     17  C   UNL     1       1.143  45.206  55.680  1.00  0.00     0.186 A 
ATOM     18  C   UNL     1      -0.023  45.036  54.967  1.00  0.00     0.148 A 
ATOM     19  N   UNL     1       0.890  45.803  56.887  1.00  0.00    -0.217 NA
ATOM     20  N   UNL     1      -1.008  45.543  55.763  1.00  0.00    -0.339 N 
ATOM     21  C   UNL     1      -0.411  45.994  56.909  1.00  0.00     0.199 A 
ATOM     22  H   UNL     1      -1.995  45.578  55.542  1.00  0.00     0.168 HD
BRANCH  16  23
ATOM     23  O   UNL     1      -1.133  44.274  53.000  1.00  0.00    -0.479 OA
ATOM     24  C   UNL     1      -1.378  45.339  52.086  1.00  0.00     0.280 C 
ENDBRANCH  16  23
ENDBRANCH  11  13
ENDBRANCH   4  11
TORSDOF 6
ENDMDL
MODEL 5
REMARK VINA RESULT:    -7.875      2.110      3.149
REMARK INTER + INTRA:         -11.374
REMARK INTER:                 -10.631
REMARK INTRA:                  -0.743
REMARK UNBOUND:                -0.737
REMARK SMILES CCCCc1ccc(Nc2nc(OC)c3[nH]cnc3n2)cc1
REMARK SMILES IDX 5 1 6 2 7 3 8 4 21 5 22 6 4 7 3 8 2 9 1 10 9 11 10 13 11 14
REMARK SMILES IDX 20 15 12 16 19 17 15 18 18 19 16 20 17 21 13 23 14 24
REMARK H PARENT 9 12 16 22
ROOT
ATOM      1  C   UNL     1       6.491  46.364  52.984  1.00  0.00    -0.048 A 
ATOM      2  C   UNL     1       6.525  45.212  53.775  1.00  0.00     0.006 A 
ATOM      3  C   UNL     1       5.504  44.946  54.697  1.00  0.00     0.026 A 
ATOM      4  C   UNL     1       4.424  45.818  54.857  1.00  0.00     0.041 A 
ATOM      5  C   UNL     1       4.402  46.972  54.059  1.00  0.00     0.026 A 
ATOM      6  C   UNL     1       5.418  47.245  53.135  1.00  0.00     0.006 A 
ENDROOT
BRANCH   1   7
ATOM      7  C   UNL     1       7.587  46.646  51.987  1.00  0.00     0.035 C 
BRANCH   7   8
ATOM      8  C   UNL     1       8.616  47.672  52.472  1.00  0.00     0.004 C 
BRANCH   8   9
ATOM      9  C   UNL     1       9.875  47.027  53.058  1.00  0.00    -0.003 C 
ATOM     10  C   UNL     1       9.951  47.227  54.563  1.00  0.00     0.004 C 
ENDBRANCH   8   9
ENDBRANCH   7   8
ENDBRANCH   1   7
BRANCH   4  11
ATOM     11  N   UNL     1       3.375  45.610  55.759  1.00  0.00    -0.324 N 
ATOM     12  H   UNL     1       3.590  45.716  56.739  1.00  0.00     0.170 HD
BRANCH  11  13
ATOM     13  C   UNL     1       2.027  45.275  55.623  1.00  0.00     0.232 A 
ATOM     14  N   UNL     1       1.265  45.671  56.668  1.00  0.00    -0.175 NA
ATOM     15  N   UNL     1       1.579  44.624  54.545  1.00  0.00    -0.191 NA
ATOM     16  C   UNL     1      -0.057  45.408  56.662  1.00  0.00     0.244 A 
ATOM     17  C   UNL     1       0.263  44.371  54.553  1.00  0.00     0.186 A 
ATOM     18  C   UNL     1      -0.572  44.744  55.582  1.00  0.00     0.148 A 
ATOM     19  N   UNL     1      -0.437  43.721  53.571  1.00  0.00    -0.217 NA
ATOM     20  N   UNL     1      -1.812  44.309  55.215  1.00  0.00    -0.339 N 
ATOM     21  C   UNL     1      -1.682  43.698  53.997  1.00  0.00     0.199 A 
ATOM     22  H   UNL     1      -2.665  44.419  55.747  1.00  0.00     0.168 HD
BRANCH  16  23
ATOM     23  O   UNL     1      -0.876  45.791  57.701  1.00  0.00    -0.479 OA
ATOM     24  C   UNL     1      -1.016  47.205  57.799  1.00  0.00     0.280 C 
ENDBRANCH  16  23
ENDBRANCH  11  13
ENDBRANCH   4  11
TORSDOF 6
ENDMDL
MODEL 6
REMARK VINA RESULT:    -7.834      5.468      7.274
REMARK INTER + INTRA:         -11.319
REMARK INTER:                 -10.797
REMARK INTRA:                  -0.522
REMARK UNBOUND:                -0.737
REMARK SMILES CCCCc1ccc(Nc2nc(OC)c3[nH]cnc3n2)cc1
REMARK SMILES IDX 5 1 6 2 7 3 8 4 21 5 22 6 4 7 3 8 2 9 1 10 9 11 10 13 11 14
REMARK SMILES IDX 20 15 12 16 19 17 15 18 18 19 16 20 17 21 13 23 14 24
REMARK H PARENT 9 12 16 22
ROOT
ATOM      1  C   UNL     1       6.964  45.304  50.909  1.00  0.00    -0.048 A 
ATOM      2  C   UNL     1       5.788  44.595  51.169  1.00  0.00     0.006 A 
ATOM      3  C   UNL     1       5.511  43.398  50.496  1.00  0.00     0.026 A 
ATOM      4  C   UNL     1       6.393  42.876  49.547  1.00  0.00     0.041 A 
ATOM      5  C   UNL     1       7.570  43.598  49.293  1.00  0.00     0.026 A 
ATOM      6  C   UNL     1       7.855  44.794  49.962  1.00  0.00     0.006 A 
ENDROOT
BRANCH   1   7
ATOM      7  C   UNL     1       7.267  46.589  51.640  1.00  0.00     0.035 C 
BRANCH   7   8
ATOM      8  C   UNL     1       8.640  47.181  51.308  1.00  0.00     0.004 C 
BRANCH   8   9
ATOM      9  C   UNL     1       9.693  46.892  52.382  1.00  0.00    -0.003 C 
ATOM     10  C   UNL     1       9.122  47.068  53.779  1.00  0.00     0.004 C 
ENDBRANCH   8   9
ENDBRANCH   7   8
ENDBRANCH   1   7
BRANCH   4  11
ATOM     11  N   UNL     1       6.174  41.689  48.841  1.00  0.00    -0.324 N 
ATOM     12  H   UNL     1       6.719  40.886  49.120  1.00  0.00     0.170 HD
BRANCH  11  13
ATOM     13  C   UNL     1       5.337  41.324  47.786  1.00  0.00     0.232 A 
ATOM     14  N   UNL     1       5.750  41.789  46.584  1.00  0.00    -0.175 NA
ATOM     15  N   UNL     1       4.244  40.583  47.991  1.00  0.00    -0.191 NA
ATOM     16  C   UNL     1       5.029  41.507  45.481  1.00  0.00     0.244 A 
ATOM     17  C   UNL     1       3.538  40.310  46.885  1.00  0.00     0.186 A 
ATOM     18  C   UNL     1       3.898  40.751  45.631  1.00  0.00     0.148 A 
ATOM     19  N   UNL     1       2.384  39.574  46.827  1.00  0.00    -0.217 NA
ATOM     20  N   UNL     1       2.937  40.269  44.791  1.00  0.00    -0.339 N 
ATOM     21  C   UNL     1       2.045  39.567  45.556  1.00  0.00     0.199 A 
ATOM     22  H   UNL     1       2.895  40.409  43.790  1.00  0.00     0.168 HD
BRANCH  16  23
ATOM     23  O   UNL     1       5.407  41.956  44.235  1.00  0.00    -0.479 OA
ATOM     24  C   UNL     1       5.828  40.902  43.374  1.00  0.00     0.280 C 
ENDBRANCH  16  23
ENDBRANCH  11  13
ENDBRANCH   4  11
TORSDOF 6
ENDMDL
MODEL 7
REMARK VINA RESULT:    -7.810      1.713      2.909
REMARK INTER + INTRA:         -11.286
REMARK INTER:                 -10.827
REMARK INTRA:                  -0.458
REMARK UNBOUND:                -0.737
REMARK SMILES CCCCc1ccc(Nc2nc(OC)c3[nH]cnc3n2)cc1
REMARK SMILES IDX 5 1 6 2 7 3 8 4 21 5 22 6 4 7 3 8 2 9 1 10 9 11 10 13 11 14
REMARK SMILES IDX 20 15 12 16 19 17 15 18 18 19 16 20 17 21 13 23 14 24
REMARK H PARENT 9 12 16 22
ROOT
ATOM      1  C   UNL     1       7.351  46.299  51.502  1.00  0.00    -0.048 A 
ATOM      2  C   UNL     1       6.324  46.339  52.449  1.00  0.00     0.006 A 
ATOM      3  C   UNL     1       5.269  45.419  52.401  1.00  0.00     0.026 A 
ATOM      4  C   UNL     1       5.207  44.436  51.410  1.00  0.00     0.041 A 
ATOM      5  C   UNL     1       6.242  44.408  50.463  1.00  0.00     0.026 A 
ATOM      6  C   UNL     1       7.300  45.323  50.504  1.00  0.00     0.006 A 
ENDROOT
BRANCH   1   7
ATOM      7  C   UNL     1       8.491  47.286  51.559  1.00  0.00     0.035 C 
BRANCH   7   8
ATOM      8  C   UNL     1       9.817  46.673  52.020  1.00  0.00     0.004 C 
BRANCH   8   9
ATOM      9  C   UNL     1       9.987  46.688  53.542  1.00  0.00    -0.003 C 
ATOM     10  C   UNL     1       9.216  47.835  54.175  1.00  0.00     0.004 C 
ENDBRANCH   8   9
ENDBRANCH   7   8
ENDBRANCH   1   7
BRANCH   4  11
ATOM     11  N   UNL     1       4.182  43.490  51.307  1.00  0.00    -0.324 N 
ATOM     12  H   UNL     1       4.415  42.614  50.863  1.00  0.00     0.170 HD
BRANCH  11  13
ATOM     13  C   UNL     1       2.841  43.462  51.691  1.00  0.00     0.232 A 
ATOM     14  N   UNL     1       2.648  43.744  53.000  1.00  0.00    -0.175 NA
ATOM     15  N   UNL     1       1.873  43.178  50.814  1.00  0.00    -0.191 NA
ATOM     16  C   UNL     1       1.397  43.750  53.500  1.00  0.00     0.244 A 
ATOM     17  C   UNL     1       0.634  43.188  51.325  1.00  0.00     0.186 A 
ATOM     18  C   UNL     1       0.365  43.467  52.646  1.00  0.00     0.148 A 
ATOM     19  N   UNL     1      -0.522  42.932  50.638  1.00  0.00    -0.217 NA
ATOM     20  N   UNL     1      -0.991  43.377  52.764  1.00  0.00    -0.339 N 
ATOM     21  C   UNL     1      -1.483  43.052  51.529  1.00  0.00     0.199 A 
ATOM     22  H   UNL     1      -1.527  43.523  53.609  1.00  0.00     0.168 HD
BRANCH  16  23
ATOM     23  O   UNL     1       1.149  44.032  54.825  1.00  0.00    -0.479 OA
ATOM     24  C   UNL     1       2.124  44.900  55.396  1.00  0.00     0.280 C 
ENDBRANCH  16  23
ENDBRANCH  11  13
ENDBRANCH   4  11
TORSDOF 6
ENDMDL
MODEL 8
REMARK VINA RESULT:    -7.775      1.532      2.767
REMARK INTER + INTRA:         -11.240
REMARK INTER:                 -10.585
REMARK INTRA:                  -0.655
REMARK UNBOUND:                -0.737
REMARK SMILES CCCCc1ccc(Nc2nc(OC)c3[nH]cnc3n2)cc1
REMARK SMILES IDX 5 1 6 2 7 3 8 4 21 5 22 6 4 7 3 8 2 9 1 10 9 11 10 13 11 14
REMARK SMILES IDX 20 15 12 16 19 17 15 18 18 19 16 20 17 21 13 23 14 24
REMARK H PARENT 9 12 16 22
ROOT
ATOM      1  C   UNL     1       6.825  45.513  51.608  1.00  0.00    -0.048 A 
ATOM      2  C   UNL     1       6.507  45.627  52.964  1.00  0.00     0.006 A 
ATOM      3  C   UNL     1       5.352  45.026  53.481  1.00  0.00     0.026 A 
ATOM      4  C   UNL     1       4.483  44.299  52.664  1.00  0.00     0.041 A 
ATOM      5  C   UNL     1       4.811  44.194  51.303  1.00  0.00     0.026 A 
ATOM      6  C   UNL     1       5.964  44.790  50.779  1.00  0.00     0.006 A 
ENDROOT
BRANCH   1   7
ATOM      7  C   UNL     1       8.073  46.153  51.053  1.00  0.00     0.035 C 
BRANCH   7   8
ATOM      8  C   UNL     1       8.669  47.235  51.960  1.00  0.00     0.004 C 
BRANCH   8   9
ATOM      9  C   UNL     1       9.921  46.768  52.707  1.00  0.00    -0.003 C 
ATOM     10  C   UNL     1       9.882  47.185  54.169  1.00  0.00     0.004 C 
ENDBRANCH   8   9
ENDBRANCH   7   8
ENDBRANCH   1   7
BRANCH   4  11
ATOM     11  N   UNL     1       3.315  43.677  53.118  1.00  0.00    -0.324 N 
ATOM     12  H   UNL     1       3.399  42.719  53.424  1.00  0.00     0.170 HD
BRANCH  11  13
ATOM     13  C   UNL     1       1.988  44.084  53.260  1.00  0.00     0.232 A 
ATOM     14  N   UNL     1       1.615  44.271  54.547  1.00  0.00    -0.175 NA
ATOM     15  N   UNL     1       1.198  44.259  52.196  1.00  0.00    -0.191 NA
ATOM     16  C   UNL     1       0.356  44.665  54.822  1.00  0.00     0.244 A 
ATOM     17  C   UNL     1      -0.051  44.651  52.485  1.00  0.00     0.186 A 
ATOM     18  C   UNL     1      -0.498  44.860  53.770  1.00  0.00     0.148 A 
ATOM     19  N   UNL     1      -1.048  44.896  51.579  1.00  0.00    -0.217 NA
ATOM     20  N   UNL     1      -1.801  45.244  53.640  1.00  0.00    -0.339 N 
ATOM     21  C   UNL     1      -2.088  45.251  52.302  1.00  0.00     0.199 A 
ATOM     22  H   UNL     1      -2.432  45.477  54.395  1.00  0.00     0.168 HD
BRANCH  16  23
ATOM     23  O   UNL     1      -0.071  44.871  56.116  1.00  0.00    -0.479 OA
ATOM     24  C   UNL     1       0.889  45.561  56.910  1.00  0.00     0.280 C 
ENDBRANCH  16  23
ENDBRANCH  11  13
ENDBRANCH   4  11
TORSDOF 6
ENDMDL
MODEL 9
REMARK VINA RESULT:    -7.387      2.305      3.379
REMARK INTER + INTRA:         -10.715
REMARK INTER:                 -10.177
REMARK INTRA:                  -0.539
REMARK UNBOUND:                -0.737
REMARK SMILES CCCCc1ccc(Nc2nc(OC)c3[nH]cnc3n2)cc1
REMARK SMILES IDX 5 1 6 2 7 3 8 4 21 5 22 6 4 7 3 8 2 9 1 10 9 11 10 13 11 14
REMARK SMILES IDX 20 15 12 16 19 17 15 18 18 19 16 20 17 21 13 23 14 24
REMARK H PARENT 9 12 16 22
ROOT
ATOM      1  C   UNL     1       8.676  46.878  53.325  1.00  0.00    -0.048 A 
ATOM      2  C   UNL     1       7.537  46.703  54.115  1.00  0.00     0.006 A 
ATOM      3  C   UNL     1       6.320  46.312  53.542  1.00  0.00     0.026 A 
ATOM      4  C   UNL     1       6.203  46.089  52.167  1.00  0.00     0.041 A 
ATOM      5  C   UNL     1       7.354  46.271  51.383  1.00  0.00     0.026 A 
ATOM      6  C   UNL     1       8.573  46.659  51.949  1.00  0.00     0.006 A 
ENDROOT
BRANCH   1   7
ATOM      7  C   UNL     1       9.988  47.291  53.945  1.00  0.00     0.035 C 
BRANCH   7   8
ATOM      8  C   UNL     1       9.892  47.607  55.441  1.00  0.00     0.004 C 
BRANCH   8   9
ATOM      9  C   UNL     1      11.242  47.975  56.064  1.00  0.00    -0.003 C 
ATOM     10  C   UNL     1      11.783  46.843  56.923  1.00  0.00     0.004 C 
ENDBRANCH   8   9
ENDBRANCH   7   8
ENDBRANCH   1   7
BRANCH   4  11
ATOM     11  N   UNL     1       5.019  45.699  51.533  1.00  0.00    -0.324 N 
ATOM     12  H   UNL     1       4.789  46.170  50.671  1.00  0.00     0.170 HD
BRANCH  11  13
ATOM     13  C   UNL     1       4.024  44.764  51.819  1.00  0.00     0.232 A 
ATOM     14  N   UNL     1       4.178  43.593  51.160  1.00  0.00    -0.175 NA
ATOM     15  N   UNL     1       3.033  45.043  52.672  1.00  0.00    -0.191 NA
ATOM     16  C   UNL     1       3.284  42.603  51.348  1.00  0.00     0.244 A 
ATOM     17  C   UNL     1       2.151  44.049  52.849  1.00  0.00     0.186 A 
ATOM     18  C   UNL     1       2.246  42.833  52.211  1.00  0.00     0.148 A 
ATOM     19  N   UNL     1       1.052  44.085  53.665  1.00  0.00    -0.217 NA
ATOM     20  N   UNL     1       1.176  42.111  52.652  1.00  0.00    -0.339 N 
ATOM     21  C   UNL     1       0.485  42.906  53.526  1.00  0.00     0.199 A 
ATOM     22  H   UNL     1       0.942  41.166  52.380  1.00  0.00     0.168 HD
BRANCH  16  23
ATOM     23  O   UNL     1       3.397  41.392  50.701  1.00  0.00    -0.479 OA
ATOM     24  C   UNL     1       4.603  41.279  49.951  1.00  0.00     0.280 C 
ENDBRANCH  16  23
ENDBRANCH  11  13
ENDBRANCH   4  11
TORSDOF 6
ENDMDL
MODEL 10
REMARK VINA RESULT:    -7.312      2.136      3.142
REMARK INTER + INTRA:         -10.613
REMARK INTER:                 -10.126
REMARK INTRA:                  -0.488
REMARK UNBOUND:                -0.737
REMARK SMILES CCCCc1ccc(Nc2nc(OC)c3[nH]cnc3n2)cc1
REMARK SMILES IDX 5 1 6 2 7 3 8 4 21 5 22 6 4 7 3 8 2 9 1 10 9 11 10 13 11 14
REMARK SMILES IDX 20 15 12 16 19 17 15 18 18 19 16 20 17 21 13 23 14 24
REMARK H PARENT 9 12 16 22
ROOT
ATOM      1  C   UNL     1       7.271  46.785  53.386  1.00  0.00    -0.048 A 
ATOM      2  C   UNL     1       6.775  46.054  52.302  1.00  0.00     0.006 A 
ATOM      3  C   UNL     1       5.563  45.358  52.403  1.00  0.00     0.026 A 
ATOM      4  C   UNL     1       4.815  45.367  53.583  1.00  0.00     0.041 A 
ATOM      5  C   UNL     1       5.325  46.103  54.665  1.00  0.00     0.026 A 
ATOM      6  C   UNL     1       6.533  46.802  54.572  1.00  0.00     0.006 A 
ENDROOT
BRANCH   1   7
ATOM      7  C   UNL     1       8.571  47.541  53.274  1.00  0.00     0.035 C 
BRANCH   7   8
ATOM      8  C   UNL     1       9.166  47.952  54.625  1.00  0.00     0.004 C 
BRANCH   8   9
ATOM      9  C   UNL     1      10.470  47.221  54.954  1.00  0.00    -0.003 C 
ATOM     10  C   UNL     1      11.015  47.642  56.309  1.00  0.00     0.004 C 
ENDBRANCH   8   9
ENDBRANCH   7   8
ENDBRANCH   1   7
BRANCH   4  11
ATOM     11  N   UNL     1       3.601  44.693  53.748  1.00  0.00    -0.324 N 
ATOM     12  H   UNL     1       3.377  44.381  54.681  1.00  0.00     0.170 HD
BRANCH  11  13
ATOM     13  C   UNL     1       2.565  44.329  52.887  1.00  0.00     0.232 A 
ATOM     14  N   UNL     1       2.883  43.304  52.063  1.00  0.00    -0.175 NA
ATOM     15  N   UNL     1       1.387  44.961  52.911  1.00  0.00    -0.191 NA
ATOM     16  C   UNL     1       1.969  42.855  51.181  1.00  0.00     0.244 A 
ATOM     17  C   UNL     1       0.489  44.502  52.029  1.00  0.00     0.186 A 
ATOM     18  C   UNL     1       0.744  43.465  51.161  1.00  0.00     0.148 A 
ATOM     19  N   UNL     1      -0.784  44.978  51.855  1.00  0.00    -0.217 NA
ATOM     20  N   UNL     1      -0.404  43.306  50.442  1.00  0.00    -0.339 N 
ATOM     21  C   UNL     1      -1.297  44.240  50.895  1.00  0.00     0.199 A 
ATOM     22  H   UNL     1      -0.561  42.625  49.711  1.00  0.00     0.168 HD
BRANCH  16  23
ATOM     23  O   UNL     1       2.244  41.814  50.321  1.00  0.00    -0.479 OA
ATOM     24  C   UNL     1       3.632  41.496  50.267  1.00  0.00     0.280 C 
ENDBRANCH  16  23
ENDBRANCH  11  13
ENDBRANCH   4  11
TORSDOF 6
ENDMDL
