MODEL 1
REMARK VINA RESULT:    -9.400      0.000      0.000
REMARK INTER + INTRA:         -13.844
REMARK INTER:                 -12.973
REMARK INTRA:                  -0.871
REMARK UNBOUND:                -0.871
REMARK SMILES NS(=O)(=O)c1cccc(Nc2nc(OCC3CCCCC3)c3[nH]cnc3n2)c1
REMARK SMILES IDX 10 1 9 3 5 4 6 5 28 6 7 7 8 8 2 9 3 10 4 11 1 12 11 15 12 16
REMARK SMILES IDX 27 17 13 18 26 19 22 20 25 21 23 22 24 23 14 25 15 26 16 27
REMARK SMILES IDX 17 28 21 29 18 30 20 31 19 32
REMARK H PARENT 10 2 1 13 1 14 23 24
ROOT
ATOM      1  N   UNL     1       2.152  42.411  53.074  1.00  0.00    -0.324 N 
ATOM      2  H   UNL     1       2.348  41.465  53.376  1.00  0.00     0.170 HD
ENDROOT
BRANCH   1   3
ATOM      3  C   UNL     1       0.912  42.950  53.427  1.00  0.00     0.042 A 
ATOM      4  C   UNL     1      -0.397  44.258  55.011  1.00  0.00     0.084 A 
ATOM      5  C   UNL     1      -1.539  44.131  54.222  1.00  0.00     0.022 A 
ATOM      6  C   UNL     1       0.813  43.669  54.628  1.00  0.00     0.047 A 
ATOM      7  C   UNL     1      -1.453  43.425  53.027  1.00  0.00     0.004 A 
ATOM      8  C   UNL     1      -0.239  42.849  52.636  1.00  0.00     0.026 A 
BRANCH   4   9
ATOM      9  S   UNL     1      -0.491  45.160  56.533  1.00  0.00     0.238 S 
ATOM     10  O   UNL     1      -1.239  44.376  57.486  1.00  0.00    -0.207 OA
ATOM     11  O   UNL     1       0.815  45.704  56.827  1.00  0.00    -0.207 OA
BRANCH   9  12
ATOM     12  N   UNL     1      -1.440  46.476  56.083  1.00  0.00    -0.225 NA
ATOM     13  H   UNL     1      -1.649  46.406  55.086  1.00  0.00     0.137 HD
ATOM     14  H   UNL     1      -2.287  46.573  56.643  1.00  0.00     0.137 HD
ENDBRANCH   9  12
ENDBRANCH   4   9
ENDBRANCH   1   3
BRANCH   1  15
ATOM     15  C   UNL     1       3.242  42.862  52.327  1.00  0.00     0.232 A 
ATOM     16  N   UNL     1       3.697  44.127  52.453  1.00  0.00    -0.175 NA
ATOM     17  N   UNL     1       3.770  41.928  51.525  1.00  0.00    -0.191 NA
ATOM     18  C   UNL     1       4.764  44.524  51.736  1.00  0.00     0.245 A 
ATOM     19  C   UNL     1       4.835  42.338  50.821  1.00  0.00     0.186 A 
ATOM     20  C   UNL     1       5.353  43.611  50.905  1.00  0.00     0.148 A 
ATOM     21  N   UNL     1       5.556  41.577  49.940  1.00  0.00    -0.217 NA
ATOM     22  N   UNL     1       6.417  43.622  50.052  1.00  0.00    -0.339 N 
ATOM     23  C   UNL     1       6.502  42.376  49.493  1.00  0.00     0.199 A 
ATOM     24  H   UNL     1       7.027  44.408  49.872  1.00  0.00     0.168 HD
BRANCH  18  25
ATOM     25  O   UNL     1       5.280  45.797  51.843  1.00  0.00    -0.476 OA
BRANCH  25  26
ATOM     26  C   UNL     1       5.871  46.095  53.112  1.00  0.00     0.235 C 
BRANCH  26  27
ATOM     27  C   UNL     1       7.403  46.179  53.027  1.00  0.00     0.027 C 
ATOM     28  C   UNL     1       7.870  46.565  51.609  1.00  0.00     0.007 C 
ATOM     29  C   UNL     1       7.959  47.153  54.069  1.00  0.00     0.007 C 
ATOM     30  C   UNL     1       9.251  47.227  51.579  1.00  0.00     0.000 C 
ATOM     31  C   UNL     1       9.490  47.145  54.093  1.00  0.00     0.000 C 
ATOM     32  C   UNL     1      10.123  46.788  52.748  1.00  0.00     0.000 C 
ENDBRANCH  26  27
ENDBRANCH  25  26
ENDBRANCH  18  25
ENDBRANCH   1  15
TORSDOF 7
ENDMDL
MODEL 2
REMARK VINA RESULT:    -9.258      2.996      5.306
REMARK INTER + INTRA:         -13.646
REMARK INTER:                 -12.724
REMARK INTRA:                  -0.923
REMARK UNBOUND:                -0.871
REMARK SMILES NS(=O)(=O)c1cccc(Nc2nc(OCC3CCCCC3)c3[nH]cnc3n2)c1
REMARK SMILES IDX 10 1 9 3 5 4 6 5 28 6 7 7 8 8 2 9 3 10 4 11 1 12 11 15 12 16
REMARK SMILES IDX 27 17 13 18 26 19 22 20 25 21 23 22 24 23 14 25 15 26 16 27
REMARK SMILES IDX 17 28 21 29 18 30 20 31 19 32
REMARK H PARENT 10 2 1 13 1 14 23 24
ROOT
ATOM      1  N   UNL     1       4.449  46.850  54.939  1.00  0.00    -0.324 N 
ATOM      2  H   UNL     1       4.517  47.656  55.545  1.00  0.00     0.170 HD
ENDROOT
BRANCH   1   3
ATOM      3  C   UNL     1       3.245  46.140  54.953  1.00  0.00     0.042 A 
ATOM      4  C   UNL     1       1.467  45.060  53.684  1.00  0.00     0.084 A 
ATOM      5  C   UNL     1       0.830  44.659  54.857  1.00  0.00     0.022 A 
ATOM      6  C   UNL     1       2.655  45.800  53.726  1.00  0.00     0.047 A 
ATOM      7  C   UNL     1       1.407  44.985  56.079  1.00  0.00     0.004 A 
ATOM      8  C   UNL     1       2.603  45.712  56.121  1.00  0.00     0.026 A 
BRANCH   4   9
ATOM      9  S   UNL     1       0.747  44.645  52.120  1.00  0.00     0.238 S 
ATOM     10  O   UNL     1       1.658  45.043  51.074  1.00  0.00    -0.207 OA
ATOM     11  O   UNL     1       0.195  43.312  52.206  1.00  0.00    -0.207 OA
BRANCH   9  12
ATOM     12  N   UNL     1      -0.579  45.682  52.076  1.00  0.00    -0.225 NA
ATOM     13  H   UNL     1      -0.470  46.387  52.807  1.00  0.00     0.137 HD
ATOM     14  H   UNL     1      -0.731  46.105  51.161  1.00  0.00     0.137 HD
ENDBRANCH   9  12
ENDBRANCH   4   9
ENDBRANCH   1   3
BRANCH   1  15
ATOM     15  C   UNL     1       5.673  46.693  54.286  1.00  0.00     0.232 A 
ATOM     16  N   UNL     1       5.744  46.117  53.067  1.00  0.00    -0.175 NA
ATOM     17  N   UNL     1       6.716  47.178  54.973  1.00  0.00    -0.191 NA
ATOM     18  C   UNL     1       6.937  46.002  52.455  1.00  0.00     0.245 A 
ATOM     19  C   UNL     1       7.896  47.060  54.348  1.00  0.00     0.186 A 
ATOM     20  C   UNL     1       8.040  46.488  53.104  1.00  0.00     0.148 A 
ATOM     21  N   UNL     1       9.106  47.482  54.831  1.00  0.00    -0.217 NA
ATOM     22  N   UNL     1       9.372  46.565  52.824  1.00  0.00    -0.339 N 
ATOM     23  C   UNL     1       9.975  47.171  53.892  1.00  0.00     0.199 A 
ATOM     24  H   UNL     1       9.824  46.235  51.982  1.00  0.00     0.168 HD
BRANCH  18  25
ATOM     25  O   UNL     1       7.062  45.441  51.203  1.00  0.00    -0.476 OA
BRANCH  25  26
ATOM     26  C   UNL     1       5.840  45.362  50.462  1.00  0.00     0.235 C 
BRANCH  26  27
ATOM     27  C   UNL     1       5.472  43.911  50.113  1.00  0.00     0.027 C 
ATOM     28  C   UNL     1       6.718  43.091  49.720  1.00  0.00     0.007 C 
ATOM     29  C   UNL     1       4.720  43.241  51.266  1.00  0.00     0.007 C 
ATOM     30  C   UNL     1       6.551  41.583  49.933  1.00  0.00     0.000 C 
ATOM     31  C   UNL     1       4.224  41.843  50.884  1.00  0.00     0.000 C 
ATOM     32  C   UNL     1       5.095  41.148  49.837  1.00  0.00     0.000 C 
ENDBRANCH  26  27
ENDBRANCH  25  26
ENDBRANCH  18  25
ENDBRANCH   1  15
TORSDOF 7
ENDMDL
MODEL 3
REMARK VINA RESULT:    -9.178      3.617      6.521
REMARK INTER + INTRA:         -13.536
REMARK INTER:                 -12.812
REMARK INTRA:                  -0.725
REMARK UNBOUND:                -0.871
REMARK SMILES NS(=O)(=O)c1cccc(Nc2nc(OCC3CCCCC3)c3[nH]cnc3n2)c1
REMARK SMILES IDX 10 1 9 3 5 4 6 5 28 6 7 7 8 8 2 9 3 10 4 11 1 12 11 15 12 16
REMARK SMILES IDX 27 17 13 18 26 19 22 20 25 21 23 22 24 23 14 25 15 26 16 27
REMARK SMILES IDX 17 28 21 29 18 30 20 31 19 32
REMARK H PARENT 10 2 1 13 1 14 23 24
ROOT
ATOM      1  N   UNL     1       3.838  41.769  51.596  1.00  0.00    -0.324 N 
ATOM      2  H   UNL     1       3.620  40.947  52.143  1.00  0.00     0.170 HD
ENDROOT
BRANCH   1   3
ATOM      3  C   UNL     1       4.372  41.564  50.320  1.00  0.00     0.042 A 
ATOM      4  C   UNL     1       4.063  40.694  48.066  1.00  0.00     0.084 A 
ATOM      5  C   UNL     1       5.330  41.135  47.688  1.00  0.00     0.022 A 
ATOM      6  C   UNL     1       3.589  40.895  49.367  1.00  0.00     0.047 A 
ATOM      7  C   UNL     1       6.114  41.804  48.621  1.00  0.00     0.004 A 
ATOM      8  C   UNL     1       5.634  42.019  49.918  1.00  0.00     0.026 A 
BRANCH   4   9
ATOM      9  S   UNL     1       3.052  39.846  46.884  1.00  0.00     0.238 S 
ATOM     10  O   UNL     1       2.667  38.571  47.440  1.00  0.00    -0.207 OA
ATOM     11  O   UNL     1       2.092  40.782  46.344  1.00  0.00    -0.207 OA
BRANCH   9  12
ATOM     12  N   UNL     1       4.154  39.561  45.643  1.00  0.00    -0.225 NA
ATOM     13  H   UNL     1       4.208  38.555  45.476  1.00  0.00     0.137 HD
ATOM     14  H   UNL     1       3.943  40.078  44.790  1.00  0.00     0.137 HD
ENDBRANCH   9  12
ENDBRANCH   4   9
ENDBRANCH   1   3
BRANCH   1  15
ATOM     15  C   UNL     1       3.549  42.894  52.370  1.00  0.00     0.232 A 
ATOM     16  N   UNL     1       4.421  43.921  52.458  1.00  0.00    -0.175 NA
ATOM     17  N   UNL     1       2.352  42.844  52.968  1.00  0.00    -0.191 NA
ATOM     18  C   UNL     1       4.103  45.001  53.195  1.00  0.00     0.245 A 
ATOM     19  C   UNL     1       2.047  43.930  53.694  1.00  0.00     0.186 A 
ATOM     20  C   UNL     1       2.887  45.013  53.823  1.00  0.00     0.148 A 
ATOM     21  N   UNL     1       0.887  44.129  54.393  1.00  0.00    -0.217 NA
ATOM     22  N   UNL     1       2.218  45.893  54.622  1.00  0.00    -0.339 N 
ATOM     23  C   UNL     1       1.018  45.318  54.942  1.00  0.00     0.199 A 
ATOM     24  H   UNL     1       2.552  46.800  54.919  1.00  0.00     0.168 HD
BRANCH  18  25
ATOM     25  O   UNL     1       4.948  46.084  53.301  1.00  0.00    -0.476 OA
BRANCH  25  26
ATOM     26  C   UNL     1       6.012  45.918  54.243  1.00  0.00     0.235 C 
BRANCH  26  27
ATOM     27  C   UNL     1       7.391  46.110  53.591  1.00  0.00     0.027 C 
ATOM     28  C   UNL     1       7.264  46.522  52.111  1.00  0.00     0.007 C 
ATOM     29  C   UNL     1       8.232  47.124  54.371  1.00  0.00     0.007 C 
ATOM     30  C   UNL     1       8.485  47.280  51.580  1.00  0.00     0.000 C 
ATOM     31  C   UNL     1       9.656  47.224  53.819  1.00  0.00     0.000 C 
ATOM     32  C   UNL     1       9.759  46.908  52.326  1.00  0.00     0.000 C 
ENDBRANCH  26  27
ENDBRANCH  25  26
ENDBRANCH  18  25
ENDBRANCH   1  15
TORSDOF 7
ENDMDL
MODEL 4
REMARK VINA RESULT:    -9.013      2.434      2.755
REMARK INTER + INTRA:         -13.309
REMARK INTER:                 -12.446
REMARK INTRA:                  -0.864
REMARK UNBOUND:                -0.871
REMARK SMILES NS(=O)(=O)c1cccc(Nc2nc(OCC3CCCCC3)c3[nH]cnc3n2)c1
REMARK SMILES IDX 10 1 9 3 5 4 6 5 28 6 7 7 8 8 2 9 3 10 4 11 1 12 11 15 12 16
REMARK SMILES IDX 27 17 13 18 26 19 22 20 25 21 23 22 24 23 14 25 15 26 16 27
REMARK SMILES IDX 17 28 21 29 18 30 20 31 19 32
REMARK H PARENT 10 2 1 13 1 14 23 24
ROOT
ATOM      1  N   UNL     1       2.286  42.461  53.074  1.00  0.00    -0.324 N 
ATOM      2  H   UNL     1       2.560  41.581  53.491  1.00  0.00     0.170 HD
ENDROOT
BRANCH   1   3
ATOM      3  C   UNL     1       0.987  42.911  53.327  1.00  0.00     0.042 A 
ATOM      4  C   UNL     1      -1.349  42.973  52.639  1.00  0.00     0.084 A 
ATOM      5  C   UNL     1      -1.693  43.726  53.761  1.00  0.00     0.022 A 
ATOM      6  C   UNL     1      -0.026  42.576  52.416  1.00  0.00     0.047 A 
ATOM      7  C   UNL     1      -0.699  44.061  54.674  1.00  0.00     0.004 A 
ATOM      8  C   UNL     1       0.622  43.651  54.458  1.00  0.00     0.026 A 
BRANCH   4   9
ATOM      9  S   UNL     1      -2.607  42.534  51.472  1.00  0.00     0.238 S 
ATOM     10  O   UNL     1      -2.916  41.134  51.635  1.00  0.00    -0.207 OA
ATOM     11  O   UNL     1      -3.623  43.562  51.481  1.00  0.00    -0.207 OA
BRANCH   9  12
ATOM     12  N   UNL     1      -1.788  42.719  50.012  1.00  0.00    -0.225 NA
ATOM     13  H   UNL     1      -0.929  42.167  50.044  1.00  0.00     0.137 HD
ATOM     14  H   UNL     1      -2.357  42.490  49.198  1.00  0.00     0.137 HD
ENDBRANCH   9  12
ENDBRANCH   4   9
ENDBRANCH   1   3
BRANCH   1  15
ATOM     15  C   UNL     1       3.355  42.930  52.309  1.00  0.00     0.232 A 
ATOM     16  N   UNL     1       3.794  44.201  52.430  1.00  0.00    -0.175 NA
ATOM     17  N   UNL     1       3.881  42.006  51.494  1.00  0.00    -0.191 NA
ATOM     18  C   UNL     1       4.842  44.615  51.695  1.00  0.00     0.245 A 
ATOM     19  C   UNL     1       4.927  42.433  50.772  1.00  0.00     0.186 A 
ATOM     20  C   UNL     1       5.429  43.712  50.850  1.00  0.00     0.148 A 
ATOM     21  N   UNL     1       5.643  41.684  49.875  1.00  0.00    -0.217 NA
ATOM     22  N   UNL     1       6.477  43.741  49.978  1.00  0.00    -0.339 N 
ATOM     23  C   UNL     1       6.569  42.498  49.414  1.00  0.00     0.199 A 
ATOM     24  H   UNL     1       7.072  44.536  49.788  1.00  0.00     0.168 HD
BRANCH  18  25
ATOM     25  O   UNL     1       5.342  45.895  51.795  1.00  0.00    -0.476 OA
BRANCH  25  26
ATOM     26  C   UNL     1       5.924  46.208  53.065  1.00  0.00     0.235 C 
BRANCH  26  27
ATOM     27  C   UNL     1       7.459  46.242  53.000  1.00  0.00     0.027 C 
ATOM     28  C   UNL     1       7.957  46.665  51.604  1.00  0.00     0.007 C 
ATOM     29  C   UNL     1       8.036  47.154  54.085  1.00  0.00     0.007 C 
ATOM     30  C   UNL     1       9.361  47.279  51.615  1.00  0.00     0.000 C 
ATOM     31  C   UNL     1       9.565  47.092  54.127  1.00  0.00     0.000 C 
ATOM     32  C   UNL     1      10.202  46.766  52.775  1.00  0.00     0.000 C 
ENDBRANCH  26  27
ENDBRANCH  25  26
ENDBRANCH  18  25
ENDBRANCH   1  15
TORSDOF 7
ENDMDL
MODEL 5
REMARK VINA RESULT:    -8.942      1.478      1.901
REMARK INTER + INTRA:         -13.211
REMARK INTER:                 -12.406
REMARK INTRA:                  -0.804
REMARK UNBOUND:                -0.871
REMARK SMILES NS(=O)(=O)c1cccc(Nc2nc(OCC3CCCCC3)c3[nH]cnc3n2)c1
REMARK SMILES IDX 10 1 9 3 5 4 6 5 28 6 7 7 8 8 2 9 3 10 4 11 1 12 11 15 12 16
REMARK SMILES IDX 27 17 13 18 26 19 22 20 25 21 23 22 24 23 14 25 15 26 16 27
REMARK SMILES IDX 17 28 21 29 18 30 20 31 19 32
REMARK H PARENT 10 2 1 13 1 14 23 24
ROOT
ATOM      1  N   UNL     1       2.265  43.086  53.366  1.00  0.00    -0.324 N 
ATOM      2  H   UNL     1       2.073  42.094  53.327  1.00  0.00     0.170 HD
ENDROOT
BRANCH   1   3
ATOM      3  C   UNL     1       1.452  43.862  54.197  1.00  0.00     0.042 A 
ATOM      4  C   UNL     1      -0.784  44.668  54.734  1.00  0.00     0.084 A 
ATOM      5  C   UNL     1      -0.302  45.364  55.841  1.00  0.00     0.022 A 
ATOM      6  C   UNL     1       0.080  43.933  53.913  1.00  0.00     0.047 A 
ATOM      7  C   UNL     1       1.055  45.299  56.136  1.00  0.00     0.004 A 
ATOM      8  C   UNL     1       1.917  44.551  55.325  1.00  0.00     0.026 A 
BRANCH   4   9
ATOM      9  S   UNL     1      -2.512  44.738  54.351  1.00  0.00     0.238 S 
ATOM     10  O   UNL     1      -2.941  43.426  53.928  1.00  0.00    -0.207 OA
ATOM     11  O   UNL     1      -3.185  45.480  55.392  1.00  0.00    -0.207 OA
BRANCH   9  12
ATOM     12  N   UNL     1      -2.515  45.746  53.002  1.00  0.00    -0.225 NA
ATOM     13  H   UNL     1      -3.482  45.922  52.725  1.00  0.00     0.137 HD
ATOM     14  H   UNL     1      -1.996  46.612  53.144  1.00  0.00     0.137 HD
ENDBRANCH   9  12
ENDBRANCH   4   9
ENDBRANCH   1   3
BRANCH   1  15
ATOM     15  C   UNL     1       3.316  43.360  52.489  1.00  0.00     0.232 A 
ATOM     16  N   UNL     1       3.851  44.597  52.407  1.00  0.00    -0.175 NA
ATOM     17  N   UNL     1       3.724  42.294  51.788  1.00  0.00    -0.191 NA
ATOM     18  C   UNL     1       4.878  44.822  51.568  1.00  0.00     0.245 A 
ATOM     19  C   UNL     1       4.752  42.534  50.960  1.00  0.00     0.186 A 
ATOM     20  C   UNL     1       5.347  43.768  50.830  1.00  0.00     0.148 A 
ATOM     21  N   UNL     1       5.357  41.615  50.144  1.00  0.00    -0.217 NA
ATOM     22  N   UNL     1       6.339  43.595  49.911  1.00  0.00    -0.339 N 
ATOM     23  C   UNL     1       6.308  42.282  49.525  1.00  0.00     0.199 A 
ATOM     24  H   UNL     1       6.976  44.307  49.581  1.00  0.00     0.168 HD
BRANCH  18  25
ATOM     25  O   UNL     1       5.473  46.060  51.461  1.00  0.00    -0.476 OA
BRANCH  25  26
ATOM     26  C   UNL     1       5.953  46.599  52.697  1.00  0.00     0.235 C 
BRANCH  26  27
ATOM     27  C   UNL     1       7.469  46.404  52.858  1.00  0.00     0.027 C 
ATOM     28  C   UNL     1       8.188  46.404  51.494  1.00  0.00     0.007 C 
ATOM     29  C   UNL     1       8.064  47.463  53.788  1.00  0.00     0.007 C 
ATOM     30  C   UNL     1       9.664  46.803  51.579  1.00  0.00     0.000 C 
ATOM     31  C   UNL     1       9.546  47.203  54.072  1.00  0.00     0.000 C 
ATOM     32  C   UNL     1      10.269  46.475  52.938  1.00  0.00     0.000 C 
ENDBRANCH  26  27
ENDBRANCH  25  26
ENDBRANCH  18  25
ENDBRANCH   1  15
TORSDOF 7
ENDMDL
MODEL 6
REMARK VINA RESULT:    -8.920      3.382      6.458
REMARK INTER + INTRA:         -13.181
REMARK INTER:                 -12.359
REMARK INTRA:                  -0.822
REMARK UNBOUND:                -0.871
REMARK SMILES NS(=O)(=O)c1cccc(Nc2nc(OCC3CCCCC3)c3[nH]cnc3n2)c1
REMARK SMILES IDX 10 1 9 3 5 4 6 5 28 6 7 7 8 8 2 9 3 10 4 11 1 12 11 15 12 16
REMARK SMILES IDX 27 17 13 18 26 19 22 20 25 21 23 22 24 23 14 25 15 26 16 27
REMARK SMILES IDX 17 28 21 29 18 30 20 31 19 32
REMARK H PARENT 10 2 1 13 1 14 23 24
ROOT
ATOM      1  N   UNL     1       3.286  43.474  51.768  1.00  0.00    -0.324 N 
ATOM      2  H   UNL     1       2.330  43.437  51.440  1.00  0.00     0.170 HD
ENDROOT
BRANCH   1   3
ATOM      3  C   UNL     1       4.257  42.850  50.980  1.00  0.00     0.042 A 
ATOM      4  C   UNL     1       6.455  42.959  49.936  1.00  0.00     0.084 A 
ATOM      5  C   UNL     1       6.316  41.667  49.433  1.00  0.00     0.022 A 
ATOM      6  C   UNL     1       5.437  43.552  50.693  1.00  0.00     0.047 A 
ATOM      7  C   UNL     1       5.153  40.959  49.714  1.00  0.00     0.004 A 
ATOM      8  C   UNL     1       4.141  41.545  50.483  1.00  0.00     0.026 A 
BRANCH   4   9
ATOM      9  S   UNL     1       7.935  43.870  49.591  1.00  0.00     0.238 S 
ATOM     10  O   UNL     1       7.678  45.270  49.827  1.00  0.00    -0.207 OA
ATOM     11  O   UNL     1       9.053  43.173  50.185  1.00  0.00    -0.207 OA
BRANCH   9  12
ATOM     12  N   UNL     1       8.089  43.641  47.930  1.00  0.00    -0.225 NA
ATOM     13  H   UNL     1       8.256  44.546  47.487  1.00  0.00     0.137 HD
ATOM     14  H   UNL     1       8.804  42.958  47.681  1.00  0.00     0.137 HD
ENDBRANCH   9  12
ENDBRANCH   4   9
ENDBRANCH   1   3
BRANCH   1  15
ATOM     15  C   UNL     1       3.298  44.144  52.993  1.00  0.00     0.232 A 
ATOM     16  N   UNL     1       4.445  44.639  53.505  1.00  0.00    -0.175 NA
ATOM     17  N   UNL     1       2.090  44.248  53.562  1.00  0.00    -0.191 NA
ATOM     18  C   UNL     1       4.419  45.299  54.677  1.00  0.00     0.245 A 
ATOM     19  C   UNL     1       2.081  44.913  54.727  1.00  0.00     0.186 A 
ATOM     20  C   UNL     1       3.211  45.447  55.303  1.00  0.00     0.148 A 
ATOM     21  N   UNL     1       0.978  45.162  55.500  1.00  0.00    -0.217 NA
ATOM     22  N   UNL     1       2.784  46.037  56.455  1.00  0.00    -0.339 N 
ATOM     23  C   UNL     1       1.432  45.840  56.533  1.00  0.00     0.199 A 
ATOM     24  H   UNL     1       3.362  46.527  57.124  1.00  0.00     0.168 HD
BRANCH  18  25
ATOM     25  O   UNL     1       5.558  45.842  55.232  1.00  0.00    -0.476 OA
BRANCH  25  26
ATOM     26  C   UNL     1       6.002  47.053  54.613  1.00  0.00     0.235 C 
BRANCH  26  27
ATOM     27  C   UNL     1       7.288  46.844  53.799  1.00  0.00     0.027 C 
ATOM     28  C   UNL     1       7.199  47.523  52.417  1.00  0.00     0.007 C 
ATOM     29  C   UNL     1       8.515  47.337  54.571  1.00  0.00     0.007 C 
ATOM     30  C   UNL     1       8.565  47.869  51.816  1.00  0.00     0.000 C 
ATOM     31  C   UNL     1       9.818  47.010  53.836  1.00  0.00     0.000 C 
ATOM     32  C   UNL     1       9.663  46.940  52.316  1.00  0.00     0.000 C 
ENDBRANCH  26  27
ENDBRANCH  25  26
ENDBRANCH  18  25
ENDBRANCH   1  15
TORSDOF 7
ENDMDL
MODEL 7
REMARK VINA RESULT:    -8.812      2.460      3.167
REMARK INTER + INTRA:         -13.031
REMARK INTER:                 -12.240
REMARK INTRA:                  -0.792
REMARK UNBOUND:                -0.871
REMARK SMILES NS(=O)(=O)c1cccc(Nc2nc(OCC3CCCCC3)c3[nH]cnc3n2)c1
REMARK SMILES IDX 10 1 9 3 5 4 6 5 28 6 7 7 8 8 2 9 3 10 4 11 1 12 11 15 12 16
REMARK SMILES IDX 27 17 13 18 26 19 22 20 25 21 23 22 24 23 14 25 15 26 16 27
REMARK SMILES IDX 17 28 21 29 18 30 20 31 19 32
REMARK H PARENT 10 2 1 13 1 14 23 24
ROOT
ATOM      1  N   UNL     1       1.657  44.977  56.184  1.00  0.00    -0.324 N 
ATOM      2  H   UNL     1       2.130  44.411  56.876  1.00  0.00     0.170 HD
ENDROOT
BRANCH   1   3
ATOM      3  C   UNL     1       0.373  45.431  56.498  1.00  0.00     0.042 A 
ATOM      4  C   UNL     1      -1.033  46.851  57.892  1.00  0.00     0.084 A 
ATOM      5  C   UNL     1      -2.175  46.458  57.195  1.00  0.00     0.022 A 
ATOM      6  C   UNL     1       0.226  46.340  57.558  1.00  0.00     0.047 A 
ATOM      7  C   UNL     1      -2.042  45.562  56.141  1.00  0.00     0.004 A 
ATOM      8  C   UNL     1      -0.781  45.062  55.796  1.00  0.00     0.026 A 
BRANCH   4   9
ATOM      9  S   UNL     1      -1.187  47.997  59.233  1.00  0.00     0.238 S 
ATOM     10  O   UNL     1      -2.173  47.492  60.158  1.00  0.00    -0.207 OA
ATOM     11  O   UNL     1       0.137  48.399  59.650  1.00  0.00    -0.207 OA
BRANCH   9  12
ATOM     12  N   UNL     1      -1.844  49.338  58.454  1.00  0.00    -0.225 NA
ATOM     13  H   UNL     1      -2.858  49.229  58.410  1.00  0.00     0.137 HD
ATOM     14  H   UNL     1      -1.575  50.224  58.881  1.00  0.00     0.137 HD
ENDBRANCH   9  12
ENDBRANCH   4   9
ENDBRANCH   1   3
BRANCH   1  15
ATOM     15  C   UNL     1       2.489  45.081  55.067  1.00  0.00     0.232 A 
ATOM     16  N   UNL     1       3.430  46.045  54.986  1.00  0.00    -0.175 NA
ATOM     17  N   UNL     1       2.265  44.141  54.140  1.00  0.00    -0.191 NA
ATOM     18  C   UNL     1       4.231  46.104  53.907  1.00  0.00     0.245 A 
ATOM     19  C   UNL     1       3.074  44.210  53.072  1.00  0.00     0.186 A 
ATOM     20  C   UNL     1       4.057  45.163  52.928  1.00  0.00     0.148 A 
ATOM     21  N   UNL     1       3.055  43.365  51.995  1.00  0.00    -0.217 NA
ATOM     22  N   UNL     1       4.650  44.890  51.731  1.00  0.00    -0.339 N 
ATOM     23  C   UNL     1       4.014  43.798  51.204  1.00  0.00     0.199 A 
ATOM     24  H   UNL     1       5.417  45.401  51.316  1.00  0.00     0.168 HD
BRANCH  18  25
ATOM     25  O   UNL     1       5.220  47.055  53.784  1.00  0.00    -0.476 OA
BRANCH  25  26
ATOM     26  C   UNL     1       6.386  46.806  54.576  1.00  0.00     0.235 C 
BRANCH  26  27
ATOM     27  C   UNL     1       7.639  46.613  53.707  1.00  0.00     0.027 C 
ATOM     28  C   UNL     1       7.424  47.148  52.277  1.00  0.00     0.007 C 
ATOM     29  C   UNL     1       8.864  47.264  54.355  1.00  0.00     0.007 C 
ATOM     30  C   UNL     1       8.725  47.532  51.565  1.00  0.00     0.000 C 
ATOM     31  C   UNL     1      10.147  46.963  53.575  1.00  0.00     0.000 C 
ATOM     32  C   UNL     1       9.917  46.737  52.080  1.00  0.00     0.000 C 
ENDBRANCH  26  27
ENDBRANCH  25  26
ENDBRANCH  18  25
ENDBRANCH   1  15
TORSDOF 7
ENDMDL
MODEL 8
REMARK VINA RESULT:    -8.736      4.072      6.824
REMARK INTER + INTRA:         -12.927
REMARK INTER:                 -12.143
REMARK INTRA:                  -0.783
REMARK UNBOUND:                -0.871
REMARK SMILES NS(=O)(=O)c1cccc(Nc2nc(OCC3CCCCC3)c3[nH]cnc3n2)c1
REMARK SMILES IDX 10 1 9 3 5 4 6 5 28 6 7 7 8 8 2 9 3 10 4 11 1 12 11 15 12 16
REMARK SMILES IDX 27 17 13 18 26 19 22 20 25 21 23 22 24 23 14 25 15 26 16 27
REMARK SMILES IDX 17 28 21 29 18 30 20 31 19 32
REMARK H PARENT 10 2 1 13 1 14 23 24
ROOT
ATOM      1  N   UNL     1       4.855  41.389  50.031  1.00  0.00    -0.324 N 
ATOM      2  H   UNL     1       5.310  40.640  50.536  1.00  0.00     0.170 HD
ENDROOT
BRANCH   1   3
ATOM      3  C   UNL     1       4.875  41.322  48.635  1.00  0.00     0.042 A 
ATOM      4  C   UNL     1       3.833  40.502  46.591  1.00  0.00     0.084 A 
ATOM      5  C   UNL     1       4.784  41.154  45.807  1.00  0.00     0.022 A 
ATOM      6  C   UNL     1       3.879  40.574  47.988  1.00  0.00     0.047 A 
ATOM      7  C   UNL     1       5.773  41.901  46.436  1.00  0.00     0.004 A 
ATOM      8  C   UNL     1       5.810  41.986  47.833  1.00  0.00     0.026 A 
BRANCH   4   9
ATOM      9  S   UNL     1       2.563  39.551  45.803  1.00  0.00     0.238 S 
ATOM     10  O   UNL     1       3.037  39.141  44.503  1.00  0.00    -0.207 OA
ATOM     11  O   UNL     1       2.022  38.618  46.765  1.00  0.00    -0.207 OA
BRANCH   9  12
ATOM     12  N   UNL     1       1.366  40.714  45.577  1.00  0.00    -0.225 NA
ATOM     13  H   UNL     1       1.176  40.801  44.577  1.00  0.00     0.137 HD
ATOM     14  H   UNL     1       0.518  40.529  46.111  1.00  0.00     0.137 HD
ENDBRANCH   9  12
ENDBRANCH   4   9
ENDBRANCH   1   3
BRANCH   1  15
ATOM     15  C   UNL     1       4.371  42.309  50.963  1.00  0.00     0.232 A 
ATOM     16  N   UNL     1       5.041  43.452  51.226  1.00  0.00    -0.175 NA
ATOM     17  N   UNL     1       3.208  41.950  51.521  1.00  0.00    -0.191 NA
ATOM     18  C   UNL     1       4.536  44.329  52.113  1.00  0.00     0.245 A 
ATOM     19  C   UNL     1       2.716  42.837  52.399  1.00  0.00     0.186 A 
ATOM     20  C   UNL     1       3.343  44.022  52.710  1.00  0.00     0.148 A 
ATOM     21  N   UNL     1       1.544  42.710  53.096  1.00  0.00    -0.217 NA
ATOM     22  N   UNL     1       2.531  44.630  53.621  1.00  0.00    -0.339 N 
ATOM     23  C   UNL     1       1.459  43.804  53.823  1.00  0.00     0.199 A 
ATOM     24  H   UNL     1       2.696  45.525  54.061  1.00  0.00     0.168 HD
BRANCH  18  25
ATOM     25  O   UNL     1       5.169  45.518  52.402  1.00  0.00    -0.476 OA
BRANCH  25  26
ATOM     26  C   UNL     1       6.002  45.481  53.565  1.00  0.00     0.235 C 
BRANCH  26  27
ATOM     27  C   UNL     1       7.461  45.834  53.238  1.00  0.00     0.027 C 
ATOM     28  C   UNL     1       7.606  46.359  51.795  1.00  0.00     0.007 C 
ATOM     29  C   UNL     1       8.023  46.841  54.244  1.00  0.00     0.007 C 
ATOM     30  C   UNL     1       8.833  47.252  51.589  1.00  0.00     0.000 C 
ATOM     31  C   UNL     1       9.515  47.099  54.018  1.00  0.00     0.000 C 
ATOM     32  C   UNL     1       9.955  46.920  52.564  1.00  0.00     0.000 C 
ENDBRANCH  26  27
ENDBRANCH  25  26
ENDBRANCH  18  25
ENDBRANCH   1  15
TORSDOF 7
ENDMDL
MODEL 9
REMARK VINA RESULT:    -8.634      3.095      4.233
REMARK INTER + INTRA:         -12.786
REMARK INTER:                 -12.218
REMARK INTRA:                  -0.569
REMARK UNBOUND:                -0.871
REMARK SMILES NS(=O)(=O)c1cccc(Nc2nc(OCC3CCCCC3)c3[nH]cnc3n2)c1
REMARK SMILES IDX 10 1 9 3 5 4 6 5 28 6 7 7 8 8 2 9 3 10 4 11 1 12 11 15 12 16
REMARK SMILES IDX 27 17 13 18 26 19 22 20 25 21 23 22 24 23 14 25 15 26 16 27
REMARK SMILES IDX 17 28 21 29 18 30 20 31 19 32
REMARK H PARENT 10 2 1 13 1 14 23 24
ROOT
ATOM      1  N   UNL     1       1.336  45.283  56.752  1.00  0.00    -0.324 N 
ATOM      2  H   UNL     1       1.294  44.318  57.053  1.00  0.00     0.170 HD
ENDROOT
BRANCH   1   3
ATOM      3  C   UNL     1       0.680  46.228  57.545  1.00  0.00     0.042 A 
ATOM      4  C   UNL     1      -1.333  47.537  57.962  1.00  0.00     0.084 A 
ATOM      5  C   UNL     1      -0.768  48.101  59.104  1.00  0.00     0.022 A 
ATOM      6  C   UNL     1      -0.619  46.618  57.183  1.00  0.00     0.047 A 
ATOM      7  C   UNL     1       0.516  47.720  59.476  1.00  0.00     0.004 A 
ATOM      8  C   UNL     1       1.225  46.790  58.706  1.00  0.00     0.026 A 
BRANCH   4   9
ATOM      9  S   UNL     1      -2.971  48.009  57.480  1.00  0.00     0.238 S 
ATOM     10  O   UNL     1      -3.610  46.876  56.855  1.00  0.00    -0.207 OA
ATOM     11  O   UNL     1      -3.577  48.742  58.568  1.00  0.00    -0.207 OA
BRANCH   9  12
ATOM     12  N   UNL     1      -2.652  49.152  56.285  1.00  0.00    -0.225 NA
ATOM     13  H   UNL     1      -1.701  49.010  55.940  1.00  0.00     0.137 HD
ATOM     14  H   UNL     1      -3.336  49.146  55.529  1.00  0.00     0.137 HD
ENDBRANCH   9  12
ENDBRANCH   4   9
ENDBRANCH   1   3
BRANCH   1  15
ATOM     15  C   UNL     1       2.046  45.332  55.551  1.00  0.00     0.232 A 
ATOM     16  N   UNL     1       3.396  45.363  55.541  1.00  0.00    -0.175 NA
ATOM     17  N   UNL     1       1.266  45.325  54.463  1.00  0.00    -0.191 NA
ATOM     18  C   UNL     1       4.051  45.387  54.366  1.00  0.00     0.245 A 
ATOM     19  C   UNL     1       1.934  45.345  53.300  1.00  0.00     0.186 A 
ATOM     20  C   UNL     1       3.308  45.371  53.217  1.00  0.00     0.148 A 
ATOM     21  N   UNL     1       1.372  45.335  52.051  1.00  0.00    -0.217 NA
ATOM     22  N   UNL     1       3.587  45.378  51.883  1.00  0.00    -0.339 N 
ATOM     23  C   UNL     1       2.391  45.355  51.218  1.00  0.00     0.199 A 
ATOM     24  H   UNL     1       4.509  45.396  51.467  1.00  0.00     0.168 HD
BRANCH  18  25
ATOM     25  O   UNL     1       5.427  45.398  54.299  1.00  0.00    -0.476 OA
BRANCH  25  26
ATOM     26  C   UNL     1       5.992  46.639  53.864  1.00  0.00     0.235 C 
BRANCH  26  27
ATOM     27  C   UNL     1       7.438  46.470  53.370  1.00  0.00     0.027 C 
ATOM     28  C   UNL     1       7.596  46.946  51.912  1.00  0.00     0.007 C 
ATOM     29  C   UNL     1       8.422  47.195  54.291  1.00  0.00     0.007 C 
ATOM     30  C   UNL     1       9.027  47.361  51.556  1.00  0.00     0.000 C 
ATOM     31  C   UNL     1       9.876  46.923  53.896  1.00  0.00     0.000 C 
ATOM     32  C   UNL     1      10.062  46.636  52.405  1.00  0.00     0.000 C 
ENDBRANCH  26  27
ENDBRANCH  25  26
ENDBRANCH  18  25
ENDBRANCH   1  15
TORSDOF 7
ENDMDL
MODEL 10
REMARK VINA RESULT:    -8.420      2.370      4.662
REMARK INTER + INTRA:         -12.491
REMARK INTER:                 -11.772
REMARK INTRA:                  -0.718
REMARK UNBOUND:                -0.871
REMARK SMILES NS(=O)(=O)c1cccc(Nc2nc(OCC3CCCCC3)c3[nH]cnc3n2)c1
REMARK SMILES IDX 10 1 9 3 5 4 6 5 28 6 7 7 8 8 2 9 3 10 4 11 1 12 11 15 12 16
REMARK SMILES IDX 27 17 13 18 26 19 22 20 25 21 23 22 24 23 14 25 15 26 16 27
REMARK SMILES IDX 17 28 21 29 18 30 20 31 19 32
REMARK H PARENT 10 2 1 13 1 14 23 24
ROOT
ATOM      1  N   UNL     1       4.204  45.763  55.441  1.00  0.00    -0.324 N 
ATOM      2  H   UNL     1       4.509  45.876  56.399  1.00  0.00     0.170 HD
ENDROOT
BRANCH   1   3
ATOM      3  C   UNL     1       2.892  45.329  55.234  1.00  0.00     0.042 A 
ATOM      4  C   UNL     1       0.562  45.382  55.943  1.00  0.00     0.084 A 
ATOM      5  C   UNL     1       0.188  44.554  54.886  1.00  0.00     0.022 A 
ATOM      6  C   UNL     1       1.897  45.761  56.125  1.00  0.00     0.047 A 
ATOM      7  C   UNL     1       1.163  44.123  53.994  1.00  0.00     0.004 A 
ATOM      8  C   UNL     1       2.497  44.514  54.167  1.00  0.00     0.026 A 
BRANCH   4   9
ATOM      9  S   UNL     1      -0.672  45.943  57.083  1.00  0.00     0.238 S 
ATOM     10  O   UNL     1      -0.011  46.485  58.246  1.00  0.00    -0.207 OA
ATOM     11  O   UNL     1      -1.679  46.676  56.348  1.00  0.00    -0.207 OA
BRANCH   9  12
ATOM     12  N   UNL     1      -1.402  44.492  57.527  1.00  0.00    -0.225 NA
ATOM     13  H   UNL     1      -2.383  44.671  57.749  1.00  0.00     0.137 HD
ATOM     14  H   UNL     1      -1.299  43.758  56.828  1.00  0.00     0.137 HD
ENDBRANCH   9  12
ENDBRANCH   4   9
ENDBRANCH   1   3
BRANCH   1  15
ATOM     15  C   UNL     1       5.283  46.061  54.606  1.00  0.00     0.232 A 
ATOM     16  N   UNL     1       5.236  45.789  53.284  1.00  0.00    -0.175 NA
ATOM     17  N   UNL     1       6.311  46.640  55.238  1.00  0.00    -0.191 NA
ATOM     18  C   UNL     1       6.283  46.109  52.502  1.00  0.00     0.245 A 
ATOM     19  C   UNL     1       7.345  46.957  54.445  1.00  0.00     0.186 A 
ATOM     20  C   UNL     1       7.362  46.712  53.090  1.00  0.00     0.148 A 
ATOM     21  N   UNL     1       8.507  47.561  54.844  1.00  0.00    -0.217 NA
ATOM     22  N   UNL     1       8.566  47.180  52.655  1.00  0.00    -0.339 N 
ATOM     23  C   UNL     1       9.223  47.682  53.746  1.00  0.00     0.199 A 
ATOM     24  H   UNL     1       8.905  47.158  51.703  1.00  0.00     0.168 HD
BRANCH  18  25
ATOM     25  O   UNL     1       6.278  45.871  51.145  1.00  0.00    -0.476 OA
BRANCH  25  26
ATOM     26  C   UNL     1       5.046  45.350  50.637  1.00  0.00     0.235 C 
BRANCH  26  27
ATOM     27  C   UNL     1       5.199  43.908  50.127  1.00  0.00     0.027 C 
ATOM     28  C   UNL     1       6.655  43.603  49.721  1.00  0.00     0.007 C 
ATOM     29  C   UNL     1       4.699  42.901  51.165  1.00  0.00     0.007 C 
ATOM     30  C   UNL     1       7.006  42.113  49.775  1.00  0.00     0.000 C 
ATOM     31  C   UNL     1       4.714  41.470  50.621  1.00  0.00     0.000 C 
ATOM     32  C   UNL     1       5.787  41.229  49.558  1.00  0.00     0.000 C 
ENDBRANCH  26  27
ENDBRANCH  25  26
ENDBRANCH  18  25
ENDBRANCH   1  15
TORSDOF 7
ENDMDL
