MODEL 1
REMARK VINA RESULT:    -9.363      0.000      0.000
REMARK INTER + INTRA:         -14.440
REMARK INTER:                 -13.468
REMARK INTRA:                  -0.972
REMARK UNBOUND:                -0.972
REMARK SMILES NS(=O)(=O)Cc1cccc(Nc2nc(OCC3CCCCC3)c3[nH]cnc3n2)c1
REMARK SMILES IDX 6 1 7 2 8 3 9 4 10 5 29 6 5 7 2 8 3 9 4 10 1 11 11 14 12 16
REMARK SMILES IDX 13 17 28 18 14 19 27 20 23 21 26 22 24 23 25 24 15 26 16 27
REMARK SMILES IDX 17 28 18 29 22 30 19 31 21 32 20 33
REMARK H PARENT 1 12 1 13 11 15 24 25
ROOT
ATOM      1  C   UNL     1       1.293  45.481  53.272  1.00  0.00    -0.030 A 
ATOM      2  C   UNL     1       1.321  44.756  54.469  1.00  0.00     0.005 A 
ATOM      3  C   UNL     1       2.385  44.907  55.353  1.00  0.00     0.002 A 
ATOM      4  C   UNL     1       3.428  45.786  55.051  1.00  0.00     0.026 A 
ATOM      5  C   UNL     1       3.424  46.538  53.868  1.00  0.00     0.041 A 
ATOM      6  C   UNL     1       2.356  46.356  52.983  1.00  0.00     0.031 A 
ENDROOT
BRANCH   1   7
ATOM      7  C   UNL     1       0.150  45.335  52.304  1.00  0.00     0.189 C 
BRANCH   7   8
ATOM      8  S   UNL     1       0.220  43.746  51.460  1.00  0.00     0.213 S 
ATOM      9  O   UNL     1       1.477  43.651  50.751  1.00  0.00    -0.212 OA
ATOM     10  O   UNL     1      -0.224  42.685  52.336  1.00  0.00    -0.212 OA
BRANCH   8  11
ATOM     11  N   UNL     1      -0.943  43.872  50.263  1.00  0.00    -0.228 NA
ATOM     12  H   UNL     1      -0.775  44.693  49.682  1.00  0.00     0.137 HD
ATOM     13  H   UNL     1      -1.020  42.996  49.742  1.00  0.00     0.137 HD
ENDBRANCH   8  11
ENDBRANCH   7   8
ENDBRANCH   1   7
BRANCH   5  14
ATOM     14  N   UNL     1       4.516  47.374  53.602  1.00  0.00    -0.324 N 
ATOM     15  H   UNL     1       4.291  48.269  53.187  1.00  0.00     0.170 HD
BRANCH  14  16
ATOM     16  C   UNL     1       5.873  47.116  53.397  1.00  0.00     0.232 A 
ATOM     17  N   UNL     1       6.291  46.528  52.252  1.00  0.00    -0.175 NA
ATOM     18  N   UNL     1       6.659  47.459  54.425  1.00  0.00    -0.191 NA
ATOM     19  C   UNL     1       7.599  46.262  52.091  1.00  0.00     0.245 A 
ATOM     20  C   UNL     1       7.965  47.226  54.225  1.00  0.00     0.186 A 
ATOM     21  C   UNL     1       8.462  46.644  53.081  1.00  0.00     0.148 A 
ATOM     22  N   UNL     1       8.976  47.516  55.102  1.00  0.00    -0.217 NA
ATOM     23  N   UNL     1       9.812  46.583  53.267  1.00  0.00    -0.339 N 
ATOM     24  C   UNL     1      10.075  47.121  54.497  1.00  0.00     0.199 A 
ATOM     25  H   UNL     1      10.488  46.209  52.613  1.00  0.00     0.168 HD
BRANCH  19  26
ATOM     26  O   UNL     1       8.067  45.671  50.941  1.00  0.00    -0.476 OA
BRANCH  26  27
ATOM     27  C   UNL     1       7.019  45.192  50.091  1.00  0.00     0.235 C 
BRANCH  27  28
ATOM     28  C   UNL     1       6.530  43.799  50.519  1.00  0.00     0.027 C 
ATOM     29  C   UNL     1       6.832  42.775  49.415  1.00  0.00     0.007 C 
ATOM     30  C   UNL     1       5.034  43.805  50.869  1.00  0.00     0.007 C 
ATOM     31  C   UNL     1       6.312  41.382  49.761  1.00  0.00     0.000 C 
ATOM     32  C   UNL     1       4.533  42.407  51.226  1.00  0.00     0.000 C 
ATOM     33  C   UNL     1       4.830  41.403  50.118  1.00  0.00     0.000 C 
ENDBRANCH  27  28
ENDBRANCH  26  27
ENDBRANCH  19  26
ENDBRANCH  14  16
ENDBRANCH   5  14
TORSDOF 8
ENDMDL
MODEL 2
REMARK VINA RESULT:    -9.169      2.324      2.722
REMARK INTER + INTRA:         -14.161
REMARK INTER:                 -13.436
REMARK INTRA:                  -0.724
REMARK UNBOUND:                -0.972
REMARK SMILES NS(=O)(=O)Cc1cccc(Nc2nc(OCC3CCCCC3)c3[nH]cnc3n2)c1
REMARK SMILES IDX 6 1 7 2 8 3 9 4 10 5 29 6 5 7 2 8 3 9 4 10 1 11 11 14 12 16
REMARK SMILES IDX 13 17 28 18 14 19 27 20 23 21 26 22 24 23 25 24 15 26 16 27
REMARK SMILES IDX 17 28 18 29 22 30 19 31 21 32 20 33
REMARK H PARENT 1 12 1 13 11 15 24 25
ROOT
ATOM      1  C   UNL     1       1.420  45.063  54.833  1.00  0.00    -0.030 A 
ATOM      2  C   UNL     1       0.896  45.305  53.558  1.00  0.00     0.005 A 
ATOM      3  C   UNL     1       1.604  46.084  52.647  1.00  0.00     0.002 A 
ATOM      4  C   UNL     1       2.842  46.624  53.003  1.00  0.00     0.026 A 
ATOM      5  C   UNL     1       3.402  46.390  54.266  1.00  0.00     0.041 A 
ATOM      6  C   UNL     1       2.665  45.622  55.174  1.00  0.00     0.031 A 
ENDROOT
BRANCH   1   7
ATOM      7  C   UNL     1       0.671  44.220  55.831  1.00  0.00     0.189 C 
BRANCH   7   8
ATOM      8  S   UNL     1      -0.183  45.253  57.034  1.00  0.00     0.213 S 
ATOM      9  O   UNL     1      -1.246  44.480  57.638  1.00  0.00    -0.212 OA
ATOM     10  O   UNL     1       0.767  45.979  57.847  1.00  0.00    -0.212 OA
BRANCH   8  11
ATOM     11  N   UNL     1      -0.962  46.402  56.099  1.00  0.00    -0.228 NA
ATOM     12  H   UNL     1      -0.745  47.343  56.429  1.00  0.00     0.137 HD
ATOM     13  H   UNL     1      -0.771  46.249  55.107  1.00  0.00     0.137 HD
ENDBRANCH   8  11
ENDBRANCH   7   8
ENDBRANCH   1   7
BRANCH   5  14
ATOM     14  N   UNL     1       4.629  46.990  54.577  1.00  0.00    -0.324 N 
ATOM     15  H   UNL     1       4.571  47.887  55.042  1.00  0.00     0.170 HD
BRANCH  14  16
ATOM     16  C   UNL     1       5.911  46.845  54.046  1.00  0.00     0.232 A 
ATOM     17  N   UNL     1       6.084  46.306  52.816  1.00  0.00    -0.175 NA
ATOM     18  N   UNL     1       6.895  47.236  54.866  1.00  0.00    -0.191 NA
ATOM     19  C   UNL     1       7.331  46.148  52.338  1.00  0.00     0.245 A 
ATOM     20  C   UNL     1       8.127  47.111  54.351  1.00  0.00     0.186 A 
ATOM     21  C   UNL     1       8.376  46.585  53.104  1.00  0.00     0.148 A 
ATOM     22  N   UNL     1       9.296  47.470  54.970  1.00  0.00    -0.217 NA
ATOM     23  N   UNL     1       9.731  46.630  52.959  1.00  0.00    -0.339 N 
ATOM     24  C   UNL     1      10.243  47.172  54.106  1.00  0.00     0.199 A 
ATOM     25  H   UNL     1      10.255  46.320  52.151  1.00  0.00     0.168 HD
BRANCH  19  26
ATOM     26  O   UNL     1       7.550  45.610  51.091  1.00  0.00    -0.476 OA
BRANCH  26  27
ATOM     27  C   UNL     1       6.343  45.207  50.435  1.00  0.00     0.235 C 
BRANCH  27  28
ATOM     28  C   UNL     1       6.021  43.727  50.694  1.00  0.00     0.027 C 
ATOM     29  C   UNL     1       6.367  42.889  49.454  1.00  0.00     0.007 C 
ATOM     30  C   UNL     1       4.552  43.528  51.099  1.00  0.00     0.007 C 
ATOM     31  C   UNL     1       6.010  41.416  49.633  1.00  0.00     0.000 C 
ATOM     32  C   UNL     1       4.215  42.051  51.288  1.00  0.00     0.000 C 
ATOM     33  C   UNL     1       4.554  41.233  50.047  1.00  0.00     0.000 C 
ENDBRANCH  27  28
ENDBRANCH  26  27
ENDBRANCH  19  26
ENDBRANCH  14  16
ENDBRANCH   5  14
TORSDOF 8
ENDMDL
MODEL 3
REMARK VINA RESULT:    -8.909      3.281      5.552
REMARK INTER + INTRA:         -13.788
REMARK INTER:                 -12.943
REMARK INTRA:                  -0.844
REMARK UNBOUND:                -0.972
REMARK SMILES NS(=O)(=O)Cc1cccc(Nc2nc(OCC3CCCCC3)c3[nH]cnc3n2)c1
REMARK SMILES IDX 6 1 7 2 8 3 9 4 10 5 29 6 5 7 2 8 3 9 4 10 1 11 11 14 12 16
REMARK SMILES IDX 13 17 28 18 14 19 27 20 23 21 26 22 24 23 25 24 15 26 16 27
REMARK SMILES IDX 17 28 18 29 22 30 19 31 21 32 20 33
REMARK H PARENT 1 12 1 13 11 15 24 25
ROOT
ATOM      1  C   UNL     1      -0.774  44.145  54.376  1.00  0.00    -0.030 A 
ATOM      2  C   UNL     1      -1.661  43.766  53.363  1.00  0.00     0.005 A 
ATOM      3  C   UNL     1      -1.218  42.976  52.306  1.00  0.00     0.002 A 
ATOM      4  C   UNL     1       0.114  42.557  52.255  1.00  0.00     0.026 A 
ATOM      5  C   UNL     1       1.025  42.908  53.260  1.00  0.00     0.041 A 
ATOM      6  C   UNL     1       0.564  43.720  54.303  1.00  0.00     0.031 A 
ENDROOT
BRANCH   1   7
ATOM      7  C   UNL     1      -1.234  44.996  55.530  1.00  0.00     0.189 C 
BRANCH   7   8
ATOM      8  S   UNL     1      -2.609  44.218  56.395  1.00  0.00     0.213 S 
ATOM      9  O   UNL     1      -3.848  44.754  55.874  1.00  0.00    -0.212 OA
ATOM     10  O   UNL     1      -2.400  42.792  56.505  1.00  0.00    -0.212 OA
BRANCH   8  11
ATOM     11  N   UNL     1      -2.499  44.821  57.952  1.00  0.00    -0.228 NA
ATOM     12  H   UNL     1      -3.030  45.688  58.042  1.00  0.00     0.137 HD
ATOM     13  H   UNL     1      -2.748  44.103  58.635  1.00  0.00     0.137 HD
ENDBRANCH   8  11
ENDBRANCH   7   8
ENDBRANCH   1   7
BRANCH   5  14
ATOM     14  N   UNL     1       2.356  42.490  53.134  1.00  0.00    -0.324 N 
ATOM     15  H   UNL     1       2.739  42.003  53.934  1.00  0.00     0.170 HD
BRANCH  14  16
ATOM     16  C   UNL     1       3.411  42.932  52.334  1.00  0.00     0.232 A 
ATOM     17  N   UNL     1       3.805  44.226  52.377  1.00  0.00    -0.175 NA
ATOM     18  N   UNL     1       3.926  41.990  51.534  1.00  0.00    -0.191 NA
ATOM     19  C   UNL     1       4.803  44.635  51.574  1.00  0.00     0.245 A 
ATOM     20  C   UNL     1       4.950  42.408  50.775  1.00  0.00     0.186 A 
ATOM     21  C   UNL     1       5.412  43.705  50.776  1.00  0.00     0.148 A 
ATOM     22  N   UNL     1       5.669  41.637  49.900  1.00  0.00    -0.217 NA
ATOM     23  N   UNL     1       6.443  43.720  49.884  1.00  0.00    -0.339 N 
ATOM     24  C   UNL     1       6.562  42.453  49.382  1.00  0.00     0.199 A 
ATOM     25  H   UNL     1       7.010  44.522  49.641  1.00  0.00     0.168 HD
BRANCH  19  26
ATOM     26  O   UNL     1       5.238  45.939  51.590  1.00  0.00    -0.476 OA
BRANCH  26  27
ATOM     27  C   UNL     1       5.584  46.398  52.901  1.00  0.00     0.235 C 
BRANCH  27  28
ATOM     28  C   UNL     1       6.974  47.055  52.927  1.00  0.00     0.027 C 
ATOM     29  C   UNL     1       7.837  46.499  51.784  1.00  0.00     0.007 C 
ATOM     30  C   UNL     1       7.668  46.863  54.284  1.00  0.00     0.007 C 
ATOM     31  C   UNL     1       9.252  47.073  51.798  1.00  0.00     0.000 C 
ATOM     32  C   UNL     1       9.076  47.454  54.286  1.00  0.00     0.000 C 
ATOM     33  C   UNL     1       9.925  46.888  53.153  1.00  0.00     0.000 C 
ENDBRANCH  27  28
ENDBRANCH  26  27
ENDBRANCH  19  26
ENDBRANCH  14  16
ENDBRANCH   5  14
TORSDOF 8
ENDMDL
MODEL 4
REMARK VINA RESULT:    -8.905      2.794      5.081
REMARK INTER + INTRA:         -13.781
REMARK INTER:                 -12.907
REMARK INTRA:                  -0.873
REMARK UNBOUND:                -0.972
REMARK SMILES NS(=O)(=O)Cc1cccc(Nc2nc(OCC3CCCCC3)c3[nH]cnc3n2)c1
REMARK SMILES IDX 6 1 7 2 8 3 9 4 10 5 29 6 5 7 2 8 3 9 4 10 1 11 11 14 12 16
REMARK SMILES IDX 13 17 28 18 14 19 27 20 23 21 26 22 24 23 25 24 15 26 16 27
REMARK SMILES IDX 17 28 18 29 22 30 19 31 21 32 20 33
REMARK H PARENT 1 12 1 13 11 15 24 25
ROOT
ATOM      1  C   UNL     1      -1.316  43.139  52.768  1.00  0.00    -0.030 A 
ATOM      2  C   UNL     1      -1.495  43.995  53.860  1.00  0.00     0.005 A 
ATOM      3  C   UNL     1      -0.412  44.335  54.666  1.00  0.00     0.002 A 
ATOM      4  C   UNL     1       0.858  43.824  54.385  1.00  0.00     0.026 A 
ATOM      5  C   UNL     1       1.074  42.976  53.290  1.00  0.00     0.041 A 
ATOM      6  C   UNL     1      -0.031  42.630  52.505  1.00  0.00     0.031 A 
ENDROOT
BRANCH   1   7
ATOM      7  C   UNL     1      -2.473  42.763  51.882  1.00  0.00     0.189 C 
BRANCH   7   8
ATOM      8  S   UNL     1      -2.538  43.818  50.424  1.00  0.00     0.213 S 
ATOM      9  O   UNL     1      -3.806  43.614  49.758  1.00  0.00    -0.212 OA
ATOM     10  O   UNL     1      -2.065  45.147  50.736  1.00  0.00    -0.212 OA
BRANCH   8  11
ATOM     11  N   UNL     1      -1.398  43.154  49.393  1.00  0.00    -0.228 NA
ATOM     12  H   UNL     1      -1.792  43.011  48.463  1.00  0.00     0.137 HD
ATOM     13  H   UNL     1      -0.538  43.704  49.405  1.00  0.00     0.137 HD
ENDBRANCH   8  11
ENDBRANCH   7   8
ENDBRANCH   1   7
BRANCH   5  14
ATOM     14  N   UNL     1       2.362  42.466  53.082  1.00  0.00    -0.324 N 
ATOM     15  H   UNL     1       2.727  41.884  53.825  1.00  0.00     0.170 HD
BRANCH  14  16
ATOM     16  C   UNL     1       3.426  42.889  52.283  1.00  0.00     0.232 A 
ATOM     17  N   UNL     1       3.818  44.184  52.298  1.00  0.00    -0.175 NA
ATOM     18  N   UNL     1       3.951  41.928  51.512  1.00  0.00    -0.191 NA
ATOM     19  C   UNL     1       4.825  44.574  51.496  1.00  0.00     0.245 A 
ATOM     20  C   UNL     1       4.982  42.329  50.755  1.00  0.00     0.186 A 
ATOM     21  C   UNL     1       5.444  43.626  50.729  1.00  0.00     0.148 A 
ATOM     22  N   UNL     1       5.713  41.537  49.908  1.00  0.00    -0.217 NA
ATOM     23  N   UNL     1       6.484  43.620  49.849  1.00  0.00    -0.339 N 
ATOM     24  C   UNL     1       6.610  42.341  49.380  1.00  0.00     0.199 A 
ATOM     25  H   UNL     1       7.054  44.416  49.592  1.00  0.00     0.168 HD
BRANCH  19  26
ATOM     26  O   UNL     1       5.259  45.879  51.486  1.00  0.00    -0.476 OA
BRANCH  26  27
ATOM     27  C   UNL     1       5.532  46.390  52.795  1.00  0.00     0.235 C 
BRANCH  27  28
ATOM     28  C   UNL     1       6.916  47.054  52.870  1.00  0.00     0.027 C 
ATOM     29  C   UNL     1       7.794  46.569  51.706  1.00  0.00     0.007 C 
ATOM     30  C   UNL     1       7.599  46.792  54.221  1.00  0.00     0.007 C 
ATOM     31  C   UNL     1       9.204  47.151  51.765  1.00  0.00     0.000 C 
ATOM     32  C   UNL     1       9.003  47.392  54.268  1.00  0.00     0.000 C 
ATOM     33  C   UNL     1       9.867  46.896  53.114  1.00  0.00     0.000 C 
ENDBRANCH  27  28
ENDBRANCH  26  27
ENDBRANCH  19  26
ENDBRANCH  14  16
ENDBRANCH   5  14
TORSDOF 8
ENDMDL
MODEL 5
REMARK VINA RESULT:    -8.857      3.795      7.135
REMARK INTER + INTRA:         -13.712
REMARK INTER:                 -12.797
REMARK INTRA:                  -0.916
REMARK UNBOUND:                -0.972
REMARK SMILES NS(=O)(=O)Cc1cccc(Nc2nc(OCC3CCCCC3)c3[nH]cnc3n2)c1
REMARK SMILES IDX 6 1 7 2 8 3 9 4 10 5 29 6 5 7 2 8 3 9 4 10 1 11 11 14 12 16
REMARK SMILES IDX 13 17 28 18 14 19 27 20 23 21 26 22 24 23 25 24 15 26 16 27
REMARK SMILES IDX 17 28 18 29 22 30 19 31 21 32 20 33
REMARK H PARENT 1 12 1 13 11 15 24 25
ROOT
ATOM      1  C   UNL     1       3.659  40.422  46.161  1.00  0.00    -0.030 A 
ATOM      2  C   UNL     1       4.494  41.171  45.324  1.00  0.00     0.005 A 
ATOM      3  C   UNL     1       5.532  41.924  45.866  1.00  0.00     0.002 A 
ATOM      4  C   UNL     1       5.745  41.931  47.247  1.00  0.00     0.026 A 
ATOM      5  C   UNL     1       4.936  41.181  48.111  1.00  0.00     0.041 A 
ATOM      6  C   UNL     1       3.885  40.449  47.549  1.00  0.00     0.031 A 
ENDROOT
BRANCH   1   7
ATOM      7  C   UNL     1       2.533  39.599  45.594  1.00  0.00     0.189 C 
BRANCH   7   8
ATOM      8  S   UNL     1       1.204  40.654  44.991  1.00  0.00     0.213 S 
ATOM      9  O   UNL     1       1.112  41.820  45.842  1.00  0.00    -0.212 OA
ATOM     10  O   UNL     1       1.271  40.783  43.553  1.00  0.00    -0.212 OA
BRANCH   8  11
ATOM     11  N   UNL     1      -0.185  39.776  45.309  1.00  0.00    -0.228 NA
ATOM     12  H   UNL     1       0.044  38.810  45.543  1.00  0.00     0.137 HD
ATOM     13  H   UNL     1      -0.760  40.253  46.006  1.00  0.00     0.137 HD
ENDBRANCH   8  11
ENDBRANCH   7   8
ENDBRANCH   1   7
BRANCH   5  14
ATOM     14  N   UNL     1       5.175  41.259  49.489  1.00  0.00    -0.324 N 
ATOM     15  H   UNL     1       5.440  40.391  49.936  1.00  0.00     0.170 HD
BRANCH  14  16
ATOM     16  C   UNL     1       4.748  42.155  50.471  1.00  0.00     0.232 A 
ATOM     17  N   UNL     1       5.527  43.202  50.825  1.00  0.00    -0.175 NA
ATOM     18  N   UNL     1       3.565  41.847  51.019  1.00  0.00    -0.191 NA
ATOM     19  C   UNL     1       5.108  44.034  51.795  1.00  0.00     0.245 A 
ATOM     20  C   UNL     1       3.145  42.715  51.952  1.00  0.00     0.186 A 
ATOM     21  C   UNL     1       3.879  43.809  52.352  1.00  0.00     0.148 A 
ATOM     22  N   UNL     1       1.960  42.647  52.636  1.00  0.00    -0.217 NA
ATOM     23  N   UNL     1       3.117  44.424  53.301  1.00  0.00    -0.339 N 
ATOM     24  C   UNL     1       1.971  43.690  53.438  1.00  0.00     0.199 A 
ATOM     25  H   UNL     1       3.360  45.266  53.807  1.00  0.00     0.168 HD
BRANCH  19  26
ATOM     26  O   UNL     1       5.866  45.114  52.181  1.00  0.00    -0.476 OA
BRANCH  26  27
ATOM     27  C   UNL     1       6.522  45.759  51.085  1.00  0.00     0.235 C 
BRANCH  27  28
ATOM     28  C   UNL     1       7.736  46.580  51.551  1.00  0.00     0.027 C 
ATOM     29  C   UNL     1       9.007  45.720  51.486  1.00  0.00     0.007 C 
ATOM     30  C   UNL     1       7.528  47.149  52.963  1.00  0.00     0.007 C 
ATOM     31  C   UNL     1      10.236  46.467  51.996  1.00  0.00     0.000 C 
ATOM     32  C   UNL     1       8.762  47.905  53.453  1.00  0.00     0.000 C 
ATOM     33  C   UNL     1      10.014  47.038  53.392  1.00  0.00     0.000 C 
ENDBRANCH  27  28
ENDBRANCH  26  27
ENDBRANCH  19  26
ENDBRANCH  14  16
ENDBRANCH   5  14
TORSDOF 8
ENDMDL
MODEL 6
REMARK VINA RESULT:    -8.793      3.311      7.343
REMARK INTER + INTRA:         -13.620
REMARK INTER:                 -12.395
REMARK INTRA:                  -1.225
REMARK UNBOUND:                -0.972
REMARK SMILES NS(=O)(=O)Cc1cccc(Nc2nc(OCC3CCCCC3)c3[nH]cnc3n2)c1
REMARK SMILES IDX 6 1 7 2 8 3 9 4 10 5 29 6 5 7 2 8 3 9 4 10 1 11 11 14 12 16
REMARK SMILES IDX 13 17 28 18 14 19 27 20 23 21 26 22 24 23 25 24 15 26 16 27
REMARK SMILES IDX 17 28 18 29 22 30 19 31 21 32 20 33
REMARK H PARENT 1 12 1 13 11 15 24 25
ROOT
ATOM      1  C   UNL     1       8.053  46.570  51.656  1.00  0.00    -0.030 A 
ATOM      2  C   UNL     1       9.430  46.588  51.905  1.00  0.00     0.005 A 
ATOM      3  C   UNL     1      10.265  45.666  51.279  1.00  0.00     0.002 A 
ATOM      4  C   UNL     1       9.731  44.723  50.398  1.00  0.00     0.026 A 
ATOM      5  C   UNL     1       8.358  44.687  50.116  1.00  0.00     0.041 A 
ATOM      6  C   UNL     1       7.534  45.608  50.772  1.00  0.00     0.031 A 
ENDROOT
BRANCH   1   7
ATOM      7  C   UNL     1       7.134  47.560  52.320  1.00  0.00     0.189 C 
BRANCH   7   8
ATOM      8  S   UNL     1       6.584  46.954  53.924  1.00  0.00     0.213 S 
ATOM      9  O   UNL     1       5.490  47.781  54.384  1.00  0.00    -0.212 OA
ATOM     10  O   UNL     1       6.477  45.513  53.914  1.00  0.00    -0.212 OA
BRANCH   8  11
ATOM     11  N   UNL     1       7.857  47.314  54.950  1.00  0.00    -0.228 NA
ATOM     12  H   UNL     1       8.505  46.528  55.010  1.00  0.00     0.137 HD
ATOM     13  H   UNL     1       8.292  48.199  54.687  1.00  0.00     0.137 HD
ENDBRANCH   8  11
ENDBRANCH   7   8
ENDBRANCH   1   7
BRANCH   5  14
ATOM     14  N   UNL     1       7.877  43.694  49.254  1.00  0.00    -0.324 N 
ATOM     15  H   UNL     1       8.217  43.739  48.302  1.00  0.00     0.170 HD
BRANCH  14  16
ATOM     16  C   UNL     1       6.732  42.895  49.281  1.00  0.00     0.232 A 
ATOM     17  N   UNL     1       6.033  42.744  50.430  1.00  0.00    -0.175 NA
ATOM     18  N   UNL     1       6.450  42.298  48.117  1.00  0.00    -0.191 NA
ATOM     19  C   UNL     1       4.951  41.945  50.439  1.00  0.00     0.245 A 
ATOM     20  C   UNL     1       5.341  41.543  48.136  1.00  0.00     0.186 A 
ATOM     21  C   UNL     1       4.575  41.354  49.265  1.00  0.00     0.148 A 
ATOM     22  N   UNL     1       4.818  40.856  47.072  1.00  0.00    -0.217 NA
ATOM     23  N   UNL     1       3.556  40.536  48.874  1.00  0.00    -0.339 N 
ATOM     24  C   UNL     1       3.744  40.263  47.546  1.00  0.00     0.199 A 
ATOM     25  H   UNL     1       2.805  40.196  49.460  1.00  0.00     0.168 HD
BRANCH  19  26
ATOM     26  O   UNL     1       4.209  41.768  51.583  1.00  0.00    -0.476 OA
BRANCH  26  27
ATOM     27  C   UNL     1       3.045  42.600  51.631  1.00  0.00     0.235 C 
BRANCH  27  28
ATOM     28  C   UNL     1       3.377  44.017  52.127  1.00  0.00     0.027 C 
ATOM     29  C   UNL     1       2.433  44.406  53.274  1.00  0.00     0.007 C 
ATOM     30  C   UNL     1       3.312  45.046  50.988  1.00  0.00     0.007 C 
ATOM     31  C   UNL     1       2.678  45.830  53.766  1.00  0.00     0.000 C 
ATOM     32  C   UNL     1       3.573  46.463  51.494  1.00  0.00     0.000 C 
ATOM     33  C   UNL     1       2.624  46.841  52.626  1.00  0.00     0.000 C 
ENDBRANCH  27  28
ENDBRANCH  26  27
ENDBRANCH  19  26
ENDBRANCH  14  16
ENDBRANCH   5  14
TORSDOF 8
ENDMDL
MODEL 7
REMARK VINA RESULT:    -8.746      2.398      4.845
REMARK INTER + INTRA:         -13.553
REMARK INTER:                 -12.899
REMARK INTRA:                  -0.654
REMARK UNBOUND:                -0.972
REMARK SMILES NS(=O)(=O)Cc1cccc(Nc2nc(OCC3CCCCC3)c3[nH]cnc3n2)c1
REMARK SMILES IDX 6 1 7 2 8 3 9 4 10 5 29 6 5 7 2 8 3 9 4 10 1 11 11 14 12 16
REMARK SMILES IDX 13 17 28 18 14 19 27 20 23 21 26 22 24 23 25 24 15 26 16 27
REMARK SMILES IDX 17 28 18 29 22 30 19 31 21 32 20 33
REMARK H PARENT 1 12 1 13 11 15 24 25
ROOT
ATOM      1  C   UNL     1      -0.304  43.844  53.851  1.00  0.00    -0.030 A 
ATOM      2  C   UNL     1      -0.656  44.479  55.048  1.00  0.00     0.005 A 
ATOM      3  C   UNL     1       0.330  45.023  55.866  1.00  0.00     0.002 A 
ATOM      4  C   UNL     1       1.674  44.938  55.494  1.00  0.00     0.026 A 
ATOM      5  C   UNL     1       2.060  44.322  54.295  1.00  0.00     0.041 A 
ATOM      6  C   UNL     1       1.055  43.763  53.498  1.00  0.00     0.031 A 
ENDROOT
BRANCH   1   7
ATOM      7  C   UNL     1      -1.355  43.252  52.951  1.00  0.00     0.189 C 
BRANCH   7   8
ATOM      8  S   UNL     1      -1.785  44.394  51.626  1.00  0.00     0.213 S 
ATOM      9  O   UNL     1      -3.186  44.228  51.305  1.00  0.00    -0.212 OA
ATOM     10  O   UNL     1      -1.228  45.703  51.882  1.00  0.00    -0.212 OA
BRANCH   8  11
ATOM     11  N   UNL     1      -0.964  43.798  50.295  1.00  0.00    -0.228 NA
ATOM     12  H   UNL     1      -1.352  42.900  50.004  1.00  0.00     0.137 HD
ATOM     13  H   UNL     1      -0.923  44.499  49.554  1.00  0.00     0.137 HD
ENDBRANCH   8  11
ENDBRANCH   7   8
ENDBRANCH   1   7
BRANCH   5  14
ATOM     14  N   UNL     1       3.425  44.235  53.995  1.00  0.00    -0.324 N 
ATOM     15  H   UNL     1       4.031  44.836  54.538  1.00  0.00     0.170 HD
BRANCH  14  16
ATOM     16  C   UNL     1       4.114  43.817  52.856  1.00  0.00     0.232 A 
ATOM     17  N   UNL     1       5.133  44.559  52.364  1.00  0.00    -0.175 NA
ATOM     18  N   UNL     1       3.647  42.685  52.314  1.00  0.00    -0.191 NA
ATOM     19  C   UNL     1       5.762  44.152  51.247  1.00  0.00     0.245 A 
ATOM     20  C   UNL     1       4.317  42.273  51.228  1.00  0.00     0.186 A 
ATOM     21  C   UNL     1       5.371  42.970  50.680  1.00  0.00     0.148 A 
ATOM     22  N   UNL     1       4.062  41.134  50.510  1.00  0.00    -0.217 NA
ATOM     23  N   UNL     1       5.770  42.232  49.605  1.00  0.00    -0.339 N 
ATOM     24  C   UNL     1       4.954  41.135  49.543  1.00  0.00     0.199 A 
ATOM     25  H   UNL     1       6.528  42.457  48.975  1.00  0.00     0.168 HD
BRANCH  19  26
ATOM     26  O   UNL     1       6.807  44.873  50.717  1.00  0.00    -0.476 OA
BRANCH  26  27
ATOM     27  C   UNL     1       6.662  46.285  50.900  1.00  0.00     0.235 C 
BRANCH  27  28
ATOM     28  C   UNL     1       7.883  46.895  51.609  1.00  0.00     0.027 C 
ATOM     29  C   UNL     1       9.073  45.928  51.529  1.00  0.00     0.007 C 
ATOM     30  C   UNL     1       7.568  47.260  53.068  1.00  0.00     0.007 C 
ATOM     31  C   UNL     1      10.298  46.457  52.271  1.00  0.00     0.000 C 
ATOM     32  C   UNL     1       8.800  47.801  53.792  1.00  0.00     0.000 C 
ATOM     33  C   UNL     1       9.971  46.828  53.713  1.00  0.00     0.000 C 
ENDBRANCH  27  28
ENDBRANCH  26  27
ENDBRANCH  19  26
ENDBRANCH  14  16
ENDBRANCH   5  14
TORSDOF 8
ENDMDL
MODEL 8
REMARK VINA RESULT:    -8.684      3.260      6.259
REMARK INTER + INTRA:         -13.463
REMARK INTER:                 -13.063
REMARK INTRA:                  -0.401
REMARK UNBOUND:                -0.972
REMARK SMILES NS(=O)(=O)Cc1cccc(Nc2nc(OCC3CCCCC3)c3[nH]cnc3n2)c1
REMARK SMILES IDX 6 1 7 2 8 3 9 4 10 5 29 6 5 7 2 8 3 9 4 10 1 11 11 14 12 16
REMARK SMILES IDX 13 17 28 18 14 19 27 20 23 21 26 22 24 23 25 24 15 26 16 27
REMARK SMILES IDX 17 28 18 29 22 30 19 31 21 32 20 33
REMARK H PARENT 1 12 1 13 11 15 24 25
ROOT
ATOM      1  C   UNL     1       4.118  40.984  49.304  1.00  0.00    -0.030 A 
ATOM      2  C   UNL     1       5.451  41.407  49.335  1.00  0.00     0.005 A 
ATOM      3  C   UNL     1       5.836  42.444  50.181  1.00  0.00     0.002 A 
ATOM      4  C   UNL     1       4.891  43.065  51.002  1.00  0.00     0.026 A 
ATOM      5  C   UNL     1       3.550  42.656  51.006  1.00  0.00     0.041 A 
ATOM      6  C   UNL     1       3.181  41.626  50.134  1.00  0.00     0.031 A 
ENDROOT
BRANCH   1   7
ATOM      7  C   UNL     1       3.683  39.862  48.400  1.00  0.00     0.189 C 
BRANCH   7   8
ATOM      8  S   UNL     1       3.546  40.424  46.695  1.00  0.00     0.213 S 
ATOM      9  O   UNL     1       2.210  40.934  46.479  1.00  0.00    -0.212 OA
ATOM     10  O   UNL     1       4.709  41.196  46.319  1.00  0.00    -0.212 OA
BRANCH   8  11
ATOM     11  N   UNL     1       3.620  39.014  45.797  1.00  0.00    -0.228 NA
ATOM     12  H   UNL     1       4.223  39.135  44.983  1.00  0.00     0.137 HD
ATOM     13  H   UNL     1       3.870  38.221  46.391  1.00  0.00     0.137 HD
ENDBRANCH   8  11
ENDBRANCH   7   8
ENDBRANCH   1   7
BRANCH   5  14
ATOM     14  N   UNL     1       2.643  43.341  51.823  1.00  0.00    -0.324 N 
ATOM     15  H   UNL     1       1.799  43.663  51.367  1.00  0.00     0.170 HD
BRANCH  14  16
ATOM     16  C   UNL     1       2.796  44.041  53.021  1.00  0.00     0.232 A 
ATOM     17  N   UNL     1       4.031  44.364  53.470  1.00  0.00    -0.175 NA
ATOM     18  N   UNL     1       1.647  44.301  53.658  1.00  0.00    -0.191 NA
ATOM     19  C   UNL     1       4.155  45.012  54.642  1.00  0.00     0.245 A 
ATOM     20  C   UNL     1       1.791  44.986  54.801  1.00  0.00     0.186 A 
ATOM     21  C   UNL     1       3.014  45.359  55.311  1.00  0.00     0.148 A 
ATOM     22  N   UNL     1       0.775  45.405  55.620  1.00  0.00    -0.217 NA
ATOM     23  N   UNL     1       2.733  46.026  56.467  1.00  0.00    -0.339 N 
ATOM     24  C   UNL     1       1.373  46.030  56.612  1.00  0.00     0.199 A 
ATOM     25  H   UNL     1       3.409  46.439  57.097  1.00  0.00     0.168 HD
BRANCH  19  26
ATOM     26  O   UNL     1       5.391  45.364  55.131  1.00  0.00    -0.476 OA
BRANCH  26  27
ATOM     27  C   UNL     1       5.920  46.545  54.520  1.00  0.00     0.235 C 
BRANCH  27  28
ATOM     28  C   UNL     1       7.163  46.237  53.669  1.00  0.00     0.027 C 
ATOM     29  C   UNL     1       8.331  47.135  54.103  1.00  0.00     0.007 C 
ATOM     30  C   UNL     1       6.876  46.396  52.167  1.00  0.00     0.007 C 
ATOM     31  C   UNL     1       9.577  46.915  53.249  1.00  0.00     0.000 C 
ATOM     32  C   UNL     1       8.129  46.160  51.326  1.00  0.00     0.000 C 
ATOM     33  C   UNL     1       9.278  47.063  51.761  1.00  0.00     0.000 C 
ENDBRANCH  27  28
ENDBRANCH  26  27
ENDBRANCH  19  26
ENDBRANCH  14  16
ENDBRANCH   5  14
TORSDOF 8
ENDMDL
MODEL 9
REMARK VINA RESULT:    -8.437      2.609      7.789
REMARK INTER + INTRA:         -13.107
REMARK INTER:                 -11.949
REMARK INTRA:                  -1.158
REMARK UNBOUND:                -0.972
REMARK SMILES NS(=O)(=O)Cc1cccc(Nc2nc(OCC3CCCCC3)c3[nH]cnc3n2)c1
REMARK SMILES IDX 6 1 7 2 8 3 9 4 10 5 29 6 5 7 2 8 3 9 4 10 1 11 11 14 12 16
REMARK SMILES IDX 13 17 28 18 14 19 27 20 23 21 26 22 24 23 25 24 15 26 16 27
REMARK SMILES IDX 17 28 18 29 22 30 19 31 21 32 20 33
REMARK H PARENT 1 12 1 13 11 15 24 25
ROOT
ATOM      1  C   UNL     1       6.737  45.144  50.634  1.00  0.00    -0.030 A 
ATOM      2  C   UNL     1       7.681  44.551  49.790  1.00  0.00     0.005 A 
ATOM      3  C   UNL     1       7.495  43.246  49.340  1.00  0.00     0.002 A 
ATOM      4  C   UNL     1       6.362  42.527  49.729  1.00  0.00     0.026 A 
ATOM      5  C   UNL     1       5.390  43.096  50.563  1.00  0.00     0.041 A 
ATOM      6  C   UNL     1       5.607  44.401  51.020  1.00  0.00     0.031 A 
ENDROOT
BRANCH   1   7
ATOM      7  C   UNL     1       6.918  46.555  51.128  1.00  0.00     0.189 C 
BRANCH   7   8
ATOM      8  S   UNL     1       8.207  46.637  52.383  1.00  0.00     0.213 S 
ATOM      9  O   UNL     1       7.870  45.729  53.457  1.00  0.00    -0.212 OA
ATOM     10  O   UNL     1       9.516  46.614  51.770  1.00  0.00    -0.212 OA
BRANCH   8  11
ATOM     11  N   UNL     1       8.035  48.167  53.040  1.00  0.00    -0.228 NA
ATOM     12  H   UNL     1       7.095  48.294  53.417  1.00  0.00     0.137 HD
ATOM     13  H   UNL     1       8.785  48.359  53.706  1.00  0.00     0.137 HD
ENDBRANCH   8  11
ENDBRANCH   7   8
ENDBRANCH   1   7
BRANCH   5  14
ATOM     14  N   UNL     1       4.295  42.313  50.949  1.00  0.00    -0.324 N 
ATOM     15  H   UNL     1       4.262  41.383  50.551  1.00  0.00     0.170 HD
BRANCH  14  16
ATOM     16  C   UNL     1       3.026  42.638  51.431  1.00  0.00     0.232 A 
ATOM     17  N   UNL     1       2.841  42.897  52.746  1.00  0.00    -0.175 NA
ATOM     18  N   UNL     1       2.063  42.621  50.501  1.00  0.00    -0.191 NA
ATOM     19  C   UNL     1       1.604  43.177  53.193  1.00  0.00     0.245 A 
ATOM     20  C   UNL     1       0.846  42.948  50.959  1.00  0.00     0.186 A 
ATOM     21  C   UNL     1       0.587  43.236  52.281  1.00  0.00     0.148 A 
ATOM     22  N   UNL     1      -0.297  43.038  50.209  1.00  0.00    -0.217 NA
ATOM     23  N   UNL     1      -0.747  43.513  52.333  1.00  0.00    -0.339 N 
ATOM     24  C   UNL     1      -1.238  43.382  51.062  1.00  0.00     0.199 A 
ATOM     25  H   UNL     1      -1.272  43.766  53.160  1.00  0.00     0.168 HD
BRANCH  19  26
ATOM     26  O   UNL     1       1.374  43.452  54.520  1.00  0.00    -0.476 OA
BRANCH  26  27
ATOM     27  C   UNL     1       1.483  44.845  54.832  1.00  0.00     0.235 C 
BRANCH  27  28
ATOM     28  C   UNL     1       2.697  45.489  54.143  1.00  0.00     0.027 C 
ATOM     29  C   UNL     1       3.590  46.174  55.188  1.00  0.00     0.007 C 
ATOM     30  C   UNL     1       2.269  46.481  53.050  1.00  0.00     0.007 C 
ATOM     31  C   UNL     1       4.782  46.885  54.552  1.00  0.00     0.000 C 
ATOM     32  C   UNL     1       3.473  47.173  52.415  1.00  0.00     0.000 C 
ATOM     33  C   UNL     1       4.346  47.857  53.461  1.00  0.00     0.000 C 
ENDBRANCH  27  28
ENDBRANCH  26  27
ENDBRANCH  19  26
ENDBRANCH  14  16
ENDBRANCH   5  14
TORSDOF 8
ENDMDL
MODEL 10
REMARK VINA RESULT:    -8.349      3.329      5.507
REMARK INTER + INTRA:         -12.981
REMARK INTER:                 -12.596
REMARK INTRA:                  -0.386
REMARK UNBOUND:                -0.972
REMARK SMILES NS(=O)(=O)Cc1cccc(Nc2nc(OCC3CCCCC3)c3[nH]cnc3n2)c1
REMARK SMILES IDX 6 1 7 2 8 3 9 4 10 5 29 6 5 7 2 8 3 9 4 10 1 11 11 14 12 16
REMARK SMILES IDX 13 17 28 18 14 19 27 20 23 21 26 22 24 23 25 24 15 26 16 27
REMARK SMILES IDX 17 28 18 29 22 30 19 31 21 32 20 33
REMARK H PARENT 1 12 1 13 11 15 24 25
ROOT
ATOM      1  C   UNL     1      -0.187  44.908  56.189  1.00  0.00    -0.030 A 
ATOM      2  C   UNL     1       0.862  45.504  56.898  1.00  0.00     0.005 A 
ATOM      3  C   UNL     1       2.120  45.626  56.314  1.00  0.00     0.002 A 
ATOM      4  C   UNL     1       2.338  45.155  55.017  1.00  0.00     0.026 A 
ATOM      5  C   UNL     1       1.306  44.565  54.274  1.00  0.00     0.041 A 
ATOM      6  C   UNL     1       0.055  44.434  54.887  1.00  0.00     0.031 A 
ENDROOT
BRANCH   1   7
ATOM      7  C   UNL     1      -1.555  44.770  56.800  1.00  0.00     0.189 C 
BRANCH   7   8
ATOM      8  S   UNL     1      -2.404  46.358  56.844  1.00  0.00     0.213 S 
ATOM      9  O   UNL     1      -3.617  46.216  57.619  1.00  0.00    -0.212 OA
ATOM     10  O   UNL     1      -1.469  47.427  57.111  1.00  0.00    -0.212 OA
BRANCH   8  11
ATOM     11  N   UNL     1      -2.922  46.583  55.269  1.00  0.00    -0.228 NA
ATOM     12  H   UNL     1      -2.327  46.072  54.617  1.00  0.00     0.137 HD
ATOM     13  H   UNL     1      -3.918  46.371  55.184  1.00  0.00     0.137 HD
ENDBRANCH   8  11
ENDBRANCH   7   8
ENDBRANCH   1   7
BRANCH   5  14
ATOM     14  N   UNL     1       1.596  44.078  52.993  1.00  0.00    -0.324 N 
ATOM     15  H   UNL     1       0.879  43.502  52.572  1.00  0.00     0.170 HD
BRANCH  14  16
ATOM     16  C   UNL     1       2.798  43.858  52.318  1.00  0.00     0.232 A 
ATOM     17  N   UNL     1       3.671  44.875  52.130  1.00  0.00    -0.175 NA
ATOM     18  N   UNL     1       2.955  42.607  51.867  1.00  0.00    -0.191 NA
ATOM     19  C   UNL     1       4.809  44.646  51.450  1.00  0.00     0.245 A 
ATOM     20  C   UNL     1       4.116  42.390  51.231  1.00  0.00     0.186 A 
ATOM     21  C   UNL     1       5.056  43.373  51.015  1.00  0.00     0.148 A 
ATOM     22  N   UNL     1       4.533  41.195  50.707  1.00  0.00    -0.217 NA
ATOM     23  N   UNL     1       6.073  42.758  50.347  1.00  0.00    -0.339 N 
ATOM     24  C   UNL     1       5.715  41.447  50.185  1.00  0.00     0.199 A 
ATOM     25  H   UNL     1       6.930  43.193  50.032  1.00  0.00     0.168 HD
BRANCH  19  26
ATOM     26  O   UNL     1       5.725  45.650  51.242  1.00  0.00    -0.476 OA
BRANCH  26  27
ATOM     27  C   UNL     1       5.753  46.612  52.301  1.00  0.00     0.235 C 
BRANCH  27  28
ATOM     28  C   UNL     1       7.175  47.140  52.554  1.00  0.00     0.027 C 
ATOM     29  C   UNL     1       8.185  46.352  51.705  1.00  0.00     0.007 C 
ATOM     30  C   UNL     1       7.546  47.082  54.044  1.00  0.00     0.007 C 
ATOM     31  C   UNL     1       9.623  46.794  51.962  1.00  0.00     0.000 C 
ATOM     32  C   UNL     1       8.983  47.540  54.285  1.00  0.00     0.000 C 
ATOM     33  C   UNL     1       9.976  46.745  53.444  1.00  0.00     0.000 C 
ENDBRANCH  27  28
ENDBRANCH  26  27
ENDBRANCH  19  26
ENDBRANCH  14  16
ENDBRANCH   5  14
TORSDOF 8
ENDMDL
