MODEL 1
REMARK VINA RESULT:    -9.741      0.000      0.000
REMARK INTER + INTRA:         -12.791
REMARK INTER:                 -12.589
REMARK INTRA:                  -0.202
REMARK UNBOUND:                -0.202
REMARK SMILES Cc1cc(N2CCOCC2)ccc1Nc1nc(OC2CCCCC2)c2[nH]cnc2n1
REMARK SMILES IDX 15 1 16 2 17 3 25 4 26 5 27 6 28 7 29 8 30 9 14 11 13 13
REMARK SMILES IDX 2 14 3 15 4 16 12 17 11 18 1 19 5 20 6 21 10 22 7 23 9 24
REMARK SMILES IDX 8 25 18 26 19 27 20 28 24 29 21 30 23 31 22 32
REMARK H PARENT 26 10 14 12
ROOT
ATOM      1  C   UNL     1       6.021  46.991  53.941  1.00  0.00     0.232 A 
ATOM      2  N   UNL     1       6.336  46.404  52.767  1.00  0.00    -0.175 NA
ATOM      3  C   UNL     1       7.629  46.222  52.441  1.00  0.00     0.245 A 
ATOM      4  C   UNL     1       8.579  46.645  53.331  1.00  0.00     0.148 A 
ATOM      5  N   UNL     1       9.942  46.646  53.361  1.00  0.00    -0.339 N 
ATOM      6  C   UNL     1      10.319  47.219  54.547  1.00  0.00     0.199 A 
ATOM      7  N   UNL     1       9.279  47.586  55.264  1.00  0.00    -0.217 NA
ATOM      8  C   UNL     1       8.188  47.234  54.511  1.00  0.00     0.186 A 
ATOM      9  N   UNL     1       6.906  47.428  54.849  1.00  0.00    -0.191 NA
ATOM     10  H   UNL     1      10.555  46.290  52.641  1.00  0.00     0.168 HD
ENDROOT
BRANCH   1  11
ATOM     11  N   UNL     1       4.692  47.234  54.288  1.00  0.00    -0.324 N 
ATOM     12  H   UNL     1       4.643  48.141  54.729  1.00  0.00     0.170 HD
BRANCH  11  13
ATOM     13  C   UNL     1       3.529  46.453  54.329  1.00  0.00     0.044 A 
ATOM     14  C   UNL     1       2.713  46.347  53.184  1.00  0.00    -0.025 A 
ATOM     15  C   UNL     1       1.557  45.538  53.215  1.00  0.00     0.031 A 
ATOM     16  C   UNL     1       1.181  44.802  54.347  1.00  0.00     0.037 A 
ATOM     17  C   UNL     1       3.166  45.700  55.449  1.00  0.00     0.028 A 
ATOM     18  C   UNL     1       2.013  44.899  55.464  1.00  0.00     0.028 A 
ATOM     19  C   UNL     1       3.027  47.094  51.915  1.00  0.00     0.046 C 
BRANCH  16  20
ATOM     20  N   UNL     1       0.023  44.016  54.301  1.00  0.00    -0.367 N 
ATOM     21  C   UNL     1       0.126  42.569  54.019  1.00  0.00     0.145 C 
ATOM     22  C   UNL     1      -1.097  44.686  53.592  1.00  0.00     0.145 C 
ATOM     23  C   UNL     1      -0.345  42.261  52.591  1.00  0.00     0.181 C 
ATOM     24  C   UNL     1      -2.187  43.669  53.213  1.00  0.00     0.181 C 
ATOM     25  O   UNL     1      -1.715  42.627  52.345  1.00  0.00    -0.378 OA
ENDBRANCH  16  20
ENDBRANCH  11  13
ENDBRANCH   1  11
BRANCH   3  26
ATOM     26  O   UNL     1       8.008  45.652  51.246  1.00  0.00    -0.473 OA
BRANCH  26  27
ATOM     27  C   UNL     1       6.925  45.162  50.436  1.00  0.00     0.175 C 
ATOM     28  C   UNL     1       7.456  44.443  49.180  1.00  0.00     0.045 C 
ATOM     29  C   UNL     1       6.105  44.226  51.342  1.00  0.00     0.045 C 
ATOM     30  C   UNL     1       7.598  42.939  49.391  1.00  0.00     0.004 C 
ATOM     31  C   UNL     1       5.325  43.198  50.534  1.00  0.00     0.004 C 
ATOM     32  C   UNL     1       6.258  42.286  49.739  1.00  0.00     0.000 C 
ENDBRANCH  26  27
ENDBRANCH   3  26
TORSDOF 5
ENDMDL
MODEL 2
REMARK VINA RESULT:    -9.562      3.135      5.303
REMARK INTER + INTRA:         -12.560
REMARK INTER:                 -11.869
REMARK INTRA:                  -0.691
REMARK UNBOUND:                -0.202
REMARK SMILES Cc1cc(N2CCOCC2)ccc1Nc1nc(OC2CCCCC2)c2[nH]cnc2n1
REMARK SMILES IDX 15 1 16 2 17 3 25 4 26 5 27 6 28 7 29 8 30 9 14 11 13 13
REMARK SMILES IDX 2 14 3 15 4 16 12 17 11 18 1 19 5 20 6 21 10 22 7 23 9 24
REMARK SMILES IDX 8 25 18 26 19 27 20 28 24 29 21 30 23 31 22 32
REMARK H PARENT 26 10 14 12
ROOT
ATOM      1  C   UNL     1       3.041  43.645  51.888  1.00  0.00     0.232 A 
ATOM      2  N   UNL     1       3.828  44.738  51.787  1.00  0.00    -0.175 NA
ATOM      3  C   UNL     1       5.033  44.635  51.198  1.00  0.00     0.245 A 
ATOM      4  C   UNL     1       5.409  43.410  50.718  1.00  0.00     0.148 A 
ATOM      5  N   UNL     1       6.513  42.915  50.088  1.00  0.00    -0.339 N 
ATOM      6  C   UNL     1       6.286  41.584  49.860  1.00  0.00     0.199 A 
ATOM      7  N   UNL     1       5.109  41.206  50.312  1.00  0.00    -0.217 NA
ATOM      8  C   UNL     1       4.556  42.338  50.853  1.00  0.00     0.186 A 
ATOM      9  N   UNL     1       3.356  42.421  51.443  1.00  0.00    -0.191 NA
ATOM     10  H   UNL     1       7.341  43.438  49.838  1.00  0.00     0.168 HD
ENDROOT
BRANCH   1  11
ATOM     11  N   UNL     1       1.805  43.708  52.534  1.00  0.00    -0.324 N 
ATOM     12  H   UNL     1       1.096  43.396  51.887  1.00  0.00     0.170 HD
BRANCH  11  13
ATOM     13  C   UNL     1       1.355  44.265  53.739  1.00  0.00     0.044 A 
ATOM     14  C   UNL     1      -0.015  44.213  54.069  1.00  0.00    -0.025 A 
ATOM     15  C   UNL     1      -0.465  44.748  55.295  1.00  0.00     0.031 A 
ATOM     16  C   UNL     1       0.404  45.326  56.231  1.00  0.00     0.037 A 
ATOM     17  C   UNL     1       2.223  44.820  54.684  1.00  0.00     0.028 A 
ATOM     18  C   UNL     1       1.760  45.348  55.899  1.00  0.00     0.028 A 
ATOM     19  C   UNL     1      -1.032  43.611  53.136  1.00  0.00     0.046 C 
BRANCH  16  20
ATOM     20  N   UNL     1      -0.116  45.831  57.428  1.00  0.00    -0.367 N 
ATOM     21  C   UNL     1      -1.535  46.240  57.501  1.00  0.00     0.145 C 
ATOM     22  C   UNL     1       0.813  46.770  58.108  1.00  0.00     0.145 C 
ATOM     23  C   UNL     1      -1.657  47.769  57.516  1.00  0.00     0.181 C 
ATOM     24  C   UNL     1       0.071  47.593  59.174  1.00  0.00     0.181 C 
ATOM     25  O   UNL     1      -0.998  48.388  58.636  1.00  0.00    -0.378 OA
ENDBRANCH  16  20
ENDBRANCH  11  13
ENDBRANCH   1  11
BRANCH   3  26
ATOM     26  O   UNL     1       5.888  45.710  51.089  1.00  0.00    -0.473 OA
BRANCH  26  27
ATOM     27  C   UNL     1       7.056  45.643  51.926  1.00  0.00     0.175 C 
ATOM     28  C   UNL     1       8.263  46.319  51.243  1.00  0.00     0.045 C 
ATOM     29  C   UNL     1       6.674  46.330  53.249  1.00  0.00     0.045 C 
ATOM     30  C   UNL     1       8.410  47.782  51.647  1.00  0.00     0.004 C 
ATOM     31  C   UNL     1       7.895  46.869  53.980  1.00  0.00     0.004 C 
ATOM     32  C   UNL     1       8.613  47.937  53.157  1.00  0.00     0.000 C 
ENDBRANCH  26  27
ENDBRANCH   3  26
TORSDOF 5
ENDMDL
MODEL 3
REMARK VINA RESULT:    -9.453      4.426      7.992
REMARK INTER + INTRA:         -12.419
REMARK INTER:                 -11.487
REMARK INTRA:                  -0.932
REMARK UNBOUND:                -0.202
REMARK SMILES Cc1cc(N2CCOCC2)ccc1Nc1nc(OC2CCCCC2)c2[nH]cnc2n1
REMARK SMILES IDX 15 1 16 2 17 3 25 4 26 5 27 6 28 7 29 8 30 9 14 11 13 13
REMARK SMILES IDX 2 14 3 15 4 16 12 17 11 18 1 19 5 20 6 21 10 22 7 23 9 24
REMARK SMILES IDX 8 25 18 26 19 27 20 28 24 29 21 30 23 31 22 32
REMARK H PARENT 26 10 14 12
ROOT
ATOM      1  C   UNL     1       4.552  42.605  51.291  1.00  0.00     0.232 A 
ATOM      2  N   UNL     1       5.245  43.745  51.495  1.00  0.00    -0.175 NA
ATOM      3  C   UNL     1       4.751  44.683  52.324  1.00  0.00     0.245 A 
ATOM      4  C   UNL     1       3.551  44.431  52.933  1.00  0.00     0.148 A 
ATOM      5  N   UNL     1       2.746  45.108  53.801  1.00  0.00    -0.339 N 
ATOM      6  C   UNL     1       1.657  44.315  54.046  1.00  0.00     0.199 A 
ATOM      7  N   UNL     1       1.721  43.181  53.381  1.00  0.00    -0.217 NA
ATOM      8  C   UNL     1       2.899  43.246  52.681  1.00  0.00     0.186 A 
ATOM      9  N   UNL     1       3.373  42.305  51.854  1.00  0.00    -0.191 NA
ATOM     10  H   UNL     1       2.925  46.025  54.188  1.00  0.00     0.168 HD
ENDROOT
BRANCH   1  11
ATOM     11  N   UNL     1       5.015  41.633  50.403  1.00  0.00    -0.324 N 
ATOM     12  H   UNL     1       5.776  41.139  50.845  1.00  0.00     0.170 HD
BRANCH  11  13
ATOM     13  C   UNL     1       4.790  41.355  49.048  1.00  0.00     0.044 A 
ATOM     14  C   UNL     1       5.664  41.873  48.069  1.00  0.00    -0.025 A 
ATOM     15  C   UNL     1       5.455  41.571  46.707  1.00  0.00     0.031 A 
ATOM     16  C   UNL     1       4.409  40.748  46.268  1.00  0.00     0.037 A 
ATOM     17  C   UNL     1       3.762  40.515  48.610  1.00  0.00     0.028 A 
ATOM     18  C   UNL     1       3.567  40.224  47.251  1.00  0.00     0.028 A 
ATOM     19  C   UNL     1       6.821  42.766  48.433  1.00  0.00     0.046 C 
BRANCH  16  20
ATOM     20  N   UNL     1       4.269  40.489  44.900  1.00  0.00    -0.367 N 
ATOM     21  C   UNL     1       3.520  39.297  44.448  1.00  0.00     0.145 C 
ATOM     22  C   UNL     1       5.520  40.734  44.137  1.00  0.00     0.145 C 
ATOM     23  C   UNL     1       4.481  38.218  43.930  1.00  0.00     0.181 C 
ATOM     24  C   UNL     1       5.451  40.071  42.752  1.00  0.00     0.181 C 
ATOM     25  O   UNL     1       5.277  38.646  42.810  1.00  0.00    -0.378 OA
ENDBRANCH  16  20
ENDBRANCH  11  13
ENDBRANCH   1  11
BRANCH   3  26
ATOM     26  O   UNL     1       5.402  45.876  52.550  1.00  0.00    -0.473 OA
BRANCH  26  27
ATOM     27  C   UNL     1       6.824  45.764  52.736  1.00  0.00     0.175 C 
ATOM     28  C   UNL     1       7.586  46.487  51.607  1.00  0.00     0.045 C 
ATOM     29  C   UNL     1       7.122  46.367  54.121  1.00  0.00     0.045 C 
ATOM     30  C   UNL     1       7.940  47.924  51.976  1.00  0.00     0.004 C 
ATOM     31  C   UNL     1       8.556  46.867  54.223  1.00  0.00     0.004 C 
ATOM     32  C   UNL     1       8.830  47.988  53.220  1.00  0.00     0.000 C 
ENDBRANCH  26  27
ENDBRANCH   3  26
TORSDOF 5
ENDMDL
MODEL 4
REMARK VINA RESULT:    -9.378      0.801      1.445
REMARK INTER + INTRA:         -12.321
REMARK INTER:                 -12.572
REMARK INTRA:                   0.251
REMARK UNBOUND:                -0.202
REMARK SMILES Cc1cc(N2CCOCC2)ccc1Nc1nc(OC2CCCCC2)c2[nH]cnc2n1
REMARK SMILES IDX 15 1 16 2 17 3 25 4 26 5 27 6 28 7 29 8 30 9 14 11 13 13
REMARK SMILES IDX 2 14 3 15 4 16 12 17 11 18 1 19 5 20 6 21 10 22 7 23 9 24
REMARK SMILES IDX 8 25 18 26 19 27 20 28 24 29 21 30 23 31 22 32
REMARK H PARENT 26 10 14 12
ROOT
ATOM      1  C   UNL     1       6.084  47.125  53.378  1.00  0.00     0.232 A 
ATOM      2  N   UNL     1       6.537  46.549  52.244  1.00  0.00    -0.175 NA
ATOM      3  C   UNL     1       7.856  46.328  52.093  1.00  0.00     0.245 A 
ATOM      4  C   UNL     1       8.689  46.702  53.113  1.00  0.00     0.148 A 
ATOM      5  N   UNL     1      10.034  46.655  53.329  1.00  0.00    -0.339 N 
ATOM      6  C   UNL     1      10.264  47.193  54.567  1.00  0.00     0.199 A 
ATOM      7  N   UNL     1       9.147  47.582  55.145  1.00  0.00    -0.217 NA
ATOM      8  C   UNL     1       8.159  47.282  54.242  1.00  0.00     0.186 A 
ATOM      9  N   UNL     1       6.849  47.515  54.407  1.00  0.00    -0.191 NA
ATOM     10  H   UNL     1      10.728  46.291  52.691  1.00  0.00     0.168 HD
ENDROOT
BRANCH   1  11
ATOM     11  N   UNL     1       4.728  47.408  53.546  1.00  0.00    -0.324 N 
ATOM     12  H   UNL     1       4.648  48.307  54.000  1.00  0.00     0.170 HD
BRANCH  11  13
ATOM     13  C   UNL     1       3.546  46.667  53.408  1.00  0.00     0.044 A 
ATOM     14  C   UNL     1       3.114  45.830  54.458  1.00  0.00    -0.025 A 
ATOM     15  C   UNL     1       1.910  45.105  54.332  1.00  0.00     0.031 A 
ATOM     16  C   UNL     1       1.093  45.192  53.196  1.00  0.00     0.037 A 
ATOM     17  C   UNL     1       2.718  46.771  52.287  1.00  0.00     0.028 A 
ATOM     18  C   UNL     1       1.523  46.044  52.176  1.00  0.00     0.028 A 
ATOM     19  C   UNL     1       3.916  45.667  55.722  1.00  0.00     0.046 C 
BRANCH  16  20
ATOM     20  N   UNL     1      -0.091  44.447  53.145  1.00  0.00    -0.367 N 
ATOM     21  C   UNL     1      -0.340  43.389  54.147  1.00  0.00     0.145 C 
ATOM     22  C   UNL     1      -0.469  44.062  51.761  1.00  0.00     0.145 C 
ATOM     23  C   UNL     1      -0.159  42.000  53.522  1.00  0.00     0.181 C 
ATOM     24  C   UNL     1      -1.516  42.936  51.776  1.00  0.00     0.181 C 
ATOM     25  O   UNL     1      -1.056  41.740  52.426  1.00  0.00    -0.378 OA
ENDBRANCH  16  20
ENDBRANCH  11  13
ENDBRANCH   1  11
BRANCH   3  26
ATOM     26  O   UNL     1       8.377  45.767  50.948  1.00  0.00    -0.473 OA
BRANCH  26  27
ATOM     27  C   UNL     1       7.401  45.243  50.031  1.00  0.00     0.175 C 
ATOM     28  C   UNL     1       8.053  44.276  49.023  1.00  0.00     0.045 C 
ATOM     29  C   UNL     1       6.331  44.552  50.895  1.00  0.00     0.045 C 
ATOM     30  C   UNL     1       7.978  42.824  49.484  1.00  0.00     0.004 C 
ATOM     31  C   UNL     1       5.587  43.475  50.119  1.00  0.00     0.004 C 
ATOM     32  C   UNL     1       6.530  42.360  49.665  1.00  0.00     0.000 C 
ENDBRANCH  26  27
ENDBRANCH   3  26
TORSDOF 5
ENDMDL
MODEL 5
REMARK VINA RESULT:    -9.184      2.739      4.964
REMARK INTER + INTRA:         -12.071
REMARK INTER:                 -11.155
REMARK INTRA:                  -0.915
REMARK UNBOUND:                -0.202
REMARK SMILES Cc1cc(N2CCOCC2)ccc1Nc1nc(OC2CCCCC2)c2[nH]cnc2n1
REMARK SMILES IDX 15 1 16 2 17 3 25 4 26 5 27 6 28 7 29 8 30 9 14 11 13 13
REMARK SMILES IDX 2 14 3 15 4 16 12 17 11 18 1 19 5 20 6 21 10 22 7 23 9 24
REMARK SMILES IDX 8 25 18 26 19 27 20 28 24 29 21 30 23 31 22 32
REMARK H PARENT 26 10 14 12
ROOT
ATOM      1  C   UNL     1       3.829  42.909  52.154  1.00  0.00     0.232 A 
ATOM      2  N   UNL     1       4.502  44.079  52.121  1.00  0.00    -0.175 NA
ATOM      3  C   UNL     1       5.454  44.271  51.189  1.00  0.00     0.245 A 
ATOM      4  C   UNL     1       5.697  43.256  50.304  1.00  0.00     0.148 A 
ATOM      5  N   UNL     1       6.553  43.068  49.259  1.00  0.00    -0.339 N 
ATOM      6  C   UNL     1       6.312  41.817  48.758  1.00  0.00     0.199 A 
ATOM      7  N   UNL     1       5.359  41.200  49.425  1.00  0.00    -0.217 NA
ATOM      8  C   UNL     1       4.972  42.090  50.394  1.00  0.00     0.186 A 
ATOM      9  N   UNL     1       4.025  41.880  51.319  1.00  0.00    -0.191 NA
ATOM     10  H   UNL     1       7.237  43.732  48.922  1.00  0.00     0.168 HD
ENDROOT
BRANCH   1  11
ATOM     11  N   UNL     1       2.868  42.662  53.136  1.00  0.00    -0.324 N 
ATOM     12  H   UNL     1       3.210  41.922  53.731  1.00  0.00     0.170 HD
BRANCH  11  13
ATOM     13  C   UNL     1       1.538  43.061  53.329  1.00  0.00     0.044 A 
ATOM     14  C   UNL     1       1.245  44.130  54.202  1.00  0.00    -0.025 A 
ATOM     15  C   UNL     1      -0.091  44.550  54.376  1.00  0.00     0.031 A 
ATOM     16  C   UNL     1      -1.164  43.958  53.696  1.00  0.00     0.037 A 
ATOM     17  C   UNL     1       0.470  42.487  52.634  1.00  0.00     0.028 A 
ATOM     18  C   UNL     1      -0.853  42.918  52.818  1.00  0.00     0.028 A 
ATOM     19  C   UNL     1       2.323  44.837  54.979  1.00  0.00     0.046 C 
BRANCH  16  20
ATOM     20  N   UNL     1      -2.462  44.434  53.916  1.00  0.00    -0.367 N 
ATOM     21  C   UNL     1      -3.273  44.916  52.778  1.00  0.00     0.145 C 
ATOM     22  C   UNL     1      -2.562  45.288  55.127  1.00  0.00     0.145 C 
ATOM     23  C   UNL     1      -3.367  46.447  52.791  1.00  0.00     0.181 C 
ATOM     24  C   UNL     1      -3.868  46.100  55.113  1.00  0.00     0.181 C 
ATOM     25  O   UNL     1      -3.980  46.977  53.980  1.00  0.00    -0.378 OA
ENDBRANCH  16  20
ENDBRANCH  11  13
ENDBRANCH   1  11
BRANCH   3  26
ATOM     26  O   UNL     1       6.189  45.434  51.123  1.00  0.00    -0.473 OA
BRANCH  26  27
ATOM     27  C   UNL     1       7.303  45.500  52.031  1.00  0.00     0.175 C 
ATOM     28  C   UNL     1       8.537  46.121  51.345  1.00  0.00     0.045 C 
ATOM     29  C   UNL     1       6.824  46.330  53.235  1.00  0.00     0.045 C 
ATOM     30  C   UNL     1       8.629  47.626  51.577  1.00  0.00     0.004 C 
ATOM     31  C   UNL     1       7.986  46.986  53.968  1.00  0.00     0.004 C 
ATOM     32  C   UNL     1       8.734  47.967  53.065  1.00  0.00     0.000 C 
ENDBRANCH  26  27
ENDBRANCH   3  26
TORSDOF 5
ENDMDL
MODEL 6
REMARK VINA RESULT:    -9.180      2.439      9.201
REMARK INTER + INTRA:         -12.066
REMARK INTER:                 -11.121
REMARK INTRA:                  -0.946
REMARK UNBOUND:                -0.202
REMARK SMILES Cc1cc(N2CCOCC2)ccc1Nc1nc(OC2CCCCC2)c2[nH]cnc2n1
REMARK SMILES IDX 15 1 16 2 17 3 25 4 26 5 27 6 28 7 29 8 30 9 14 11 13 13
REMARK SMILES IDX 2 14 3 15 4 16 12 17 11 18 1 19 5 20 6 21 10 22 7 23 9 24
REMARK SMILES IDX 8 25 18 26 19 27 20 28 24 29 21 30 23 31 22 32
REMARK H PARENT 26 10 14 12
ROOT
ATOM      1  C   UNL     1       1.904  42.904  52.633  1.00  0.00     0.232 A 
ATOM      2  N   UNL     1       1.128  42.941  53.737  1.00  0.00    -0.175 NA
ATOM      3  C   UNL     1      -0.209  43.036  53.607  1.00  0.00     0.245 A 
ATOM      4  C   UNL     1      -0.726  43.090  52.341  1.00  0.00     0.148 A 
ATOM      5  N   UNL     1      -1.979  43.192  51.812  1.00  0.00    -0.339 N 
ATOM      6  C   UNL     1      -1.843  43.196  50.449  1.00  0.00     0.199 A 
ATOM      7  N   UNL     1      -0.582  43.109  50.084  1.00  0.00    -0.217 NA
ATOM      8  C   UNL     1       0.123  43.046  51.259  1.00  0.00     0.186 A 
ATOM      9  N   UNL     1       1.456  42.957  51.370  1.00  0.00    -0.191 NA
ATOM     10  H   UNL     1      -2.843  43.252  52.333  1.00  0.00     0.168 HD
ENDROOT
BRANCH   1  11
ATOM     11  N   UNL     1       3.295  42.852  52.734  1.00  0.00    -0.324 N 
ATOM     12  H   UNL     1       3.560  41.899  52.934  1.00  0.00     0.170 HD
BRANCH  11  13
ATOM     13  C   UNL     1       4.310  43.815  52.810  1.00  0.00     0.044 A 
ATOM     14  C   UNL     1       5.193  43.993  51.725  1.00  0.00    -0.025 A 
ATOM     15  C   UNL     1       6.198  44.981  51.788  1.00  0.00     0.031 A 
ATOM     16  C   UNL     1       6.354  45.828  52.895  1.00  0.00     0.037 A 
ATOM     17  C   UNL     1       4.452  44.676  53.902  1.00  0.00     0.028 A 
ATOM     18  C   UNL     1       5.457  45.655  53.950  1.00  0.00     0.028 A 
ATOM     19  C   UNL     1       5.110  43.138  50.488  1.00  0.00     0.046 C 
BRANCH  16  20
ATOM     20  N   UNL     1       7.371  46.790  52.883  1.00  0.00    -0.367 N 
ATOM     21  C   UNL     1       8.414  46.747  51.836  1.00  0.00     0.145 C 
ATOM     22  C   UNL     1       7.897  47.087  54.240  1.00  0.00     0.145 C 
ATOM     23  C   UNL     1       9.741  46.238  52.415  1.00  0.00     0.181 C 
ATOM     24  C   UNL     1       9.246  47.820  54.152  1.00  0.00     0.181 C 
ATOM     25  O   UNL     1      10.261  47.064  53.473  1.00  0.00    -0.378 OA
ENDBRANCH  16  20
ENDBRANCH  11  13
ENDBRANCH   1  11
BRANCH   3  26
ATOM     26  O   UNL     1      -1.047  43.102  54.698  1.00  0.00    -0.473 OA
BRANCH  26  27
ATOM     27  C   UNL     1      -1.528  44.420  55.014  1.00  0.00     0.175 C 
ATOM     28  C   UNL     1      -3.053  44.409  55.245  1.00  0.00     0.045 C 
ATOM     29  C   UNL     1      -0.752  44.870  56.264  1.00  0.00     0.045 C 
ATOM     30  C   UNL     1      -3.413  44.237  56.717  1.00  0.00     0.004 C 
ATOM     31  C   UNL     1      -1.517  45.919  57.057  1.00  0.00     0.004 C 
ATOM     32  C   UNL     1      -2.845  45.369  57.577  1.00  0.00     0.000 C 
ENDBRANCH  26  27
ENDBRANCH   3  26
TORSDOF 5
ENDMDL
MODEL 7
REMARK VINA RESULT:    -8.849      2.418      4.422
REMARK INTER + INTRA:         -11.638
REMARK INTER:                 -10.962
REMARK INTRA:                  -0.676
REMARK UNBOUND:                -0.202
REMARK SMILES Cc1cc(N2CCOCC2)ccc1Nc1nc(OC2CCCCC2)c2[nH]cnc2n1
REMARK SMILES IDX 15 1 16 2 17 3 25 4 26 5 27 6 28 7 29 8 30 9 14 11 13 13
REMARK SMILES IDX 2 14 3 15 4 16 12 17 11 18 1 19 5 20 6 21 10 22 7 23 9 24
REMARK SMILES IDX 8 25 18 26 19 27 20 28 24 29 21 30 23 31 22 32
REMARK H PARENT 26 10 14 12
ROOT
ATOM      1  C   UNL     1       4.517  43.812  51.650  1.00  0.00     0.232 A 
ATOM      2  N   UNL     1       4.899  45.076  51.931  1.00  0.00    -0.175 NA
ATOM      3  C   UNL     1       6.009  45.577  51.357  1.00  0.00     0.245 A 
ATOM      4  C   UNL     1       6.707  44.770  50.500  1.00  0.00     0.148 A 
ATOM      5  N   UNL     1       7.841  44.902  49.754  1.00  0.00    -0.339 N 
ATOM      6  C   UNL     1       8.029  43.719  49.091  1.00  0.00     0.199 A 
ATOM      7  N   UNL     1       7.087  42.845  49.375  1.00  0.00    -0.217 NA
ATOM      8  C   UNL     1       6.259  43.492  50.257  1.00  0.00     0.186 A 
ATOM      9  N   UNL     1       5.160  42.975  50.825  1.00  0.00    -0.191 NA
ATOM     10  H   UNL     1       8.429  45.723  49.704  1.00  0.00     0.168 HD
ENDROOT
BRANCH   1  11
ATOM     11  N   UNL     1       3.398  43.248  52.264  1.00  0.00    -0.324 N 
ATOM     12  H   UNL     1       3.333  42.283  51.974  1.00  0.00     0.170 HD
BRANCH  11  13
ATOM     13  C   UNL     1       2.312  43.761  52.986  1.00  0.00     0.044 A 
ATOM     14  C   UNL     1       1.007  43.657  52.462  1.00  0.00    -0.025 A 
ATOM     15  C   UNL     1      -0.091  44.148  53.201  1.00  0.00     0.031 A 
ATOM     16  C   UNL     1       0.053  44.731  54.469  1.00  0.00     0.037 A 
ATOM     17  C   UNL     1       2.450  44.320  54.260  1.00  0.00     0.028 A 
ATOM     18  C   UNL     1       1.349  44.804  54.983  1.00  0.00     0.028 A 
ATOM     19  C   UNL     1       0.742  43.047  51.111  1.00  0.00     0.046 C 
BRANCH  16  20
ATOM     20  N   UNL     1      -1.083  45.190  55.144  1.00  0.00    -0.367 N 
ATOM     21  C   UNL     1      -1.165  45.070  56.615  1.00  0.00     0.145 C 
ATOM     22  C   UNL     1      -2.347  44.843  54.444  1.00  0.00     0.145 C 
ATOM     23  C   UNL     1      -2.133  43.947  57.013  1.00  0.00     0.181 C 
ATOM     24  C   UNL     1      -3.552  44.999  55.387  1.00  0.00     0.181 C 
ATOM     25  O   UNL     1      -3.478  44.155  56.547  1.00  0.00    -0.378 OA
ENDBRANCH  16  20
ENDBRANCH  11  13
ENDBRANCH   1  11
BRANCH   3  26
ATOM     26  O   UNL     1       6.460  46.851  51.626  1.00  0.00    -0.473 OA
BRANCH  26  27
ATOM     27  C   UNL     1       6.987  47.041  52.950  1.00  0.00     0.175 C 
ATOM     28  C   UNL     1       7.841  45.832  53.383  1.00  0.00     0.045 C 
ATOM     29  C   UNL     1       7.802  48.345  52.903  1.00  0.00     0.045 C 
ATOM     30  C   UNL     1       9.322  46.032  53.075  1.00  0.00     0.004 C 
ATOM     31  C   UNL     1       8.874  48.382  53.982  1.00  0.00     0.004 C 
ATOM     32  C   UNL     1       9.892  47.255  53.798  1.00  0.00     0.000 C 
ENDBRANCH  26  27
ENDBRANCH   3  26
TORSDOF 5
ENDMDL
MODEL 8
REMARK VINA RESULT:    -8.828      2.831      5.128
REMARK INTER + INTRA:         -11.611
REMARK INTER:                 -10.768
REMARK INTRA:                  -0.843
REMARK UNBOUND:                -0.202
REMARK SMILES Cc1cc(N2CCOCC2)ccc1Nc1nc(OC2CCCCC2)c2[nH]cnc2n1
REMARK SMILES IDX 15 1 16 2 17 3 25 4 26 5 27 6 28 7 29 8 30 9 14 11 13 13
REMARK SMILES IDX 2 14 3 15 4 16 12 17 11 18 1 19 5 20 6 21 10 22 7 23 9 24
REMARK SMILES IDX 8 25 18 26 19 27 20 28 24 29 21 30 23 31 22 32
REMARK H PARENT 26 10 14 12
ROOT
ATOM      1  C   UNL     1       2.990  44.841  51.770  1.00  0.00     0.232 A 
ATOM      2  N   UNL     1       4.235  45.362  51.803  1.00  0.00    -0.175 NA
ATOM      3  C   UNL     1       5.279  44.615  51.398  1.00  0.00     0.245 A 
ATOM      4  C   UNL     1       5.025  43.343  50.964  1.00  0.00     0.148 A 
ATOM      5  N   UNL     1       5.784  42.310  50.498  1.00  0.00    -0.339 N 
ATOM      6  C   UNL     1       4.933  41.275  50.220  1.00  0.00     0.199 A 
ATOM      7  N   UNL     1       3.682  41.587  50.486  1.00  0.00    -0.217 NA
ATOM      8  C   UNL     1       3.731  42.875  50.954  1.00  0.00     0.186 A 
ATOM      9  N   UNL     1       2.681  43.603  51.359  1.00  0.00    -0.191 NA
ATOM     10  H   UNL     1       6.788  42.314  50.382  1.00  0.00     0.168 HD
ENDROOT
BRANCH   1  11
ATOM     11  N   UNL     1       1.893  45.573  52.224  1.00  0.00    -0.324 N 
ATOM     12  H   UNL     1       2.058  46.548  52.019  1.00  0.00     0.170 HD
BRANCH  11  13
ATOM     13  C   UNL     1       0.782  45.280  53.028  1.00  0.00     0.044 A 
ATOM     14  C   UNL     1       0.933  45.179  54.426  1.00  0.00    -0.025 A 
ATOM     15  C   UNL     1      -0.189  44.912  55.239  1.00  0.00     0.031 A 
ATOM     16  C   UNL     1      -1.480  44.757  54.715  1.00  0.00     0.037 A 
ATOM     17  C   UNL     1      -0.510  45.149  52.510  1.00  0.00     0.028 A 
ATOM     18  C   UNL     1      -1.616  44.884  53.332  1.00  0.00     0.028 A 
ATOM     19  C   UNL     1       2.276  45.331  55.091  1.00  0.00     0.046 C 
BRANCH  16  20
ATOM     20  N   UNL     1      -2.546  44.500  55.585  1.00  0.00    -0.367 N 
ATOM     21  C   UNL     1      -3.324  45.622  56.150  1.00  0.00     0.145 C 
ATOM     22  C   UNL     1      -2.239  43.429  56.569  1.00  0.00     0.145 C 
ATOM     23  C   UNL     1      -2.970  45.836  57.628  1.00  0.00     0.181 C 
ATOM     24  C   UNL     1      -3.246  43.453  57.731  1.00  0.00     0.181 C 
ATOM     25  O   UNL     1      -3.246  44.693  58.457  1.00  0.00    -0.378 OA
ENDBRANCH  16  20
ENDBRANCH  11  13
ENDBRANCH   1  11
BRANCH   3  26
ATOM     26  O   UNL     1       6.572  45.087  51.434  1.00  0.00    -0.473 OA
BRANCH  26  27
ATOM     27  C   UNL     1       6.752  46.309  52.170  1.00  0.00     0.175 C 
ATOM     28  C   UNL     1       7.358  46.031  53.561  1.00  0.00     0.045 C 
ATOM     29  C   UNL     1       7.662  47.199  51.305  1.00  0.00     0.045 C 
ATOM     30  C   UNL     1       8.879  46.144  53.562  1.00  0.00     0.004 C 
ATOM     31  C   UNL     1       8.417  48.221  52.143  1.00  0.00     0.004 C 
ATOM     32  C   UNL     1       9.346  47.542  53.150  1.00  0.00     0.000 C 
ENDBRANCH  26  27
ENDBRANCH   3  26
TORSDOF 5
ENDMDL
MODEL 9
REMARK VINA RESULT:    -8.734      2.360      8.594
REMARK INTER + INTRA:         -11.490
REMARK INTER:                 -10.594
REMARK INTRA:                  -0.896
REMARK UNBOUND:                -0.202
REMARK SMILES Cc1cc(N2CCOCC2)ccc1Nc1nc(OC2CCCCC2)c2[nH]cnc2n1
REMARK SMILES IDX 15 1 16 2 17 3 25 4 26 5 27 6 28 7 29 8 30 9 14 11 13 13
REMARK SMILES IDX 2 14 3 15 4 16 12 17 11 18 1 19 5 20 6 21 10 22 7 23 9 24
REMARK SMILES IDX 8 25 18 26 19 27 20 28 24 29 21 30 23 31 22 32
REMARK H PARENT 26 10 14 12
ROOT
ATOM      1  C   UNL     1       1.442  44.371  54.158  1.00  0.00     0.232 A 
ATOM      2  N   UNL     1       0.382  44.302  53.324  1.00  0.00    -0.175 NA
ATOM      3  C   UNL     1      -0.846  44.606  53.785  1.00  0.00     0.245 A 
ATOM      4  C   UNL     1      -0.963  44.978  55.097  1.00  0.00     0.148 A 
ATOM      5  N   UNL     1      -1.996  45.342  55.910  1.00  0.00    -0.339 N 
ATOM      6  C   UNL     1      -1.465  45.604  57.145  1.00  0.00     0.199 A 
ATOM      7  N   UNL     1      -0.162  45.423  57.164  1.00  0.00    -0.217 NA
ATOM      8  C   UNL     1       0.160  45.029  55.890  1.00  0.00     0.186 A 
ATOM      9  N   UNL     1       1.388  44.724  55.449  1.00  0.00    -0.191 NA
ATOM     10  H   UNL     1      -2.969  45.404  55.645  1.00  0.00     0.168 HD
ENDROOT
BRANCH   1  11
ATOM     11  N   UNL     1       2.720  44.018  53.723  1.00  0.00    -0.324 N 
ATOM     12  H   UNL     1       2.764  43.012  53.657  1.00  0.00     0.170 HD
BRANCH  11  13
ATOM     13  C   UNL     1       3.928  44.711  53.564  1.00  0.00     0.044 A 
ATOM     14  C   UNL     1       4.193  45.396  52.360  1.00  0.00    -0.025 A 
ATOM     15  C   UNL     1       5.396  46.117  52.209  1.00  0.00     0.031 A 
ATOM     16  C   UNL     1       6.356  46.205  53.228  1.00  0.00     0.037 A 
ATOM     17  C   UNL     1       4.876  44.819  54.586  1.00  0.00     0.028 A 
ATOM     18  C   UNL     1       6.068  45.541  54.421  1.00  0.00     0.028 A 
ATOM     19  C   UNL     1       3.227  45.370  51.205  1.00  0.00     0.046 C 
BRANCH  16  20
ATOM     20  N   UNL     1       7.524  46.944  53.006  1.00  0.00    -0.367 N 
ATOM     21  C   UNL     1       8.136  46.971  51.661  1.00  0.00     0.145 C 
ATOM     22  C   UNL     1       8.509  46.806  54.110  1.00  0.00     0.145 C 
ATOM     23  C   UNL     1       9.406  46.110  51.627  1.00  0.00     0.181 C 
ATOM     24  C   UNL     1       9.899  47.287  53.661  1.00  0.00     0.181 C 
ATOM     25  O   UNL     1      10.423  46.549  52.545  1.00  0.00    -0.378 OA
ENDBRANCH  16  20
ENDBRANCH  11  13
ENDBRANCH   1  11
BRANCH   3  26
ATOM     26  O   UNL     1      -1.966  44.529  52.986  1.00  0.00    -0.473 OA
BRANCH  26  27
ATOM     27  C   UNL     1      -1.888  45.274  51.759  1.00  0.00     0.175 C 
ATOM     28  C   UNL     1      -1.954  44.335  50.538  1.00  0.00     0.045 C 
ATOM     29  C   UNL     1      -3.058  46.274  51.790  1.00  0.00     0.045 C 
ATOM     30  C   UNL     1      -3.376  44.170  50.012  1.00  0.00     0.004 C 
ATOM     31  C   UNL     1      -3.478  46.697  50.390  1.00  0.00     0.004 C 
ATOM     32  C   UNL     1      -3.978  45.507  49.572  1.00  0.00     0.000 C 
ENDBRANCH  26  27
ENDBRANCH   3  26
TORSDOF 5
ENDMDL
MODEL 10
REMARK VINA RESULT:    -8.525      4.698      7.704
REMARK INTER + INTRA:         -11.220
REMARK INTER:                 -10.281
REMARK INTRA:                  -0.939
REMARK UNBOUND:                -0.202
REMARK SMILES Cc1cc(N2CCOCC2)ccc1Nc1nc(OC2CCCCC2)c2[nH]cnc2n1
REMARK SMILES IDX 15 1 16 2 17 3 25 4 26 5 27 6 28 7 29 8 30 9 14 11 13 13
REMARK SMILES IDX 2 14 3 15 4 16 12 17 11 18 1 19 5 20 6 21 10 22 7 23 9 24
REMARK SMILES IDX 8 25 18 26 19 27 20 28 24 29 21 30 23 31 22 32
REMARK H PARENT 26 10 14 12
ROOT
ATOM      1  C   UNL     1       6.024  43.213  49.986  1.00  0.00     0.232 A 
ATOM      2  N   UNL     1       4.941  43.650  50.663  1.00  0.00    -0.175 NA
ATOM      3  C   UNL     1       5.019  44.787  51.379  1.00  0.00     0.245 A 
ATOM      4  C   UNL     1       6.212  45.459  51.385  1.00  0.00     0.148 A 
ATOM      5  N   UNL     1       6.676  46.599  51.971  1.00  0.00    -0.339 N 
ATOM      6  C   UNL     1       7.982  46.748  51.587  1.00  0.00     0.199 A 
ATOM      7  N   UNL     1       8.374  45.769  50.799  1.00  0.00    -0.217 NA
ATOM      8  C   UNL     1       7.275  44.958  50.670  1.00  0.00     0.186 A 
ATOM      9  N   UNL     1       7.217  43.824  49.958  1.00  0.00    -0.191 NA
ATOM     10  H   UNL     1       6.150  47.216  52.575  1.00  0.00     0.168 HD
ENDROOT
BRANCH   1  11
ATOM     11  N   UNL     1       5.989  42.015  49.272  1.00  0.00    -0.324 N 
ATOM     12  H   UNL     1       6.689  41.398  49.658  1.00  0.00     0.170 HD
BRANCH  11  13
ATOM     13  C   UNL     1       5.366  41.596  48.088  1.00  0.00     0.044 A 
ATOM     14  C   UNL     1       4.173  40.847  48.149  1.00  0.00    -0.025 A 
ATOM     15  C   UNL     1       3.530  40.448  46.958  1.00  0.00     0.031 A 
ATOM     16  C   UNL     1       4.019  40.784  45.687  1.00  0.00     0.037 A 
ATOM     17  C   UNL     1       5.839  41.950  46.821  1.00  0.00     0.028 A 
ATOM     18  C   UNL     1       5.188  41.546  45.646  1.00  0.00     0.028 A 
ATOM     19  C   UNL     1       3.561  40.435  49.462  1.00  0.00     0.046 C 
BRANCH  16  20
ATOM     20  N   UNL     1       3.323  40.358  44.550  1.00  0.00    -0.367 N 
ATOM     21  C   UNL     1       1.929  39.881  44.675  1.00  0.00     0.145 C 
ATOM     22  C   UNL     1       4.158  39.533  43.640  1.00  0.00     0.145 C 
ATOM     23  C   UNL     1       1.865  38.354  44.536  1.00  0.00     0.181 C 
ATOM     24  C   UNL     1       3.278  38.766  42.639  1.00  0.00     0.181 C 
ATOM     25  O   UNL     1       2.348  37.871  43.269  1.00  0.00    -0.378 OA
ENDBRANCH  16  20
ENDBRANCH  11  13
ENDBRANCH   1  11
BRANCH   3  26
ATOM     26  O   UNL     1       3.954  45.267  52.108  1.00  0.00    -0.473 OA
BRANCH  26  27
ATOM     27  C   UNL     1       3.532  44.422  53.193  1.00  0.00     0.175 C 
ATOM     28  C   UNL     1       4.125  44.905  54.532  1.00  0.00     0.045 C 
ATOM     29  C   UNL     1       1.993  44.458  53.189  1.00  0.00     0.045 C 
ATOM     30  C   UNL     1       3.181  45.844  55.276  1.00  0.00     0.004 C 
ATOM     31  C   UNL     1       1.416  44.137  54.560  1.00  0.00     0.004 C 
ATOM     32  C   UNL     1       1.848  45.167  55.604  1.00  0.00     0.000 C 
ENDBRANCH  26  27
ENDBRANCH   3  26
TORSDOF 5
ENDMDL
