MODEL 1
REMARK VINA RESULT:    -9.572      0.000      0.000
REMARK INTER + INTRA:         -11.640
REMARK INTER:                 -11.250
REMARK INTRA:                  -0.390
REMARK UNBOUND:                -0.390
REMARK SMILES c1ccc(-c2nc3ncnc(OC4CCCC4)c3[nH]2)cc1
REMARK SMILES IDX 5 1 6 2 7 3 8 4 9 5 10 6 11 7 18 8 19 9 4 11 1 12 2 13 21 14
REMARK SMILES IDX 3 15 20 16 12 17 13 18 14 19 17 20 15 21 16 22
REMARK H PARENT 19 10
ROOT
ATOM      1  C   UNL     1       5.047  44.343  51.807  1.00  0.00     0.140 A 
ATOM      2  N   UNL     1       3.984  45.077  52.103  1.00  0.00    -0.208 NA
ATOM      3  C   UNL     1       4.404  46.006  53.014  1.00  0.00     0.185 A 
ATOM      4  N   UNL     1       3.640  46.953  53.586  1.00  0.00    -0.215 NA
ATOM      5  C   UNL     1       4.326  47.721  54.443  1.00  0.00     0.228 A 
ATOM      6  N   UNL     1       5.633  47.645  54.771  1.00  0.00    -0.200 NA
ATOM      7  C   UNL     1       6.370  46.686  54.178  1.00  0.00     0.243 A 
ATOM      8  C   UNL     1       5.744  45.851  53.284  1.00  0.00     0.148 A 
ATOM      9  N   UNL     1       6.140  44.799  52.513  1.00  0.00    -0.332 N 
ATOM     10  H   UNL     1       7.078  44.430  52.470  1.00  0.00     0.168 HD
ENDROOT
BRANCH   1  11
ATOM     11  C   UNL     1       5.075  43.218  50.864  1.00  0.00     0.017 A 
ATOM     12  C   UNL     1       5.209  41.098  49.013  1.00  0.00     0.000 A 
ATOM     13  C   UNL     1       4.199  41.129  49.971  1.00  0.00     0.001 A 
ATOM     14  C   UNL     1       6.153  42.121  48.970  1.00  0.00     0.001 A 
ATOM     15  C   UNL     1       4.131  42.180  50.891  1.00  0.00     0.012 A 
ATOM     16  C   UNL     1       6.084  43.172  49.889  1.00  0.00     0.012 A 
ENDBRANCH   1  11
BRANCH   7  17
ATOM     17  O   UNL     1       7.710  46.526  54.451  1.00  0.00    -0.473 OA
BRANCH  17  18
ATOM     18  C   UNL     1       8.517  47.667  54.136  1.00  0.00     0.175 C 
ATOM     19  C   UNL     1      10.004  47.314  54.152  1.00  0.00     0.045 C 
ATOM     20  C   UNL     1       8.292  48.005  52.663  1.00  0.00     0.045 C 
ATOM     21  C   UNL     1      10.227  46.533  52.859  1.00  0.00     0.004 C 
ATOM     22  C   UNL     1       9.124  46.977  51.899  1.00  0.00     0.004 C 
ENDBRANCH  17  18
ENDBRANCH   7  17
TORSDOF 3
ENDMDL
MODEL 2
REMARK VINA RESULT:    -8.662      2.074      6.183
REMARK INTER + INTRA:         -10.570
REMARK INTER:                 -10.017
REMARK INTRA:                  -0.554
REMARK UNBOUND:                -0.390
REMARK SMILES c1ccc(-c2nc3ncnc(OC4CCCC4)c3[nH]2)cc1
REMARK SMILES IDX 5 1 6 2 7 3 8 4 9 5 10 6 11 7 18 8 19 9 4 11 1 12 2 13 21 14
REMARK SMILES IDX 3 15 20 16 12 17 13 18 14 19 17 20 15 21 16 22
REMARK H PARENT 19 10
ROOT
ATOM      1  C   UNL     1       5.972  45.504  53.088  1.00  0.00     0.140 A 
ATOM      2  N   UNL     1       5.015  45.648  53.993  1.00  0.00    -0.208 NA
ATOM      3  C   UNL     1       3.968  44.879  53.566  1.00  0.00     0.185 A 
ATOM      4  N   UNL     1       2.785  44.738  54.189  1.00  0.00    -0.215 NA
ATOM      5  C   UNL     1       1.950  43.920  53.534  1.00  0.00     0.228 A 
ATOM      6  N   UNL     1       2.165  43.260  52.376  1.00  0.00    -0.200 NA
ATOM      7  C   UNL     1       3.362  43.421  51.779  1.00  0.00     0.243 A 
ATOM      8  C   UNL     1       4.279  44.246  52.384  1.00  0.00     0.148 A 
ATOM      9  N   UNL     1       5.549  44.647  52.094  1.00  0.00    -0.332 N 
ATOM     10  H   UNL     1       6.082  44.354  51.289  1.00  0.00     0.168 HD
ENDROOT
BRANCH   1  11
ATOM     11  C   UNL     1       7.292  46.145  53.129  1.00  0.00     0.017 A 
ATOM     12  C   UNL     1       9.839  47.349  53.114  1.00  0.00     0.000 A 
ATOM     13  C   UNL     1       9.058  47.378  54.266  1.00  0.00     0.001 A 
ATOM     14  C   UNL     1       9.359  46.721  51.968  1.00  0.00     0.001 A 
ATOM     15  C   UNL     1       7.793  46.780  54.276  1.00  0.00     0.012 A 
ATOM     16  C   UNL     1       8.096  46.123  51.978  1.00  0.00     0.012 A 
ENDBRANCH   1  11
BRANCH   7  17
ATOM     17  O   UNL     1       3.674  42.794  50.594  1.00  0.00    -0.473 OA
BRANCH  17  18
ATOM     18  C   UNL     1       4.157  41.453  50.744  1.00  0.00     0.175 C 
ATOM     19  C   UNL     1       3.555  40.527  49.689  1.00  0.00     0.045 C 
ATOM     20  C   UNL     1       5.636  41.446  50.360  1.00  0.00     0.045 C 
ATOM     21  C   UNL     1       4.298  40.877  48.402  1.00  0.00     0.004 C 
ATOM     22  C   UNL     1       5.639  41.469  48.834  1.00  0.00     0.004 C 
ENDBRANCH  17  18
ENDBRANCH   7  17
TORSDOF 3
ENDMDL
MODEL 3
REMARK VINA RESULT:    -8.169      2.857      6.856
REMARK INTER + INTRA:          -9.992
REMARK INTER:                  -9.471
REMARK INTRA:                  -0.521
REMARK UNBOUND:                -0.390
REMARK SMILES c1ccc(-c2nc3ncnc(OC4CCCC4)c3[nH]2)cc1
REMARK SMILES IDX 5 1 6 2 7 3 8 4 9 5 10 6 11 7 18 8 19 9 4 11 1 12 2 13 21 14
REMARK SMILES IDX 3 15 20 16 12 17 13 18 14 19 17 20 15 21 16 22
REMARK H PARENT 19 10
ROOT
ATOM      1  C   UNL     1       6.416  44.624  51.052  1.00  0.00     0.140 A 
ATOM      2  N   UNL     1       6.763  43.846  50.037  1.00  0.00    -0.208 NA
ATOM      3  C   UNL     1       5.808  42.871  49.962  1.00  0.00     0.185 A 
ATOM      4  N   UNL     1       5.774  41.865  49.070  1.00  0.00    -0.215 NA
ATOM      5  C   UNL     1       4.717  41.059  49.240  1.00  0.00     0.228 A 
ATOM      6  N   UNL     1       3.737  41.151  50.164  1.00  0.00    -0.200 NA
ATOM      7  C   UNL     1       3.800  42.171  51.041  1.00  0.00     0.243 A 
ATOM      8  C   UNL     1       4.854  43.046  50.938  1.00  0.00     0.148 A 
ATOM      9  N   UNL     1       5.249  44.160  51.619  1.00  0.00    -0.332 N 
ATOM     10  H   UNL     1       4.758  44.569  52.400  1.00  0.00     0.168 HD
ENDROOT
BRANCH   1  11
ATOM     11  C   UNL     1       7.150  45.811  51.511  1.00  0.00     0.017 A 
ATOM     12  C   UNL     1       8.474  48.121  52.432  1.00  0.00     0.000 A 
ATOM     13  C   UNL     1       9.163  47.169  51.685  1.00  0.00     0.001 A 
ATOM     14  C   UNL     1       7.126  47.929  52.721  1.00  0.00     0.001 A 
ATOM     15  C   UNL     1       8.508  46.022  51.226  1.00  0.00     0.012 A 
ATOM     16  C   UNL     1       6.470  46.783  52.263  1.00  0.00     0.012 A 
ENDBRANCH   1  11
BRANCH   7  17
ATOM     17  O   UNL     1       2.850  42.346  52.023  1.00  0.00    -0.473 OA
BRANCH  17  18
ATOM     18  C   UNL     1       1.558  42.725  51.533  1.00  0.00     0.175 C 
ATOM     19  C   UNL     1       0.519  42.720  52.653  1.00  0.00     0.045 C 
ATOM     20  C   UNL     1       1.616  44.208  51.167  1.00  0.00     0.045 C 
ATOM     21  C   UNL     1       0.819  43.981  53.462  1.00  0.00     0.004 C 
ATOM     22  C   UNL     1       1.526  44.940  52.504  1.00  0.00     0.004 C 
ENDBRANCH  17  18
ENDBRANCH   7  17
TORSDOF 3
ENDMDL
MODEL 4
REMARK VINA RESULT:    -8.152      2.526      4.315
REMARK INTER + INTRA:          -9.971
REMARK INTER:                  -9.734
REMARK INTRA:                  -0.237
REMARK UNBOUND:                -0.390
REMARK SMILES c1ccc(-c2nc3ncnc(OC4CCCC4)c3[nH]2)cc1
REMARK SMILES IDX 5 1 6 2 7 3 8 4 9 5 10 6 11 7 18 8 19 9 4 11 1 12 2 13 21 14
REMARK SMILES IDX 3 15 20 16 12 17 13 18 14 19 17 20 15 21 16 22
REMARK H PARENT 19 10
ROOT
ATOM      1  C   UNL     1       3.746  43.662  51.898  1.00  0.00     0.140 A 
ATOM      2  N   UNL     1       4.149  42.954  50.853  1.00  0.00    -0.208 NA
ATOM      3  C   UNL     1       5.386  43.434  50.522  1.00  0.00     0.185 A 
ATOM      4  N   UNL     1       6.158  42.997  49.512  1.00  0.00    -0.215 NA
ATOM      5  C   UNL     1       7.321  43.659  49.428  1.00  0.00     0.228 A 
ATOM      6  N   UNL     1       7.770  44.662  50.212  1.00  0.00    -0.200 NA
ATOM      7  C   UNL     1       6.972  45.073  51.216  1.00  0.00     0.243 A 
ATOM      8  C   UNL     1       5.758  44.449  51.373  1.00  0.00     0.148 A 
ATOM      9  N   UNL     1       4.715  44.582  52.240  1.00  0.00    -0.332 N 
ATOM     10  H   UNL     1       4.672  45.241  53.003  1.00  0.00     0.168 HD
ENDROOT
BRANCH   1  11
ATOM     11  C   UNL     1       2.468  43.498  52.602  1.00  0.00     0.017 A 
ATOM     12  C   UNL     1       0.045  43.250  54.018  1.00  0.00     0.000 A 
ATOM     13  C   UNL     1       0.274  42.479  52.882  1.00  0.00     0.001 A 
ATOM     14  C   UNL     1       1.019  44.143  54.455  1.00  0.00     0.001 A 
ATOM     15  C   UNL     1       1.476  42.600  52.177  1.00  0.00     0.012 A 
ATOM     16  C   UNL     1       2.220  44.264  53.752  1.00  0.00     0.012 A 
ENDBRANCH   1  11
BRANCH   7  17
ATOM     17  O   UNL     1       7.340  46.093  52.066  1.00  0.00    -0.473 OA
BRANCH  17  18
ATOM     18  C   UNL     1       8.355  46.959  51.545  1.00  0.00     0.175 C 
ATOM     19  C   UNL     1       8.307  48.332  52.212  1.00  0.00     0.045 C 
ATOM     20  C   UNL     1       9.708  46.428  52.019  1.00  0.00     0.045 C 
ATOM     21  C   UNL     1       8.909  48.108  53.597  1.00  0.00     0.004 C 
ATOM     22  C   UNL     1       9.812  46.881  53.473  1.00  0.00     0.004 C 
ENDBRANCH  17  18
ENDBRANCH   7  17
TORSDOF 3
ENDMDL
MODEL 5
REMARK VINA RESULT:    -7.967      2.761      4.951
REMARK INTER + INTRA:          -9.754
REMARK INTER:                  -9.282
REMARK INTRA:                  -0.472
REMARK UNBOUND:                -0.390
REMARK SMILES c1ccc(-c2nc3ncnc(OC4CCCC4)c3[nH]2)cc1
REMARK SMILES IDX 5 1 6 2 7 3 8 4 9 5 10 6 11 7 18 8 19 9 4 11 1 12 2 13 21 14
REMARK SMILES IDX 3 15 20 16 12 17 13 18 14 19 17 20 15 21 16 22
REMARK H PARENT 19 10
ROOT
ATOM      1  C   UNL     1       3.138  44.076  52.894  1.00  0.00     0.140 A 
ATOM      2  N   UNL     1       3.269  42.947  52.213  1.00  0.00    -0.208 NA
ATOM      3  C   UNL     1       4.382  43.100  51.434  1.00  0.00     0.185 A 
ATOM      4  N   UNL     1       4.878  42.189  50.579  1.00  0.00    -0.215 NA
ATOM      5  C   UNL     1       5.981  42.619  49.950  1.00  0.00     0.228 A 
ATOM      6  N   UNL     1       6.608  43.807  50.081  1.00  0.00    -0.200 NA
ATOM      7  C   UNL     1       6.086  44.696  50.949  1.00  0.00     0.243 A 
ATOM      8  C   UNL     1       4.952  44.336  51.636  1.00  0.00     0.148 A 
ATOM      9  N   UNL     1       4.158  44.942  52.564  1.00  0.00    -0.332 N 
ATOM     10  H   UNL     1       4.306  45.866  52.941  1.00  0.00     0.168 HD
ENDROOT
BRANCH   1  11
ATOM     11  C   UNL     1       2.077  44.372  53.866  1.00  0.00     0.017 A 
ATOM     12  C   UNL     1      -0.023  44.899  55.669  1.00  0.00     0.000 A 
ATOM     13  C   UNL     1       1.283  45.259  55.990  1.00  0.00     0.001 A 
ATOM     14  C   UNL     1      -0.289  44.279  54.451  1.00  0.00     0.001 A 
ATOM     15  C   UNL     1       2.327  44.998  55.097  1.00  0.00     0.012 A 
ATOM     16  C   UNL     1       0.753  44.019  53.558  1.00  0.00     0.012 A 
ENDBRANCH   1  11
BRANCH   7  17
ATOM     17  O   UNL     1       6.651  45.935  51.149  1.00  0.00    -0.473 OA
BRANCH  17  18
ATOM     18  C   UNL     1       7.409  46.050  52.359  1.00  0.00     0.175 C 
ATOM     19  C   UNL     1       8.908  46.085  52.073  1.00  0.00     0.045 C 
ATOM     20  C   UNL     1       7.167  47.448  52.929  1.00  0.00     0.045 C 
ATOM     21  C   UNL     1       9.164  47.488  51.528  1.00  0.00     0.004 C 
ATOM     22  C   UNL     1       8.042  48.367  52.080  1.00  0.00     0.004 C 
ENDBRANCH  17  18
ENDBRANCH   7  17
TORSDOF 3
ENDMDL
MODEL 6
REMARK VINA RESULT:    -7.958      1.945      5.922
REMARK INTER + INTRA:          -9.743
REMARK INTER:                  -9.430
REMARK INTRA:                  -0.313
REMARK UNBOUND:                -0.390
REMARK SMILES c1ccc(-c2nc3ncnc(OC4CCCC4)c3[nH]2)cc1
REMARK SMILES IDX 5 1 6 2 7 3 8 4 9 5 10 6 11 7 18 8 19 9 4 11 1 12 2 13 21 14
REMARK SMILES IDX 3 15 20 16 12 17 13 18 14 19 17 20 15 21 16 22
REMARK H PARENT 19 10
ROOT
ATOM      1  C   UNL     1       6.188  45.990  53.846  1.00  0.00     0.140 A 
ATOM      2  N   UNL     1       5.292  46.602  54.606  1.00  0.00    -0.208 NA
ATOM      3  C   UNL     1       4.139  45.877  54.492  1.00  0.00     0.185 A 
ATOM      4  N   UNL     1       2.971  46.151  55.101  1.00  0.00    -0.215 NA
ATOM      5  C   UNL     1       2.012  45.264  54.800  1.00  0.00     0.228 A 
ATOM      6  N   UNL     1       2.096  44.184  53.994  1.00  0.00    -0.200 NA
ATOM      7  C   UNL     1       3.281  43.938  53.403  1.00  0.00     0.243 A 
ATOM      8  C   UNL     1       4.320  44.800  53.656  1.00  0.00     0.148 A 
ATOM      9  N   UNL     1       5.621  44.881  53.256  1.00  0.00    -0.332 N 
ATOM     10  H   UNL     1       6.081  44.229  52.638  1.00  0.00     0.168 HD
ENDROOT
BRANCH   1  11
ATOM     11  C   UNL     1       7.583  46.412  53.657  1.00  0.00     0.017 A 
ATOM     12  C   UNL     1      10.257  47.175  53.209  1.00  0.00     0.000 A 
ATOM     13  C   UNL     1       9.610  47.546  54.385  1.00  0.00     0.001 A 
ATOM     14  C   UNL     1       9.579  46.421  52.255  1.00  0.00     0.001 A 
ATOM     15  C   UNL     1       8.282  47.169  54.609  1.00  0.00     0.012 A 
ATOM     16  C   UNL     1       8.252  46.043  52.480  1.00  0.00     0.012 A 
ENDBRANCH   1  11
BRANCH   7  17
ATOM     17  O   UNL     1       3.464  42.864  52.561  1.00  0.00    -0.473 OA
BRANCH  17  18
ATOM     18  C   UNL     1       3.511  43.205  51.171  1.00  0.00     0.175 C 
ATOM     19  C   UNL     1       4.915  43.012  50.601  1.00  0.00     0.045 C 
ATOM     20  C   UNL     1       2.715  42.148  50.405  1.00  0.00     0.045 C 
ATOM     21  C   UNL     1       5.066  41.500  50.454  1.00  0.00     0.004 C 
ATOM     22  C   UNL     1       3.648  40.943  50.327  1.00  0.00     0.004 C 
ENDBRANCH  17  18
ENDBRANCH   7  17
TORSDOF 3
ENDMDL
MODEL 7
REMARK VINA RESULT:    -7.647      3.050      6.688
REMARK INTER + INTRA:          -9.377
REMARK INTER:                  -8.909
REMARK INTRA:                  -0.468
REMARK UNBOUND:                -0.390
REMARK SMILES c1ccc(-c2nc3ncnc(OC4CCCC4)c3[nH]2)cc1
REMARK SMILES IDX 5 1 6 2 7 3 8 4 9 5 10 6 11 7 18 8 19 9 4 11 1 12 2 13 21 14
REMARK SMILES IDX 3 15 20 16 12 17 13 18 14 19 17 20 15 21 16 22
REMARK H PARENT 19 10
ROOT
ATOM      1  C   UNL     1       5.836  45.069  52.491  1.00  0.00     0.140 A 
ATOM      2  N   UNL     1       5.731  44.285  51.428  1.00  0.00    -0.208 NA
ATOM      3  C   UNL     1       4.525  43.651  51.540  1.00  0.00     0.185 A 
ATOM      4  N   UNL     1       4.018  42.758  50.671  1.00  0.00    -0.215 NA
ATOM      5  C   UNL     1       2.815  42.302  51.044  1.00  0.00     0.228 A 
ATOM      6  N   UNL     1       2.099  42.630  52.141  1.00  0.00    -0.200 NA
ATOM      7  C   UNL     1       2.635  43.530  52.988  1.00  0.00     0.243 A 
ATOM      8  C   UNL     1       3.870  44.048  52.683  1.00  0.00     0.148 A 
ATOM      9  N   UNL     1       4.708  44.947  53.274  1.00  0.00    -0.332 N 
ATOM     10  H   UNL     1       4.520  45.438  54.135  1.00  0.00     0.168 HD
ENDROOT
BRANCH   1  11
ATOM     11  C   UNL     1       6.971  45.948  52.798  1.00  0.00     0.017 A 
ATOM     12  C   UNL     1       9.174  47.633  53.292  1.00  0.00     0.000 A 
ATOM     13  C   UNL     1       8.334  47.255  54.335  1.00  0.00     0.001 A 
ATOM     14  C   UNL     1       8.925  47.173  52.002  1.00  0.00     0.001 A 
ATOM     15  C   UNL     1       7.239  46.419  54.092  1.00  0.00     0.012 A 
ATOM     16  C   UNL     1       7.832  46.337  51.759  1.00  0.00     0.012 A 
ENDBRANCH   1  11
BRANCH   7  17
ATOM     17  O   UNL     1       1.984  43.925  54.136  1.00  0.00    -0.473 OA
BRANCH  17  18
ATOM     18  C   UNL     1       1.230  45.135  54.000  1.00  0.00     0.175 C 
ATOM     19  C   UNL     1      -0.201  44.848  53.549  1.00  0.00     0.045 C 
ATOM     20  C   UNL     1       1.008  45.705  55.401  1.00  0.00     0.045 C 
ATOM     21  C   UNL     1      -0.895  44.304  54.795  1.00  0.00     0.004 C 
ATOM     22  C   UNL     1      -0.117  44.856  55.989  1.00  0.00     0.004 C 
ENDBRANCH  17  18
ENDBRANCH   7  17
TORSDOF 3
ENDMDL
MODEL 8
REMARK VINA RESULT:    -7.530      3.237      5.870
REMARK INTER + INTRA:          -9.240
REMARK INTER:                  -8.705
REMARK INTRA:                  -0.535
REMARK UNBOUND:                -0.390
REMARK SMILES c1ccc(-c2nc3ncnc(OC4CCCC4)c3[nH]2)cc1
REMARK SMILES IDX 5 1 6 2 7 3 8 4 9 5 10 6 11 7 18 8 19 9 4 11 1 12 2 13 21 14
REMARK SMILES IDX 3 15 20 16 12 17 13 18 14 19 17 20 15 21 16 22
REMARK H PARENT 19 10
ROOT
ATOM      1  C   UNL     1       2.563  45.306  54.810  1.00  0.00     0.140 A 
ATOM      2  N   UNL     1       3.231  46.392  55.170  1.00  0.00    -0.208 NA
ATOM      3  C   UNL     1       4.440  46.323  54.535  1.00  0.00     0.185 A 
ATOM      4  N   UNL     1       5.432  47.226  54.625  1.00  0.00    -0.215 NA
ATOM      5  C   UNL     1       6.502  46.891  53.891  1.00  0.00     0.228 A 
ATOM      6  N   UNL     1       6.674  45.801  53.113  1.00  0.00    -0.200 NA
ATOM      7  C   UNL     1       5.660  44.918  53.043  1.00  0.00     0.243 A 
ATOM      8  C   UNL     1       4.523  45.183  53.768  1.00  0.00     0.148 A 
ATOM      9  N   UNL     1       3.329  44.550  53.948  1.00  0.00    -0.332 N 
ATOM     10  H   UNL     1       3.060  43.680  53.514  1.00  0.00     0.168 HD
ENDROOT
BRANCH   1  11
ATOM     11  C   UNL     1       1.206  44.951  55.247  1.00  0.00     0.017 A 
ATOM     12  C   UNL     1      -1.410  44.225  56.000  1.00  0.00     0.000 A 
ATOM     13  C   UNL     1      -0.613  44.968  56.866  1.00  0.00     0.001 A 
ATOM     14  C   UNL     1      -0.911  43.843  54.758  1.00  0.00     0.001 A 
ATOM     15  C   UNL     1       0.687  45.330  56.495  1.00  0.00     0.012 A 
ATOM     16  C   UNL     1       0.387  44.205  54.386  1.00  0.00     0.012 A 
ENDBRANCH   1  11
BRANCH   7  17
ATOM     17  O   UNL     1       5.742  43.774  52.281  1.00  0.00    -0.473 OA
BRANCH  17  18
ATOM     18  C   UNL     1       5.171  43.894  50.973  1.00  0.00     0.175 C 
ATOM     19  C   UNL     1       6.182  43.520  49.891  1.00  0.00     0.045 C 
ATOM     20  C   UNL     1       4.125  42.790  50.818  1.00  0.00     0.045 C 
ATOM     21  C   UNL     1       6.262  41.996  49.950  1.00  0.00     0.004 C 
ATOM     22  C   UNL     1       4.936  41.525  50.547  1.00  0.00     0.004 C 
ENDBRANCH  17  18
ENDBRANCH   7  17
TORSDOF 3
ENDMDL
MODEL 9
REMARK VINA RESULT:    -7.496      3.614      6.253
REMARK INTER + INTRA:          -9.200
REMARK INTER:                  -8.736
REMARK INTRA:                  -0.464
REMARK UNBOUND:                -0.390
REMARK SMILES c1ccc(-c2nc3ncnc(OC4CCCC4)c3[nH]2)cc1
REMARK SMILES IDX 5 1 6 2 7 3 8 4 9 5 10 6 11 7 18 8 19 9 4 11 1 12 2 13 21 14
REMARK SMILES IDX 3 15 20 16 12 17 13 18 14 19 17 20 15 21 16 22
REMARK H PARENT 19 10
ROOT
ATOM      1  C   UNL     1       5.027  44.562  52.220  1.00  0.00     0.140 A 
ATOM      2  N   UNL     1       5.350  45.110  53.383  1.00  0.00    -0.208 NA
ATOM      3  C   UNL     1       4.183  45.224  54.086  1.00  0.00     0.185 A 
ATOM      4  N   UNL     1       4.054  45.735  55.324  1.00  0.00    -0.215 NA
ATOM      5  C   UNL     1       2.786  45.719  55.759  1.00  0.00     0.228 A 
ATOM      6  N   UNL     1       1.688  45.266  55.117  1.00  0.00    -0.200 NA
ATOM      7  C   UNL     1       1.854  44.758  53.881  1.00  0.00     0.243 A 
ATOM      8  C   UNL     1       3.123  44.738  53.356  1.00  0.00     0.148 A 
ATOM      9  N   UNL     1       3.670  44.320  52.179  1.00  0.00    -0.332 N 
ATOM     10  H   UNL     1       3.159  43.899  51.417  1.00  0.00     0.168 HD
ENDROOT
BRANCH   1  11
ATOM     11  C   UNL     1       5.963  44.245  51.133  1.00  0.00     0.017 A 
ATOM     12  C   UNL     1       7.708  43.555  49.033  1.00  0.00     0.000 A 
ATOM     13  C   UNL     1       7.892  44.744  49.734  1.00  0.00     0.001 A 
ATOM     14  C   UNL     1       6.660  42.705  49.375  1.00  0.00     0.001 A 
ATOM     15  C   UNL     1       7.026  45.089  50.777  1.00  0.00     0.012 A 
ATOM     16  C   UNL     1       5.796  43.049  50.418  1.00  0.00     0.012 A 
ENDBRANCH   1  11
BRANCH   7  17
ATOM     17  O   UNL     1       0.794  44.276  53.145  1.00  0.00    -0.473 OA
BRANCH  17  18
ATOM     18  C   UNL     1       0.031  43.260  53.805  1.00  0.00     0.175 C 
ATOM     19  C   UNL     1      -1.393  43.735  54.091  1.00  0.00     0.045 C 
ATOM     20  C   UNL     1      -0.212  42.133  52.800  1.00  0.00     0.045 C 
ATOM     21  C   UNL     1      -2.095  43.682  52.736  1.00  0.00     0.004 C 
ATOM     22  C   UNL     1      -1.335  42.650  51.904  1.00  0.00     0.004 C 
ENDBRANCH  17  18
ENDBRANCH   7  17
TORSDOF 3
ENDMDL
MODEL 10
REMARK VINA RESULT:    -7.415      2.801      6.390
REMARK INTER + INTRA:          -9.105
REMARK INTER:                  -8.901
REMARK INTRA:                  -0.203
REMARK UNBOUND:                -0.390
REMARK SMILES c1ccc(-c2nc3ncnc(OC4CCCC4)c3[nH]2)cc1
REMARK SMILES IDX 5 1 6 2 7 3 8 4 9 5 10 6 11 7 18 8 19 9 4 11 1 12 2 13 21 14
REMARK SMILES IDX 3 15 20 16 12 17 13 18 14 19 17 20 15 21 16 22
REMARK H PARENT 19 10
ROOT
ATOM      1  C   UNL     1       5.768  46.142  53.717  1.00  0.00     0.140 A 
ATOM      2  N   UNL     1       5.357  46.309  54.965  1.00  0.00    -0.208 NA
ATOM      3  C   UNL     1       4.029  45.983  54.975  1.00  0.00     0.185 A 
ATOM      4  N   UNL     1       3.216  46.016  56.046  1.00  0.00    -0.215 NA
ATOM      5  C   UNL     1       1.963  45.644  55.753  1.00  0.00     0.228 A 
ATOM      6  N   UNL     1       1.462  45.260  54.560  1.00  0.00    -0.200 NA
ATOM      7  C   UNL     1       2.304  45.235  53.509  1.00  0.00     0.243 A 
ATOM      8  C   UNL     1       3.611  45.604  53.721  1.00  0.00     0.148 A 
ATOM      9  N   UNL     1       4.720  45.706  52.934  1.00  0.00    -0.332 N 
ATOM     10  H   UNL     1       4.757  45.491  51.949  1.00  0.00     0.168 HD
ENDROOT
BRANCH   1  11
ATOM     11  C   UNL     1       7.134  46.372  53.227  1.00  0.00     0.017 A 
ATOM     12  C   UNL     1       9.778  46.844  52.376  1.00  0.00     0.000 A 
ATOM     13  C   UNL     1       8.834  46.342  51.484  1.00  0.00     0.001 A 
ATOM     14  C   UNL     1       9.410  47.115  53.691  1.00  0.00     0.001 A 
ATOM     15  C   UNL     1       7.520  46.107  51.904  1.00  0.00     0.012 A 
ATOM     16  C   UNL     1       8.098  46.880  54.111  1.00  0.00     0.012 A 
ENDBRANCH   1  11
BRANCH   7  17
ATOM     17  O   UNL     1       1.887  44.863  52.251  1.00  0.00    -0.473 OA
BRANCH  17  18
ATOM     18  C   UNL     1       2.022  43.463  51.974  1.00  0.00     0.175 C 
ATOM     19  C   UNL     1       1.235  42.623  52.978  1.00  0.00     0.045 C 
ATOM     20  C   UNL     1       1.277  43.172  50.672  1.00  0.00     0.045 C 
ATOM     21  C   UNL     1      -0.223  42.784  52.555  1.00  0.00     0.004 C 
ATOM     22  C   UNL     1      -0.197  43.138  51.068  1.00  0.00     0.004 C 
ENDBRANCH  17  18
ENDBRANCH   7  17
TORSDOF 3
ENDMDL
