MODEL 1
REMARK VINA RESULT:    -9.208      0.000      0.000
REMARK INTER + INTRA:         -14.143
REMARK INTER:                 -12.976
REMARK INTRA:                  -1.167
REMARK UNBOUND:                -1.167
REMARK SMILES N#CCc1ccc(Nc2nc(OCC3CCCCC3)c3[nH]cnc3n2)cc1
REMARK SMILES IDX 8 1 7 3 4 4 5 5 27 6 6 7 26 8 3 9 2 10 1 11 9 12 10 13 25 14
REMARK SMILES IDX 11 15 24 16 20 17 23 18 21 19 22 20 12 22 13 23 14 24 15 25
REMARK SMILES IDX 19 26 16 27 18 28 17 29
REMARK H PARENT 8 2 21 21
ROOT
ATOM      1  N   UNL     1       4.600  46.982  54.624  1.00  0.00    -0.324 N 
ATOM      2  H   UNL     1       4.574  47.572  55.442  1.00  0.00     0.170 HD
ENDROOT
BRANCH   1   3
ATOM      3  C   UNL     1       3.413  46.322  54.289  1.00  0.00     0.041 A 
ATOM      4  C   UNL     1       1.042  45.001  53.444  1.00  0.00    -0.034 A 
ATOM      5  C   UNL     1       1.599  46.026  52.673  1.00  0.00     0.007 A 
ATOM      6  C   UNL     1       1.674  44.645  54.639  1.00  0.00     0.007 A 
ATOM      7  C   UNL     1       2.769  46.670  53.091  1.00  0.00     0.026 A 
ATOM      8  C   UNL     1       2.850  45.292  55.046  1.00  0.00     0.026 A 
BRANCH   4   9
ATOM      9  C   UNL     1      -0.222  44.303  53.003  1.00  0.00     0.155 C 
BRANCH   9  10
ATOM     10  C   UNL     1      -0.210  42.861  53.288  1.00  0.00     0.067 C 
ATOM     11  N   UNL     1      -0.235  41.720  53.503  1.00  0.00    -0.198 NA
ENDBRANCH   9  10
ENDBRANCH   4   9
ENDBRANCH   1   3
BRANCH   1  12
ATOM     12  C   UNL     1       5.920  46.887  54.180  1.00  0.00     0.232 A 
ATOM     13  N   UNL     1       6.039  46.337  52.950  1.00  0.00    -0.175 NA
ATOM     14  N   UNL     1       6.938  47.302  54.939  1.00  0.00    -0.191 NA
ATOM     15  C   UNL     1       7.260  46.187  52.403  1.00  0.00     0.245 A 
ATOM     16  C   UNL     1       8.148  47.148  54.383  1.00  0.00     0.186 A 
ATOM     17  C   UNL     1       8.340  46.606  53.132  1.00  0.00     0.148 A 
ATOM     18  N   UNL     1       9.344  47.503  54.948  1.00  0.00    -0.217 NA
ATOM     19  N   UNL     1       9.689  46.636  52.932  1.00  0.00    -0.339 N 
ATOM     20  C   UNL     1      10.253  47.184  54.052  1.00  0.00     0.199 A 
ATOM     21  H   UNL     1      10.175  46.317  52.104  1.00  0.00     0.168 HD
BRANCH  15  22
ATOM     22  O   UNL     1       7.438  45.662  51.146  1.00  0.00    -0.476 OA
BRANCH  22  23
ATOM     23  C   UNL     1       6.246  45.279  50.456  1.00  0.00     0.235 C 
BRANCH  23  24
ATOM     24  C   UNL     1       5.797  43.855  50.834  1.00  0.00     0.027 C 
ATOM     25  C   UNL     1       4.310  43.795  51.216  1.00  0.00     0.007 C 
ATOM     26  C   UNL     1       6.095  42.850  49.708  1.00  0.00     0.007 C 
ATOM     27  C   UNL     1       3.890  42.379  51.607  1.00  0.00     0.000 C 
ATOM     28  C   UNL     1       5.673  41.434  50.094  1.00  0.00     0.000 C 
ATOM     29  C   UNL     1       4.205  41.376  50.502  1.00  0.00     0.000 C 
ENDBRANCH  23  24
ENDBRANCH  22  23
ENDBRANCH  15  22
ENDBRANCH   1  12
TORSDOF 7
ENDMDL
MODEL 2
REMARK VINA RESULT:    -9.051      1.847      6.650
REMARK INTER + INTRA:         -13.922
REMARK INTER:                 -12.899
REMARK INTRA:                  -1.023
REMARK UNBOUND:                -1.167
REMARK SMILES N#CCc1ccc(Nc2nc(OCC3CCCCC3)c3[nH]cnc3n2)cc1
REMARK SMILES IDX 8 1 7 3 4 4 5 5 27 6 6 7 26 8 3 9 2 10 1 11 9 12 10 13 25 14
REMARK SMILES IDX 11 15 24 16 20 17 23 18 21 19 22 20 12 22 13 23 14 24 15 25
REMARK SMILES IDX 19 26 16 27 18 28 17 29
REMARK H PARENT 8 2 21 21
ROOT
ATOM      1  N   UNL     1       3.781  46.829  53.618  1.00  0.00    -0.324 N 
ATOM      2  H   UNL     1       3.259  47.691  53.548  1.00  0.00     0.170 HD
ENDROOT
BRANCH   1   3
ATOM      3  C   UNL     1       5.173  46.929  53.520  1.00  0.00     0.041 A 
ATOM      4  C   UNL     1       8.013  47.019  53.447  1.00  0.00    -0.034 A 
ATOM      5  C   UNL     1       7.339  46.798  54.652  1.00  0.00     0.007 A 
ATOM      6  C   UNL     1       7.260  47.199  52.282  1.00  0.00     0.007 A 
ATOM      7  C   UNL     1       5.940  46.750  54.681  1.00  0.00     0.026 A 
ATOM      8  C   UNL     1       5.859  47.142  52.322  1.00  0.00     0.026 A 
BRANCH   4   9
ATOM      9  C   UNL     1       9.521  47.076  53.406  1.00  0.00     0.155 C 
BRANCH   9  10
ATOM     10  C   UNL     1      10.124  47.268  54.733  1.00  0.00     0.067 C 
ATOM     11  N   UNL     1      10.594  47.385  55.787  1.00  0.00    -0.198 NA
ENDBRANCH   9  10
ENDBRANCH   4   9
ENDBRANCH   1   3
BRANCH   1  12
ATOM     12  C   UNL     1       2.884  45.761  53.620  1.00  0.00     0.232 A 
ATOM     13  N   UNL     1       3.384  44.635  53.061  1.00  0.00    -0.175 NA
ATOM     14  N   UNL     1       1.654  45.888  54.125  1.00  0.00    -0.191 NA
ATOM     15  C   UNL     1       2.621  43.527  52.999  1.00  0.00     0.245 A 
ATOM     16  C   UNL     1       0.905  44.778  54.058  1.00  0.00     0.186 A 
ATOM     17  C   UNL     1       1.354  43.596  53.513  1.00  0.00     0.148 A 
ATOM     18  N   UNL     1      -0.380  44.646  54.514  1.00  0.00    -0.217 NA
ATOM     19  N   UNL     1       0.314  42.722  53.646  1.00  0.00    -0.339 N 
ATOM     20  C   UNL     1      -0.708  43.399  54.253  1.00  0.00     0.199 A 
ATOM     21  H   UNL     1       0.310  41.755  53.353  1.00  0.00     0.168 HD
BRANCH  15  22
ATOM     22  O   UNL     1       3.086  42.347  52.470  1.00  0.00    -0.476 OA
BRANCH  22  23
ATOM     23  C   UNL     1       3.437  42.382  51.085  1.00  0.00     0.235 C 
BRANCH  23  24
ATOM     24  C   UNL     1       4.952  42.562  50.881  1.00  0.00     0.027 C 
ATOM     25  C   UNL     1       5.537  41.529  49.906  1.00  0.00     0.007 C 
ATOM     26  C   UNL     1       5.295  43.986  50.409  1.00  0.00     0.007 C 
ATOM     27  C   UNL     1       7.044  41.712  49.734  1.00  0.00     0.000 C 
ATOM     28  C   UNL     1       6.800  44.172  50.233  1.00  0.00     0.000 C 
ATOM     29  C   UNL     1       7.389  43.129  49.289  1.00  0.00     0.000 C 
ENDBRANCH  23  24
ENDBRANCH  22  23
ENDBRANCH  15  22
ENDBRANCH   1  12
TORSDOF 7
ENDMDL
MODEL 3
REMARK VINA RESULT:    -8.990      2.497      6.685
REMARK INTER + INTRA:         -13.837
REMARK INTER:                 -12.959
REMARK INTRA:                  -0.878
REMARK UNBOUND:                -1.167
REMARK SMILES N#CCc1ccc(Nc2nc(OCC3CCCCC3)c3[nH]cnc3n2)cc1
REMARK SMILES IDX 8 1 7 3 4 4 5 5 27 6 6 7 26 8 3 9 2 10 1 11 9 12 10 13 25 14
REMARK SMILES IDX 11 15 24 16 20 17 23 18 21 19 22 20 12 22 13 23 14 24 15 25
REMARK SMILES IDX 19 26 16 27 18 28 17 29
REMARK H PARENT 8 2 21 21
ROOT
ATOM      1  N   UNL     1       2.881  43.184  52.372  1.00  0.00    -0.324 N 
ATOM      2  H   UNL     1       2.144  42.499  52.298  1.00  0.00     0.170 HD
ENDROOT
BRANCH   1   3
ATOM      3  C   UNL     1       3.931  43.077  51.454  1.00  0.00     0.041 A 
ATOM      4  C   UNL     1       6.143  42.986  49.670  1.00  0.00    -0.034 A 
ATOM      5  C   UNL     1       5.732  44.198  50.234  1.00  0.00     0.007 A 
ATOM      6  C   UNL     1       5.439  41.823  50.000  1.00  0.00     0.007 A 
ATOM      7  C   UNL     1       4.646  44.236  51.115  1.00  0.00     0.026 A 
ATOM      8  C   UNL     1       4.356  41.872  50.889  1.00  0.00     0.026 A 
BRANCH   4   9
ATOM      9  C   UNL     1       7.311  42.935  48.716  1.00  0.00     0.155 C 
BRANCH   9  10
ATOM     10  C   UNL     1       8.497  43.642  49.222  1.00  0.00     0.067 C 
ATOM     11  N   UNL     1       9.436  44.176  49.648  1.00  0.00    -0.198 NA
ENDBRANCH   9  10
ENDBRANCH   4   9
ENDBRANCH   1   3
BRANCH   1  12
ATOM     12  C   UNL     1       2.677  43.941  53.526  1.00  0.00     0.232 A 
ATOM     13  N   UNL     1       3.772  44.628  53.923  1.00  0.00    -0.175 NA
ATOM     14  N   UNL     1       1.497  43.945  54.153  1.00  0.00    -0.191 NA
ATOM     15  C   UNL     1       3.711  45.400  55.024  1.00  0.00     0.245 A 
ATOM     16  C   UNL     1       1.449  44.718  55.248  1.00  0.00     0.186 A 
ATOM     17  C   UNL     1       2.522  45.452  55.701  1.00  0.00     0.148 A 
ATOM     18  N   UNL     1       0.358  44.901  56.056  1.00  0.00    -0.217 NA
ATOM     19  N   UNL     1       2.069  46.100  56.813  1.00  0.00    -0.339 N 
ATOM     20  C   UNL     1       0.761  45.738  56.988  1.00  0.00     0.199 A 
ATOM     21  H   UNL     1       2.603  46.734  57.391  1.00  0.00     0.168 HD
BRANCH  15  22
ATOM     22  O   UNL     1       4.783  46.143  55.458  1.00  0.00    -0.476 OA
BRANCH  22  23
ATOM     23  C   UNL     1       5.255  47.141  54.550  1.00  0.00     0.235 C 
BRANCH  23  24
ATOM     24  C   UNL     1       6.535  46.693  53.820  1.00  0.00     0.027 C 
ATOM     25  C   UNL     1       6.569  47.167  52.359  1.00  0.00     0.007 C 
ATOM     26  C   UNL     1       7.801  47.162  54.557  1.00  0.00     0.007 C 
ATOM     27  C   UNL     1       7.835  46.696  51.646  1.00  0.00     0.000 C 
ATOM     28  C   UNL     1       9.070  46.695  53.847  1.00  0.00     0.000 C 
ATOM     29  C   UNL     1       9.092  47.139  52.387  1.00  0.00     0.000 C 
ENDBRANCH  23  24
ENDBRANCH  22  23
ENDBRANCH  15  22
ENDBRANCH   1  12
TORSDOF 7
ENDMDL
MODEL 4
REMARK VINA RESULT:    -8.948      2.051      6.686
REMARK INTER + INTRA:         -13.776
REMARK INTER:                 -12.541
REMARK INTRA:                  -1.235
REMARK UNBOUND:                -1.167
REMARK SMILES N#CCc1ccc(Nc2nc(OCC3CCCCC3)c3[nH]cnc3n2)cc1
REMARK SMILES IDX 8 1 7 3 4 4 5 5 27 6 6 7 26 8 3 9 2 10 1 11 9 12 10 13 25 14
REMARK SMILES IDX 11 15 24 16 20 17 23 18 21 19 22 20 12 22 13 23 14 24 15 25
REMARK SMILES IDX 19 26 16 27 18 28 17 29
REMARK H PARENT 8 2 21 21
ROOT
ATOM      1  N   UNL     1       3.840  46.658  53.713  1.00  0.00    -0.324 N 
ATOM      2  H   UNL     1       3.331  47.286  54.317  1.00  0.00     0.170 HD
ENDROOT
BRANCH   1   3
ATOM      3  C   UNL     1       5.227  46.835  53.651  1.00  0.00     0.041 A 
ATOM      4  C   UNL     1       8.062  47.034  53.582  1.00  0.00    -0.034 A 
ATOM      5  C   UNL     1       7.426  46.248  54.548  1.00  0.00     0.007 A 
ATOM      6  C   UNL     1       7.271  47.722  52.655  1.00  0.00     0.007 A 
ATOM      7  C   UNL     1       6.030  46.150  54.574  1.00  0.00     0.026 A 
ATOM      8  C   UNL     1       5.874  47.611  52.686  1.00  0.00     0.026 A 
BRANCH   4   9
ATOM      9  C   UNL     1       9.566  47.149  53.548  1.00  0.00     0.155 C 
BRANCH   9  10
ATOM     10  C   UNL     1      10.157  47.335  54.881  1.00  0.00     0.067 C 
ATOM     11  N   UNL     1      10.650  47.459  55.925  1.00  0.00    -0.198 NA
ENDBRANCH   9  10
ENDBRANCH   4   9
ENDBRANCH   1   3
BRANCH   1  12
ATOM     12  C   UNL     1       2.926  45.902  52.978  1.00  0.00     0.232 A 
ATOM     13  N   UNL     1       3.495  44.888  52.287  1.00  0.00    -0.175 NA
ATOM     14  N   UNL     1       1.623  46.196  52.979  1.00  0.00    -0.191 NA
ATOM     15  C   UNL     1       2.724  44.079  51.536  1.00  0.00     0.245 A 
ATOM     16  C   UNL     1       0.866  45.382  52.229  1.00  0.00     0.186 A 
ATOM     17  C   UNL     1       1.378  44.326  51.509  1.00  0.00     0.148 A 
ATOM     18  N   UNL     1      -0.492  45.464  52.073  1.00  0.00    -0.217 NA
ATOM     19  N   UNL     1       0.300  43.750  50.902  1.00  0.00    -0.339 N 
ATOM     20  C   UNL     1      -0.804  44.470  51.271  1.00  0.00     0.199 A 
ATOM     21  H   UNL     1       0.320  42.939  50.299  1.00  0.00     0.168 HD
BRANCH  15  22
ATOM     22  O   UNL     1       3.243  43.016  50.836  1.00  0.00    -0.476 OA
BRANCH  22  23
ATOM     23  C   UNL     1       4.588  42.655  51.161  1.00  0.00     0.235 C 
BRANCH  23  24
ATOM     24  C   UNL     1       5.609  43.379  50.265  1.00  0.00     0.027 C 
ATOM     25  C   UNL     1       6.445  44.405  51.045  1.00  0.00     0.007 C 
ATOM     26  C   UNL     1       6.534  42.384  49.543  1.00  0.00     0.007 C 
ATOM     27  C   UNL     1       7.437  45.127  50.135  1.00  0.00     0.000 C 
ATOM     28  C   UNL     1       7.530  43.102  48.634  1.00  0.00     0.000 C 
ATOM     29  C   UNL     1       8.340  44.143  49.399  1.00  0.00     0.000 C 
ENDBRANCH  23  24
ENDBRANCH  22  23
ENDBRANCH  15  22
ENDBRANCH   1  12
TORSDOF 7
ENDMDL
MODEL 5
REMARK VINA RESULT:    -8.747      2.616      7.237
REMARK INTER + INTRA:         -13.494
REMARK INTER:                 -12.491
REMARK INTRA:                  -1.002
REMARK UNBOUND:                -1.167
REMARK SMILES N#CCc1ccc(Nc2nc(OCC3CCCCC3)c3[nH]cnc3n2)cc1
REMARK SMILES IDX 8 1 7 3 4 4 5 5 27 6 6 7 26 8 3 9 2 10 1 11 9 12 10 13 25 14
REMARK SMILES IDX 11 15 24 16 20 17 23 18 21 19 22 20 12 22 13 23 14 24 15 25
REMARK SMILES IDX 19 26 16 27 18 28 17 29
REMARK H PARENT 8 2 21 21
ROOT
ATOM      1  N   UNL     1       7.823  45.218  50.357  1.00  0.00    -0.324 N 
ATOM      2  H   UNL     1       8.351  45.298  49.500  1.00  0.00     0.170 HD
ENDROOT
BRANCH   1   3
ATOM      3  C   UNL     1       8.262  45.991  51.438  1.00  0.00     0.041 A 
ATOM      4  C   UNL     1       9.005  47.529  53.710  1.00  0.00    -0.034 A 
ATOM      5  C   UNL     1       7.671  47.474  53.293  1.00  0.00     0.007 A 
ATOM      6  C   UNL     1       9.962  46.816  52.982  1.00  0.00     0.007 A 
ATOM      7  C   UNL     1       7.310  46.710  52.176  1.00  0.00     0.026 A 
ATOM      8  C   UNL     1       9.589  46.049  51.869  1.00  0.00     0.026 A 
BRANCH   4   9
ATOM      9  C   UNL     1       9.404  48.353  54.910  1.00  0.00     0.155 C 
BRANCH   9  10
ATOM     10  C   UNL     1      10.417  47.693  55.747  1.00  0.00     0.067 C 
ATOM     11  N   UNL     1      11.227  47.205  56.420  1.00  0.00    -0.198 NA
ENDBRANCH   9  10
ENDBRANCH   4   9
ENDBRANCH   1   3
BRANCH   1  12
ATOM     12  C   UNL     1       6.893  44.188  50.217  1.00  0.00     0.232 A 
ATOM     13  N   UNL     1       6.012  44.112  51.241  1.00  0.00    -0.175 NA
ATOM     14  N   UNL     1       6.917  43.370  49.160  1.00  0.00    -0.191 NA
ATOM     15  C   UNL     1       5.059  43.161  51.230  1.00  0.00     0.245 A 
ATOM     16  C   UNL     1       5.962  42.429  49.161  1.00  0.00     0.186 A 
ATOM     17  C   UNL     1       5.028  42.302  50.164  1.00  0.00     0.148 A 
ATOM     18  N   UNL     1       5.766  41.482  48.191  1.00  0.00    -0.217 NA
ATOM     19  N   UNL     1       4.242  41.251  49.791  1.00  0.00    -0.339 N 
ATOM     20  C   UNL     1       4.724  40.788  48.597  1.00  0.00     0.199 A 
ATOM     21  H   UNL     1       3.449  40.890  50.303  1.00  0.00     0.168 HD
BRANCH  15  22
ATOM     22  O   UNL     1       4.120  43.055  52.228  1.00  0.00    -0.476 OA
BRANCH  22  23
ATOM     23  C   UNL     1       2.906  43.781  52.019  1.00  0.00     0.235 C 
BRANCH  23  24
ATOM     24  C   UNL     1       2.907  45.127  52.766  1.00  0.00     0.027 C 
ATOM     25  C   UNL     1       3.889  45.139  53.947  1.00  0.00     0.007 C 
ATOM     26  C   UNL     1       3.206  46.300  51.817  1.00  0.00     0.007 C 
ATOM     27  C   UNL     1       3.860  46.475  54.686  1.00  0.00     0.000 C 
ATOM     28  C   UNL     1       3.180  47.638  52.554  1.00  0.00     0.000 C 
ATOM     29  C   UNL     1       4.133  47.643  53.745  1.00  0.00     0.000 C 
ENDBRANCH  23  24
ENDBRANCH  22  23
ENDBRANCH  15  22
ENDBRANCH   1  12
TORSDOF 7
ENDMDL
MODEL 6
REMARK VINA RESULT:    -8.741      2.579      5.308
REMARK INTER + INTRA:         -13.486
REMARK INTER:                 -12.979
REMARK INTRA:                  -0.506
REMARK UNBOUND:                -1.167
REMARK SMILES N#CCc1ccc(Nc2nc(OCC3CCCCC3)c3[nH]cnc3n2)cc1
REMARK SMILES IDX 8 1 7 3 4 4 5 5 27 6 6 7 26 8 3 9 2 10 1 11 9 12 10 13 25 14
REMARK SMILES IDX 11 15 24 16 20 17 23 18 21 19 22 20 12 22 13 23 14 24 15 25
REMARK SMILES IDX 19 26 16 27 18 28 17 29
REMARK H PARENT 8 2 21 21
ROOT
ATOM      1  N   UNL     1       2.143  43.003  53.040  1.00  0.00    -0.324 N 
ATOM      2  H   UNL     1       1.661  42.169  52.739  1.00  0.00     0.170 HD
ENDROOT
BRANCH   1   3
ATOM      3  C   UNL     1       1.489  43.799  53.987  1.00  0.00     0.041 A 
ATOM      4  C   UNL     1       0.041  45.296  55.922  1.00  0.00    -0.034 A 
ATOM      5  C   UNL     1      -0.630  44.478  55.007  1.00  0.00     0.007 A 
ATOM      6  C   UNL     1       1.436  45.363  55.860  1.00  0.00     0.007 A 
ATOM      7  C   UNL     1       0.089  43.739  54.059  1.00  0.00     0.026 A 
ATOM      8  C   UNL     1       2.147  44.614  54.911  1.00  0.00     0.026 A 
BRANCH   4   9
ATOM      9  C   UNL     1      -0.726  46.099  56.944  1.00  0.00     0.155 C 
BRANCH   9  10
ATOM     10  C   UNL     1       0.143  46.720  57.954  1.00  0.00     0.067 C 
ATOM     11  N   UNL     1       0.851  47.182  58.750  1.00  0.00    -0.198 NA
ENDBRANCH   9  10
ENDBRANCH   4   9
ENDBRANCH   1   3
BRANCH   1  12
ATOM     12  C   UNL     1       3.278  43.177  52.246  1.00  0.00     0.232 A 
ATOM     13  N   UNL     1       3.724  44.453  52.213  1.00  0.00    -0.175 NA
ATOM     14  N   UNL     1       3.829  42.151  51.591  1.00  0.00    -0.191 NA
ATOM     15  C   UNL     1       4.813  44.758  51.483  1.00  0.00     0.245 A 
ATOM     16  C   UNL     1       4.913  42.468  50.869  1.00  0.00     0.186 A 
ATOM     17  C   UNL     1       5.427  43.743  50.799  1.00  0.00     0.148 A 
ATOM     18  N   UNL     1       5.663  41.600  50.120  1.00  0.00    -0.217 NA
ATOM     19  N   UNL     1       6.520  43.646  49.988  1.00  0.00    -0.339 N 
ATOM     20  C   UNL     1       6.622  42.337  49.603  1.00  0.00     0.199 A 
ATOM     21  H   UNL     1       7.138  44.402  49.729  1.00  0.00     0.168 HD
BRANCH  15  22
ATOM     22  O   UNL     1       5.329  46.031  51.436  1.00  0.00    -0.476 OA
BRANCH  22  23
ATOM     23  C   UNL     1       5.543  46.663  52.700  1.00  0.00     0.235 C 
BRANCH  23  24
ATOM     24  C   UNL     1       6.982  47.194  52.840  1.00  0.00     0.027 C 
ATOM     25  C   UNL     1       7.590  46.875  54.214  1.00  0.00     0.007 C 
ATOM     26  C   UNL     1       7.894  46.660  51.721  1.00  0.00     0.007 C 
ATOM     27  C   UNL     1       9.009  47.427  54.340  1.00  0.00     0.000 C 
ATOM     28  C   UNL     1       9.314  47.208  51.845  1.00  0.00     0.000 C 
ATOM     29  C   UNL     1       9.910  46.919  53.220  1.00  0.00     0.000 C 
ENDBRANCH  23  24
ENDBRANCH  22  23
ENDBRANCH  15  22
ENDBRANCH   1  12
TORSDOF 7
ENDMDL
MODEL 7
REMARK VINA RESULT:    -8.652      2.612      6.929
REMARK INTER + INTRA:         -13.360
REMARK INTER:                 -11.755
REMARK INTRA:                  -1.605
REMARK UNBOUND:                -1.167
REMARK SMILES N#CCc1ccc(Nc2nc(OCC3CCCCC3)c3[nH]cnc3n2)cc1
REMARK SMILES IDX 8 1 7 3 4 4 5 5 27 6 6 7 26 8 3 9 2 10 1 11 9 12 10 13 25 14
REMARK SMILES IDX 11 15 24 16 20 17 23 18 21 19 22 20 12 22 13 23 14 24 15 25
REMARK SMILES IDX 19 26 16 27 18 28 17 29
REMARK H PARENT 8 2 21 21
ROOT
ATOM      1  N   UNL     1       3.228  46.009  55.955  1.00  0.00    -0.324 N 
ATOM      2  H   UNL     1       3.251  46.421  56.875  1.00  0.00     0.170 HD
ENDROOT
BRANCH   1   3
ATOM      3  C   UNL     1       4.334  46.251  55.131  1.00  0.00     0.041 A 
ATOM      4  C   UNL     1       6.594  46.576  53.438  1.00  0.00    -0.034 A 
ATOM      5  C   UNL     1       6.483  45.457  54.270  1.00  0.00     0.007 A 
ATOM      6  C   UNL     1       5.572  47.530  53.461  1.00  0.00     0.007 A 
ATOM      7  C   UNL     1       5.365  45.301  55.099  1.00  0.00     0.026 A 
ATOM      8  C   UNL     1       4.454  47.360  54.290  1.00  0.00     0.026 A 
BRANCH   4   9
ATOM      9  C   UNL     1       7.796  46.756  52.544  1.00  0.00     0.155 C 
BRANCH   9  10
ATOM     10  C   UNL     1       9.038  46.994  53.294  1.00  0.00     0.067 C 
ATOM     11  N   UNL     1      10.004  47.212  53.901  1.00  0.00    -0.198 NA
ENDBRANCH   9  10
ENDBRANCH   4   9
ENDBRANCH   1   3
BRANCH   1  12
ATOM     12  C   UNL     1       1.967  45.451  55.743  1.00  0.00     0.232 A 
ATOM     13  N   UNL     1       1.802  44.940  54.502  1.00  0.00    -0.175 NA
ATOM     14  N   UNL     1       1.037  45.457  56.702  1.00  0.00    -0.191 NA
ATOM     15  C   UNL     1       0.629  44.371  54.166  1.00  0.00     0.245 A 
ATOM     16  C   UNL     1      -0.126  44.886  56.356  1.00  0.00     0.186 A 
ATOM     17  C   UNL     1      -0.357  44.337  55.115  1.00  0.00     0.148 A 
ATOM     18  N   UNL     1      -1.228  44.755  57.159  1.00  0.00    -0.217 NA
ATOM     19  N   UNL     1      -1.633  43.857  55.167  1.00  0.00    -0.339 N 
ATOM     20  C   UNL     1      -2.118  44.132  56.417  1.00  0.00     0.199 A 
ATOM     21  H   UNL     1      -2.121  43.383  54.420  1.00  0.00     0.168 HD
BRANCH  15  22
ATOM     22  O   UNL     1       0.416  43.810  52.930  1.00  0.00    -0.476 OA
BRANCH  22  23
ATOM     23  C   UNL     1       0.666  44.660  51.809  1.00  0.00     0.235 C 
BRANCH  23  24
ATOM     24  C   UNL     1       2.047  44.394  51.183  1.00  0.00     0.027 C 
ATOM     25  C   UNL     1       3.020  45.564  51.399  1.00  0.00     0.007 C 
ATOM     26  C   UNL     1       2.666  43.088  51.710  1.00  0.00     0.007 C 
ATOM     27  C   UNL     1       4.377  45.289  50.753  1.00  0.00     0.000 C 
ATOM     28  C   UNL     1       4.024  42.811  51.069  1.00  0.00     0.000 C 
ATOM     29  C   UNL     1       4.983  43.983  51.256  1.00  0.00     0.000 C 
ENDBRANCH  23  24
ENDBRANCH  22  23
ENDBRANCH  15  22
ENDBRANCH   1  12
TORSDOF 7
ENDMDL
MODEL 8
REMARK VINA RESULT:    -8.546      2.528      5.194
REMARK INTER + INTRA:         -13.211
REMARK INTER:                 -12.646
REMARK INTRA:                  -0.565
REMARK UNBOUND:                -1.167
REMARK SMILES N#CCc1ccc(Nc2nc(OCC3CCCCC3)c3[nH]cnc3n2)cc1
REMARK SMILES IDX 8 1 7 3 4 4 5 5 27 6 6 7 26 8 3 9 2 10 1 11 9 12 10 13 25 14
REMARK SMILES IDX 11 15 24 16 20 17 23 18 21 19 22 20 12 22 13 23 14 24 15 25
REMARK SMILES IDX 19 26 16 27 18 28 17 29
REMARK H PARENT 8 2 21 21
ROOT
ATOM      1  N   UNL     1       2.961  44.218  54.183  1.00  0.00    -0.324 N 
ATOM      2  H   UNL     1       3.603  44.497  54.910  1.00  0.00     0.170 HD
ENDROOT
BRANCH   1   3
ATOM      3  C   UNL     1       1.607  44.162  54.531  1.00  0.00     0.041 A 
ATOM      4  C   UNL     1      -1.132  44.208  55.290  1.00  0.00    -0.034 A 
ATOM      5  C   UNL     1      -0.184  44.952  56.000  1.00  0.00     0.007 A 
ATOM      6  C   UNL     1      -0.702  43.440  54.203  1.00  0.00     0.007 A 
ATOM      7  C   UNL     1       1.163  44.929  55.619  1.00  0.00     0.026 A 
ATOM      8  C   UNL     1       0.648  43.430  53.826  1.00  0.00     0.026 A 
BRANCH   4   9
ATOM      9  C   UNL     1      -2.586  44.224  55.696  1.00  0.00     0.155 C 
BRANCH   9  10
ATOM     10  C   UNL     1      -2.926  43.158  56.649  1.00  0.00     0.067 C 
ATOM     11  N   UNL     1      -3.224  42.307  57.382  1.00  0.00    -0.198 NA
ENDBRANCH   9  10
ENDBRANCH   4   9
ENDBRANCH   1   3
BRANCH   1  12
ATOM     12  C   UNL     1       3.694  43.800  53.072  1.00  0.00     0.232 A 
ATOM     13  N   UNL     1       4.587  44.718  52.636  1.00  0.00    -0.175 NA
ATOM     14  N   UNL     1       3.490  42.601  52.518  1.00  0.00    -0.191 NA
ATOM     15  C   UNL     1       5.360  44.440  51.570  1.00  0.00     0.245 A 
ATOM     16  C   UNL     1       4.267  42.337  51.458  1.00  0.00     0.186 A 
ATOM     17  C   UNL     1       5.202  43.220  50.969  1.00  0.00     0.148 A 
ATOM     18  N   UNL     1       4.260  41.179  50.725  1.00  0.00    -0.217 NA
ATOM     19  N   UNL     1       5.781  42.580  49.911  1.00  0.00    -0.339 N 
ATOM     20  C   UNL     1       5.181  41.355  49.802  1.00  0.00     0.199 A 
ATOM     21  H   UNL     1       6.519  42.947  49.326  1.00  0.00     0.168 HD
BRANCH  15  22
ATOM     22  O   UNL     1       6.304  45.322  51.100  1.00  0.00    -0.476 OA
BRANCH  22  23
ATOM     23  C   UNL     1       6.242  46.644  51.640  1.00  0.00     0.235 C 
BRANCH  23  24
ATOM     24  C   UNL     1       7.603  47.102  52.195  1.00  0.00     0.027 C 
ATOM     25  C   UNL     1       7.609  47.186  53.729  1.00  0.00     0.007 C 
ATOM     26  C   UNL     1       8.747  46.194  51.711  1.00  0.00     0.007 C 
ATOM     27  C   UNL     1       8.961  47.661  54.259  1.00  0.00     0.000 C 
ATOM     28  C   UNL     1      10.100  46.665  52.240  1.00  0.00     0.000 C 
ATOM     29  C   UNL     1      10.100  46.778  53.761  1.00  0.00     0.000 C 
ENDBRANCH  23  24
ENDBRANCH  22  23
ENDBRANCH  15  22
ENDBRANCH   1  12
TORSDOF 7
ENDMDL
MODEL 9
REMARK VINA RESULT:    -8.527      3.352      7.653
REMARK INTER + INTRA:         -13.183
REMARK INTER:                 -12.122
REMARK INTRA:                  -1.061
REMARK UNBOUND:                -1.167
REMARK SMILES N#CCc1ccc(Nc2nc(OCC3CCCCC3)c3[nH]cnc3n2)cc1
REMARK SMILES IDX 8 1 7 3 4 4 5 5 27 6 6 7 26 8 3 9 2 10 1 11 9 12 10 13 25 14
REMARK SMILES IDX 11 15 24 16 20 17 23 18 21 19 22 20 12 22 13 23 14 24 15 25
REMARK SMILES IDX 19 26 16 27 18 28 17 29
REMARK H PARENT 8 2 21 21
ROOT
ATOM      1  N   UNL     1       7.722  43.577  48.939  1.00  0.00    -0.324 N 
ATOM      2  H   UNL     1       8.314  43.394  48.143  1.00  0.00     0.170 HD
ENDROOT
BRANCH   1   3
ATOM      3  C   UNL     1       8.224  44.458  49.904  1.00  0.00     0.041 A 
ATOM      4  C   UNL     1       9.394  46.241  51.783  1.00  0.00    -0.034 A 
ATOM      5  C   UNL     1      10.161  45.239  51.180  1.00  0.00     0.007 A 
ATOM      6  C   UNL     1       8.041  46.342  51.445  1.00  0.00     0.007 A 
ATOM      7  C   UNL     1       9.580  44.367  50.252  1.00  0.00     0.026 A 
ATOM      8  C   UNL     1       7.471  45.468  50.508  1.00  0.00     0.026 A 
BRANCH   4   9
ATOM      9  C   UNL     1      10.010  47.184  52.788  1.00  0.00     0.155 C 
BRANCH   9  10
ATOM     10  C   UNL     1       9.110  47.495  53.909  1.00  0.00     0.067 C 
ATOM     11  N   UNL     1       8.395  47.706  54.799  1.00  0.00    -0.198 NA
ENDBRANCH   9  10
ENDBRANCH   4   9
ENDBRANCH   1   3
BRANCH   1  12
ATOM     12  C   UNL     1       6.623  42.719  48.890  1.00  0.00     0.232 A 
ATOM     13  N   UNL     1       6.070  42.478  50.100  1.00  0.00    -0.175 NA
ATOM     14  N   UNL     1       6.201  42.199  47.734  1.00  0.00    -0.191 NA
ATOM     15  C   UNL     1       5.001  41.665  50.194  1.00  0.00     0.245 A 
ATOM     16  C   UNL     1       5.135  41.393  47.840  1.00  0.00     0.186 A 
ATOM     17  C   UNL     1       4.517  41.113  49.038  1.00  0.00     0.148 A 
ATOM     18  N   UNL     1       4.507  40.749  46.807  1.00  0.00    -0.217 NA
ATOM     19  N   UNL     1       3.484  40.279  48.723  1.00  0.00    -0.339 N 
ATOM     20  C   UNL     1       3.518  40.087  47.368  1.00  0.00     0.199 A 
ATOM     21  H   UNL     1       2.818  39.885  49.373  1.00  0.00     0.168 HD
BRANCH  15  22
ATOM     22  O   UNL     1       4.380  41.408  51.393  1.00  0.00    -0.476 OA
BRANCH  22  23
ATOM     23  C   UNL     1       3.452  42.400  51.838  1.00  0.00     0.235 C 
BRANCH  23  24
ATOM     24  C   UNL     1       4.088  43.802  51.885  1.00  0.00     0.027 C 
ATOM     25  C   UNL     1       3.207  44.864  51.211  1.00  0.00     0.007 C 
ATOM     26  C   UNL     1       4.419  44.225  53.326  1.00  0.00     0.007 C 
ATOM     27  C   UNL     1       3.864  46.243  51.249  1.00  0.00     0.000 C 
ATOM     28  C   UNL     1       5.075  45.604  53.369  1.00  0.00     0.000 C 
ATOM     29  C   UNL     1       4.216  46.656  52.674  1.00  0.00     0.000 C 
ENDBRANCH  23  24
ENDBRANCH  22  23
ENDBRANCH  15  22
ENDBRANCH   1  12
TORSDOF 7
ENDMDL
MODEL 10
REMARK VINA RESULT:    -8.525      3.786      7.587
REMARK INTER + INTRA:         -13.181
REMARK INTER:                 -12.468
REMARK INTRA:                  -0.713
REMARK UNBOUND:                -1.167
REMARK SMILES N#CCc1ccc(Nc2nc(OCC3CCCCC3)c3[nH]cnc3n2)cc1
REMARK SMILES IDX 8 1 7 3 4 4 5 5 27 6 6 7 26 8 3 9 2 10 1 11 9 12 10 13 25 14
REMARK SMILES IDX 11 15 24 16 20 17 23 18 21 19 22 20 12 22 13 23 14 24 15 25
REMARK SMILES IDX 19 26 16 27 18 28 17 29
REMARK H PARENT 8 2 21 21
ROOT
ATOM      1  N   UNL     1       5.197  41.479  49.941  1.00  0.00    -0.324 N 
ATOM      2  H   UNL     1       6.059  41.114  50.316  1.00  0.00     0.170 HD
ENDROOT
BRANCH   1   3
ATOM      3  C   UNL     1       4.961  41.259  48.580  1.00  0.00     0.041 A 
ATOM      4  C   UNL     1       4.316  40.802  45.849  1.00  0.00    -0.034 A 
ATOM      5  C   UNL     1       3.554  40.220  46.868  1.00  0.00     0.007 A 
ATOM      6  C   UNL     1       5.403  41.607  46.204  1.00  0.00     0.007 A 
ATOM      7  C   UNL     1       3.873  40.453  48.211  1.00  0.00     0.026 A 
ATOM      8  C   UNL     1       5.709  41.839  47.552  1.00  0.00     0.026 A 
BRANCH   4   9
ATOM      9  C   UNL     1       3.982  40.553  44.398  1.00  0.00     0.155 C 
BRANCH   9  10
ATOM     10  C   UNL     1       5.175  40.438  43.547  1.00  0.00     0.067 C 
ATOM     11  N   UNL     1       6.096  40.355  42.846  1.00  0.00    -0.198 NA
ENDBRANCH   9  10
ENDBRANCH   4   9
ENDBRANCH   1   3
BRANCH   1  12
ATOM     12  C   UNL     1       4.581  42.265  50.916  1.00  0.00     0.232 A 
ATOM     13  N   UNL     1       5.316  43.336  51.291  1.00  0.00    -0.175 NA
ATOM     14  N   UNL     1       3.383  41.942  51.412  1.00  0.00    -0.191 NA
ATOM     15  C   UNL     1       4.837  44.178  52.226  1.00  0.00     0.245 A 
ATOM     16  C   UNL     1       2.917  42.788  52.341  1.00  0.00     0.186 A 
ATOM     17  C   UNL     1       3.607  43.903  52.761  1.00  0.00     0.148 A 
ATOM     18  N   UNL     1       1.715  42.687  52.991  1.00  0.00    -0.217 NA
ATOM     19  N   UNL     1       2.800  44.496  53.688  1.00  0.00    -0.339 N 
ATOM     20  C   UNL     1       1.672  43.728  53.794  1.00  0.00     0.199 A 
ATOM     21  H   UNL     1       3.002  45.347  54.195  1.00  0.00     0.168 HD
BRANCH  15  22
ATOM     22  O   UNL     1       5.526  45.298  52.625  1.00  0.00    -0.476 OA
BRANCH  22  23
ATOM     23  C   UNL     1       6.116  46.071  51.577  1.00  0.00     0.235 C 
BRANCH  23  24
ATOM     24  C   UNL     1       7.417  46.758  52.032  1.00  0.00     0.027 C 
ATOM     25  C   UNL     1       7.518  46.860  53.561  1.00  0.00     0.007 C 
ATOM     26  C   UNL     1       8.659  46.049  51.466  1.00  0.00     0.007 C 
ATOM     27  C   UNL     1       8.804  47.562  53.992  1.00  0.00     0.000 C 
ATOM     28  C   UNL     1       9.948  46.747  51.895  1.00  0.00     0.000 C 
ATOM     29  C   UNL     1      10.037  46.877  53.413  1.00  0.00     0.000 C 
ENDBRANCH  23  24
ENDBRANCH  22  23
ENDBRANCH  15  22
ENDBRANCH   1  12
TORSDOF 7
ENDMDL
