MODEL 1
REMARK VINA RESULT:    -9.680      0.000      0.000
REMARK INTER + INTRA:         -13.879
REMARK INTER:                 -13.076
REMARK INTRA:                  -0.804
REMARK UNBOUND:                -0.804
REMARK SMILES COc1cccc(Nc2nc(OCC3CCCCC3)c3[nH]cnc3n2)c1
REMARK SMILES IDX 9 1 10 2 11 3 20 4 21 5 22 6 23 7 24 8 25 9 8 11 7 13 3 14
REMARK SMILES IDX 4 15 26 16 5 17 6 18 2 19 1 20 12 21 13 22 14 23 15 24 19 25
REMARK SMILES IDX 16 26 18 27 17 28
REMARK H PARENT 21 10 8 12
ROOT
ATOM      1  C   UNL     1       3.429  44.016  53.090  1.00  0.00     0.232 A 
ATOM      2  N   UNL     1       4.542  44.599  53.583  1.00  0.00    -0.175 NA
ATOM      3  C   UNL     1       4.467  45.334  54.707  1.00  0.00     0.245 A 
ATOM      4  C   UNL     1       3.246  45.444  55.317  1.00  0.00     0.148 A 
ATOM      5  N   UNL     1       2.778  46.062  56.439  1.00  0.00    -0.339 N 
ATOM      6  C   UNL     1       1.436  45.802  56.515  1.00  0.00     0.199 A 
ATOM      7  N   UNL     1       1.028  45.057  55.511  1.00  0.00    -0.217 NA
ATOM      8  C   UNL     1       2.150  44.826  54.760  1.00  0.00     0.186 A 
ATOM      9  N   UNL     1       2.207  44.102  53.633  1.00  0.00    -0.191 NA
ATOM     10  H   UNL     1       3.324  46.610  57.090  1.00  0.00     0.168 HD
ENDROOT
BRANCH   1  11
ATOM     11  N   UNL     1       3.470  43.258  51.919  1.00  0.00    -0.324 N 
ATOM     12  H   UNL     1       2.555  42.861  51.761  1.00  0.00     0.170 HD
BRANCH  11  13
ATOM     13  C   UNL     1       4.480  42.877  51.029  1.00  0.00     0.045 A 
ATOM     14  C   UNL     1       6.553  43.493  49.867  1.00  0.00     0.120 A 
ATOM     15  C   UNL     1       6.609  42.230  49.285  1.00  0.00     0.046 A 
ATOM     16  C   UNL     1       5.495  43.803  50.731  1.00  0.00     0.072 A 
ATOM     17  C   UNL     1       5.619  41.293  49.572  1.00  0.00     0.006 A 
ATOM     18  C   UNL     1       4.569  41.615  50.439  1.00  0.00     0.026 A 
BRANCH  14  19
ATOM     19  O   UNL     1       7.453  44.507  49.681  1.00  0.00    -0.497 OA
ATOM     20  C   UNL     1       8.778  44.131  49.329  1.00  0.00     0.278 C 
ENDBRANCH  14  19
ENDBRANCH  11  13
ENDBRANCH   1  11
BRANCH   3  21
ATOM     21  O   UNL     1       5.571  45.933  55.268  1.00  0.00    -0.476 OA
BRANCH  21  22
ATOM     22  C   UNL     1       6.080  47.072  54.569  1.00  0.00     0.235 C 
BRANCH  22  23
ATOM     23  C   UNL     1       7.416  46.722  53.898  1.00  0.00     0.027 C 
ATOM     24  C   UNL     1       8.566  47.529  54.508  1.00  0.00     0.007 C 
ATOM     25  C   UNL     1       7.367  46.914  52.370  1.00  0.00     0.007 C 
ATOM     26  C   UNL     1       9.927  47.092  53.959  1.00  0.00     0.000 C 
ATOM     27  C   UNL     1       8.741  47.134  51.732  1.00  0.00     0.000 C 
ATOM     28  C   UNL     1       9.861  46.507  52.549  1.00  0.00     0.000 C 
ENDBRANCH  22  23
ENDBRANCH  21  22
ENDBRANCH   3  21
TORSDOF 6
ENDMDL
MODEL 2
REMARK VINA RESULT:    -9.157      1.786      5.451
REMARK INTER + INTRA:         -13.172
REMARK INTER:                 -12.439
REMARK INTRA:                  -0.733
REMARK UNBOUND:                -0.804
REMARK SMILES COc1cccc(Nc2nc(OCC3CCCCC3)c3[nH]cnc3n2)c1
REMARK SMILES IDX 9 1 10 2 11 3 20 4 21 5 22 6 23 7 24 8 25 9 8 11 7 13 3 14
REMARK SMILES IDX 4 15 26 16 5 17 6 18 2 19 1 20 12 21 13 22 14 23 15 24 19 25
REMARK SMILES IDX 16 26 18 27 17 28
REMARK H PARENT 21 10 8 12
ROOT
ATOM      1  C   UNL     1       4.739  46.413  53.424  1.00  0.00     0.232 A 
ATOM      2  N   UNL     1       4.440  45.438  52.539  1.00  0.00    -0.175 NA
ATOM      3  C   UNL     1       3.439  44.580  52.806  1.00  0.00     0.245 A 
ATOM      4  C   UNL     1       2.749  44.750  53.976  1.00  0.00     0.148 A 
ATOM      5  N   UNL     1       1.697  44.123  54.578  1.00  0.00    -0.339 N 
ATOM      6  C   UNL     1       1.466  44.768  55.763  1.00  0.00     0.199 A 
ATOM      7  N   UNL     1       2.304  45.765  55.946  1.00  0.00    -0.217 NA
ATOM      8  C   UNL     1       3.107  45.763  54.835  1.00  0.00     0.186 A 
ATOM      9  N   UNL     1       4.111  46.616  54.589  1.00  0.00    -0.191 NA
ATOM     10  H   UNL     1       1.188  43.329  54.213  1.00  0.00     0.168 HD
ENDROOT
BRANCH   1  11
ATOM     11  N   UNL     1       5.780  47.311  53.183  1.00  0.00    -0.324 N 
ATOM     12  H   UNL     1       5.385  48.179  52.850  1.00  0.00     0.170 HD
BRANCH  11  13
ATOM     13  C   UNL     1       7.177  47.229  53.210  1.00  0.00     0.045 A 
ATOM     14  C   UNL     1       9.241  47.533  54.502  1.00  0.00     0.120 A 
ATOM     15  C   UNL     1       9.991  47.071  53.425  1.00  0.00     0.046 A 
ATOM     16  C   UNL     1       7.847  47.605  54.386  1.00  0.00     0.072 A 
ATOM     17  C   UNL     1       9.347  46.684  52.251  1.00  0.00     0.006 A 
ATOM     18  C   UNL     1       7.954  46.758  52.150  1.00  0.00     0.026 A 
BRANCH  14  19
ATOM     19  O   UNL     1       9.735  47.941  55.711  1.00  0.00    -0.497 OA
ATOM     20  C   UNL     1      11.024  47.461  56.073  1.00  0.00     0.278 C 
ENDBRANCH  14  19
ENDBRANCH  11  13
ENDBRANCH   1  11
BRANCH   3  21
ATOM     21  O   UNL     1       3.076  43.581  51.932  1.00  0.00    -0.476 OA
BRANCH  21  22
ATOM     22  C   UNL     1       4.007  42.505  51.799  1.00  0.00     0.235 C 
BRANCH  22  23
ATOM     23  C   UNL     1       4.727  42.598  50.446  1.00  0.00     0.027 C 
ATOM     24  C   UNL     1       4.956  41.207  49.848  1.00  0.00     0.007 C 
ATOM     25  C   UNL     1       6.055  43.373  50.547  1.00  0.00     0.007 C 
ATOM     26  C   UNL     1       5.538  41.280  48.433  1.00  0.00     0.000 C 
ATOM     27  C   UNL     1       7.054  43.031  49.438  1.00  0.00     0.000 C 
ATOM     28  C   UNL     1       6.363  42.540  48.173  1.00  0.00     0.000 C 
ENDBRANCH  22  23
ENDBRANCH  21  22
ENDBRANCH   3  21
TORSDOF 6
ENDMDL
MODEL 3
REMARK VINA RESULT:    -9.102      1.478      2.135
REMARK INTER + INTRA:         -13.098
REMARK INTER:                 -12.528
REMARK INTRA:                  -0.570
REMARK UNBOUND:                -0.804
REMARK SMILES COc1cccc(Nc2nc(OCC3CCCCC3)c3[nH]cnc3n2)c1
REMARK SMILES IDX 9 1 10 2 11 3 20 4 21 5 22 6 23 7 24 8 25 9 8 11 7 13 3 14
REMARK SMILES IDX 4 15 26 16 5 17 6 18 2 19 1 20 12 21 13 22 14 23 15 24 19 25
REMARK SMILES IDX 16 26 18 27 17 28
REMARK H PARENT 21 10 8 12
ROOT
ATOM      1  C   UNL     1       3.136  44.228  52.933  1.00  0.00     0.232 A 
ATOM      2  N   UNL     1       4.337  44.638  53.394  1.00  0.00    -0.175 NA
ATOM      3  C   UNL     1       4.414  45.281  54.574  1.00  0.00     0.245 A 
ATOM      4  C   UNL     1       3.251  45.475  55.271  1.00  0.00     0.148 A 
ATOM      5  N   UNL     1       2.925  46.046  56.466  1.00  0.00    -0.339 N 
ATOM      6  C   UNL     1       1.569  45.932  56.612  1.00  0.00     0.199 A 
ATOM      7  N   UNL     1       1.018  45.324  55.583  1.00  0.00    -0.217 NA
ATOM      8  C   UNL     1       2.061  45.033  54.743  1.00  0.00     0.186 A 
ATOM      9  N   UNL     1       1.967  44.405  53.562  1.00  0.00    -0.191 NA
ATOM     10  H   UNL     1       3.569  46.471  57.119  1.00  0.00     0.168 HD
ENDROOT
BRANCH   1  11
ATOM     11  N   UNL     1       3.021  43.572  51.707  1.00  0.00    -0.324 N 
ATOM     12  H   UNL     1       2.066  43.654  51.387  1.00  0.00     0.170 HD
BRANCH  11  13
ATOM     13  C   UNL     1       3.877  42.787  50.927  1.00  0.00     0.045 A 
ATOM     14  C   UNL     1       4.109  40.911  49.361  1.00  0.00     0.120 A 
ATOM     15  C   UNL     1       5.478  41.147  49.271  1.00  0.00     0.046 A 
ATOM     16  C   UNL     1       3.324  41.731  50.182  1.00  0.00     0.072 A 
ATOM     17  C   UNL     1       6.046  42.194  49.994  1.00  0.00     0.006 A 
ATOM     18  C   UNL     1       5.250  43.006  50.809  1.00  0.00     0.026 A 
BRANCH  14  19
ATOM     19  O   UNL     1       3.417  39.927  48.708  1.00  0.00    -0.497 OA
ATOM     20  C   UNL     1       3.386  39.998  47.288  1.00  0.00     0.278 C 
ENDBRANCH  14  19
ENDBRANCH  11  13
ENDBRANCH   1  11
BRANCH   3  21
ATOM     21  O   UNL     1       5.612  45.702  55.104  1.00  0.00    -0.476 OA
BRANCH  21  22
ATOM     22  C   UNL     1       6.154  46.897  54.536  1.00  0.00     0.235 C 
BRANCH  22  23
ATOM     23  C   UNL     1       7.483  46.588  53.832  1.00  0.00     0.027 C 
ATOM     24  C   UNL     1       8.619  47.439  54.405  1.00  0.00     0.007 C 
ATOM     25  C   UNL     1       7.386  46.765  52.304  1.00  0.00     0.007 C 
ATOM     26  C   UNL     1       9.980  47.044  53.822  1.00  0.00     0.000 C 
ATOM     27  C   UNL     1       8.734  47.026  51.627  1.00  0.00     0.000 C 
ATOM     28  C   UNL     1       9.897  46.445  52.419  1.00  0.00     0.000 C 
ENDBRANCH  22  23
ENDBRANCH  21  22
ENDBRANCH   3  21
TORSDOF 6
ENDMDL
MODEL 4
REMARK VINA RESULT:    -9.084      2.407      5.684
REMARK INTER + INTRA:         -13.074
REMARK INTER:                 -12.286
REMARK INTRA:                  -0.788
REMARK UNBOUND:                -0.804
REMARK SMILES COc1cccc(Nc2nc(OCC3CCCCC3)c3[nH]cnc3n2)c1
REMARK SMILES IDX 9 1 10 2 11 3 20 4 21 5 22 6 23 7 24 8 25 9 8 11 7 13 3 14
REMARK SMILES IDX 4 15 26 16 5 17 6 18 2 19 1 20 12 21 13 22 14 23 15 24 19 25
REMARK SMILES IDX 16 26 18 27 17 28
REMARK H PARENT 21 10 8 12
ROOT
ATOM      1  C   UNL     1       3.407  42.849  52.330  1.00  0.00     0.232 A 
ATOM      2  N   UNL     1       3.879  44.103  52.494  1.00  0.00    -0.175 NA
ATOM      3  C   UNL     1       4.932  44.519  51.767  1.00  0.00     0.245 A 
ATOM      4  C   UNL     1       5.474  43.640  50.867  1.00  0.00     0.148 A 
ATOM      5  N   UNL     1       6.496  43.686  49.966  1.00  0.00    -0.339 N 
ATOM      6  C   UNL     1       6.549  42.464  49.351  1.00  0.00     0.199 A 
ATOM      7  N   UNL     1       5.623  41.650  49.807  1.00  0.00    -0.217 NA
ATOM      8  C   UNL     1       4.945  42.375  50.751  1.00  0.00     0.186 A 
ATOM      9  N   UNL     1       3.906  41.942  51.479  1.00  0.00    -0.191 NA
ATOM     10  H   UNL     1       7.100  44.478  49.789  1.00  0.00     0.168 HD
ENDROOT
BRANCH   1  11
ATOM     11  N   UNL     1       2.326  42.382  53.078  1.00  0.00    -0.324 N 
ATOM     12  H   UNL     1       2.533  41.445  53.392  1.00  0.00     0.170 HD
BRANCH  11  13
ATOM     13  C   UNL     1       1.052  42.876  53.380  1.00  0.00     0.045 A 
ATOM     14  C   UNL     1      -0.304  44.408  54.736  1.00  0.00     0.120 A 
ATOM     15  C   UNL     1      -1.452  43.998  54.064  1.00  0.00     0.046 A 
ATOM     16  C   UNL     1       0.932  43.848  54.388  1.00  0.00     0.072 A 
ATOM     17  C   UNL     1      -1.355  43.042  53.055  1.00  0.00     0.006 A 
ATOM     18  C   UNL     1      -0.114  42.492  52.716  1.00  0.00     0.026 A 
BRANCH  14  19
ATOM     19  O   UNL     1      -0.247  45.337  55.740  1.00  0.00    -0.497 OA
ATOM     20  C   UNL     1       0.850  45.244  56.639  1.00  0.00     0.278 C 
ENDBRANCH  14  19
ENDBRANCH  11  13
ENDBRANCH   1  11
BRANCH   3  21
ATOM     21  O   UNL     1       5.442  45.792  51.876  1.00  0.00    -0.476 OA
BRANCH  21  22
ATOM     22  C   UNL     1       5.961  46.144  53.161  1.00  0.00     0.235 C 
BRANCH  22  23
ATOM     23  C   UNL     1       7.495  46.188  53.113  1.00  0.00     0.027 C 
ATOM     24  C   UNL     1       8.050  47.150  54.167  1.00  0.00     0.007 C 
ATOM     25  C   UNL     1       8.022  46.554  51.711  1.00  0.00     0.007 C 
ATOM     26  C   UNL     1       9.580  47.100  54.239  1.00  0.00     0.000 C 
ATOM     27  C   UNL     1       9.431  47.153  51.720  1.00  0.00     0.000 C 
ATOM     28  C   UNL     1      10.243  46.696  52.923  1.00  0.00     0.000 C 
ENDBRANCH  22  23
ENDBRANCH  21  22
ENDBRANCH   3  21
TORSDOF 6
ENDMDL
MODEL 5
REMARK VINA RESULT:    -9.068      2.535      6.409
REMARK INTER + INTRA:         -13.053
REMARK INTER:                 -12.257
REMARK INTRA:                  -0.796
REMARK UNBOUND:                -0.804
REMARK SMILES COc1cccc(Nc2nc(OCC3CCCCC3)c3[nH]cnc3n2)c1
REMARK SMILES IDX 9 1 10 2 11 3 20 4 21 5 22 6 23 7 24 8 25 9 8 11 7 13 3 14
REMARK SMILES IDX 4 15 26 16 5 17 6 18 2 19 1 20 12 21 13 22 14 23 15 24 19 25
REMARK SMILES IDX 16 26 18 27 17 28
REMARK H PARENT 21 10 8 12
ROOT
ATOM      1  C   UNL     1       5.994  47.062  53.749  1.00  0.00     0.232 A 
ATOM      2  N   UNL     1       6.283  46.479  52.566  1.00  0.00    -0.175 NA
ATOM      3  C   UNL     1       7.567  46.259  52.228  1.00  0.00     0.245 A 
ATOM      4  C   UNL     1       8.535  46.627  53.124  1.00  0.00     0.148 A 
ATOM      5  N   UNL     1       9.896  46.558  53.158  1.00  0.00    -0.339 N 
ATOM      6  C   UNL     1      10.299  47.105  54.347  1.00  0.00     0.199 A 
ATOM      7  N   UNL     1       9.276  47.514  55.065  1.00  0.00    -0.217 NA
ATOM      8  C   UNL     1       8.171  47.218  54.312  1.00  0.00     0.186 A 
ATOM      9  N   UNL     1       6.898  47.457  54.656  1.00  0.00    -0.191 NA
ATOM     10  H   UNL     1      10.492  46.173  52.438  1.00  0.00     0.168 HD
ENDROOT
BRANCH   1  11
ATOM     11  N   UNL     1       4.674  47.317  54.123  1.00  0.00    -0.324 N 
ATOM     12  H   UNL     1       4.604  48.281  54.418  1.00  0.00     0.170 HD
BRANCH  11  13
ATOM     13  C   UNL     1       3.522  46.535  54.262  1.00  0.00     0.045 A 
ATOM     14  C   UNL     1       1.468  45.679  53.227  1.00  0.00     0.120 A 
ATOM     15  C   UNL     1       1.179  44.958  54.381  1.00  0.00     0.046 A 
ATOM     16  C   UNL     1       2.632  46.456  53.177  1.00  0.00     0.072 A 
ATOM     17  C   UNL     1       2.052  45.015  55.467  1.00  0.00     0.006 A 
ATOM     18  C   UNL     1       3.212  45.793  55.402  1.00  0.00     0.026 A 
BRANCH  14  19
ATOM     19  O   UNL     1       0.709  45.714  52.088  1.00  0.00    -0.497 OA
ATOM     20  C   UNL     1       0.663  44.524  51.311  1.00  0.00     0.278 C 
ENDBRANCH  14  19
ENDBRANCH  11  13
ENDBRANCH   1  11
BRANCH   3  21
ATOM     21  O   UNL     1       7.920  45.650  51.046  1.00  0.00    -0.476 OA
BRANCH  21  22
ATOM     22  C   UNL     1       6.838  45.308  50.177  1.00  0.00     0.235 C 
BRANCH  22  23
ATOM     23  C   UNL     1       6.303  43.912  50.529  1.00  0.00     0.027 C 
ATOM     24  C   UNL     1       6.451  42.953  49.345  1.00  0.00     0.007 C 
ATOM     25  C   UNL     1       4.841  43.957  51.015  1.00  0.00     0.007 C 
ATOM     26  C   UNL     1       6.061  41.519  49.718  1.00  0.00     0.000 C 
ATOM     27  C   UNL     1       4.093  42.631  50.840  1.00  0.00     0.000 C 
ATOM     28  C   UNL     1       5.035  41.435  50.847  1.00  0.00     0.000 C 
ENDBRANCH  22  23
ENDBRANCH  21  22
ENDBRANCH   3  21
TORSDOF 6
ENDMDL
MODEL 6
REMARK VINA RESULT:    -9.013      2.855      5.884
REMARK INTER + INTRA:         -12.978
REMARK INTER:                 -12.232
REMARK INTRA:                  -0.746
REMARK UNBOUND:                -0.804
REMARK SMILES COc1cccc(Nc2nc(OCC3CCCCC3)c3[nH]cnc3n2)c1
REMARK SMILES IDX 9 1 10 2 11 3 20 4 21 5 22 6 23 7 24 8 25 9 8 11 7 13 3 14
REMARK SMILES IDX 4 15 26 16 5 17 6 18 2 19 1 20 12 21 13 22 14 23 15 24 19 25
REMARK SMILES IDX 16 26 18 27 17 28
REMARK H PARENT 21 10 8 12
ROOT
ATOM      1  C   UNL     1       3.369  42.966  52.312  1.00  0.00     0.232 A 
ATOM      2  N   UNL     1       3.848  44.225  52.406  1.00  0.00    -0.175 NA
ATOM      3  C   UNL     1       4.913  44.589  51.670  1.00  0.00     0.245 A 
ATOM      4  C   UNL     1       5.461  43.653  50.834  1.00  0.00     0.148 A 
ATOM      5  N   UNL     1       6.496  43.638  49.946  1.00  0.00    -0.339 N 
ATOM      6  C   UNL     1       6.549  42.380  49.408  1.00  0.00     0.199 A 
ATOM      7  N   UNL     1       5.610  41.601  49.899  1.00  0.00    -0.217 NA
ATOM      8  C   UNL     1       4.925  42.387  50.787  1.00  0.00     0.186 A 
ATOM      9  N   UNL     1       3.873  42.005  51.526  1.00  0.00    -0.191 NA
ATOM     10  H   UNL     1       7.108  44.413  49.730  1.00  0.00     0.168 HD
ENDROOT
BRANCH   1  11
ATOM     11  N   UNL     1       2.274  42.552  53.072  1.00  0.00    -0.324 N 
ATOM     12  H   UNL     1       2.302  41.546  53.154  1.00  0.00     0.170 HD
BRANCH  11  13
ATOM     13  C   UNL     1       1.160  43.195  53.624  1.00  0.00     0.045 A 
ATOM     14  C   UNL     1      -1.282  43.434  53.660  1.00  0.00     0.120 A 
ATOM     15  C   UNL     1      -1.182  44.378  54.678  1.00  0.00     0.046 A 
ATOM     16  C   UNL     1      -0.116  42.852  53.146  1.00  0.00     0.072 A 
ATOM     17  C   UNL     1       0.073  44.726  55.173  1.00  0.00     0.006 A 
ATOM     18  C   UNL     1       1.230  44.135  54.653  1.00  0.00     0.026 A 
BRANCH  14  19
ATOM     19  O   UNL     1      -2.442  42.994  53.082  1.00  0.00    -0.497 OA
ATOM     20  C   UNL     1      -2.365  42.580  51.724  1.00  0.00     0.278 C 
ENDBRANCH  14  19
ENDBRANCH  11  13
ENDBRANCH   1  11
BRANCH   3  21
ATOM     21  O   UNL     1       5.431  45.863  51.709  1.00  0.00    -0.476 OA
BRANCH  21  22
ATOM     22  C   UNL     1       5.895  46.305  52.987  1.00  0.00     0.235 C 
BRANCH  22  23
ATOM     23  C   UNL     1       7.430  46.284  53.024  1.00  0.00     0.027 C 
ATOM     24  C   UNL     1       7.967  47.237  54.095  1.00  0.00     0.007 C 
ATOM     25  C   UNL     1       8.048  46.605  51.649  1.00  0.00     0.007 C 
ATOM     26  C   UNL     1       9.487  47.124  54.253  1.00  0.00     0.000 C 
ATOM     27  C   UNL     1       9.479  47.144  51.729  1.00  0.00     0.000 C 
ATOM     28  C   UNL     1      10.204  46.671  52.981  1.00  0.00     0.000 C 
ENDBRANCH  22  23
ENDBRANCH  21  22
ENDBRANCH   3  21
TORSDOF 6
ENDMDL
MODEL 7
REMARK VINA RESULT:    -8.902      1.649      5.292
REMARK INTER + INTRA:         -12.829
REMARK INTER:                 -11.875
REMARK INTRA:                  -0.953
REMARK UNBOUND:                -0.804
REMARK SMILES COc1cccc(Nc2nc(OCC3CCCCC3)c3[nH]cnc3n2)c1
REMARK SMILES IDX 9 1 10 2 11 3 20 4 21 5 22 6 23 7 24 8 25 9 8 11 7 13 3 14
REMARK SMILES IDX 4 15 26 16 5 17 6 18 2 19 1 20 12 21 13 22 14 23 15 24 19 25
REMARK SMILES IDX 16 26 18 27 17 28
REMARK H PARENT 21 10 8 12
ROOT
ATOM      1  C   UNL     1       5.037  46.369  53.206  1.00  0.00     0.232 A 
ATOM      2  N   UNL     1       4.543  45.444  52.356  1.00  0.00    -0.175 NA
ATOM      3  C   UNL     1       3.489  44.694  52.726  1.00  0.00     0.245 A 
ATOM      4  C   UNL     1       2.948  44.922  53.963  1.00  0.00     0.148 A 
ATOM      5  N   UNL     1       1.904  44.403  54.672  1.00  0.00    -0.339 N 
ATOM      6  C   UNL     1       1.869  45.054  55.875  1.00  0.00     0.199 A 
ATOM      7  N   UNL     1       2.824  45.953  55.970  1.00  0.00    -0.217 NA
ATOM      8  C   UNL     1       3.501  45.880  54.781  1.00  0.00     0.186 A 
ATOM      9  N   UNL     1       4.560  46.624  54.432  1.00  0.00    -0.191 NA
ATOM     10  H   UNL     1       1.277  43.674  54.361  1.00  0.00     0.168 HD
ENDROOT
BRANCH   1  11
ATOM     11  N   UNL     1       6.138  47.154  52.858  1.00  0.00    -0.324 N 
ATOM     12  H   UNL     1       5.805  48.062  52.568  1.00  0.00     0.170 HD
BRANCH  11  13
ATOM     13  C   UNL     1       7.513  46.923  52.740  1.00  0.00     0.045 A 
ATOM     14  C   UNL     1       9.329  45.859  51.478  1.00  0.00     0.120 A 
ATOM     15  C   UNL     1      10.265  46.408  52.349  1.00  0.00     0.046 A 
ATOM     16  C   UNL     1       7.968  46.122  51.678  1.00  0.00     0.072 A 
ATOM     17  C   UNL     1       9.837  47.213  53.404  1.00  0.00     0.006 A 
ATOM     18  C   UNL     1       8.474  47.469  53.591  1.00  0.00     0.026 A 
BRANCH  14  19
ATOM     19  O   UNL     1       9.604  45.059  50.402  1.00  0.00    -0.497 OA
ATOM     20  C   UNL     1       8.491  44.577  49.660  1.00  0.00     0.278 C 
ENDBRANCH  14  19
ENDBRANCH  11  13
ENDBRANCH   1  11
BRANCH   3  21
ATOM     21  O   UNL     1       2.930  43.752  51.894  1.00  0.00    -0.476 OA
BRANCH  21  22
ATOM     22  C   UNL     1       3.569  42.473  51.889  1.00  0.00     0.235 C 
BRANCH  22  23
ATOM     23  C   UNL     1       4.166  42.190  50.503  1.00  0.00     0.027 C 
ATOM     24  C   UNL     1       3.722  40.821  49.982  1.00  0.00     0.007 C 
ATOM     25  C   UNL     1       5.704  42.302  50.499  1.00  0.00     0.007 C 
ATOM     26  C   UNL     1       4.183  40.579  48.541  1.00  0.00     0.000 C 
ATOM     27  C   UNL     1       6.375  41.515  49.371  1.00  0.00     0.000 C 
ATOM     28  C   UNL     1       5.458  41.335  48.169  1.00  0.00     0.000 C 
ENDBRANCH  22  23
ENDBRANCH  21  22
ENDBRANCH   3  21
TORSDOF 6
ENDMDL
MODEL 8
REMARK VINA RESULT:    -8.834      2.372      6.734
REMARK INTER + INTRA:         -12.737
REMARK INTER:                 -12.107
REMARK INTRA:                  -0.629
REMARK UNBOUND:                -0.804
REMARK SMILES COc1cccc(Nc2nc(OCC3CCCCC3)c3[nH]cnc3n2)c1
REMARK SMILES IDX 9 1 10 2 11 3 20 4 21 5 22 6 23 7 24 8 25 9 8 11 7 13 3 14
REMARK SMILES IDX 4 15 26 16 5 17 6 18 2 19 1 20 12 21 13 22 14 23 15 24 19 25
REMARK SMILES IDX 16 26 18 27 17 28
REMARK H PARENT 21 10 8 12
ROOT
ATOM      1  C   UNL     1       5.401  45.078  51.853  1.00  0.00     0.232 A 
ATOM      2  N   UNL     1       4.277  44.963  52.592  1.00  0.00    -0.175 NA
ATOM      3  C   UNL     1       3.510  43.865  52.471  1.00  0.00     0.245 A 
ATOM      4  C   UNL     1       3.923  42.890  51.602  1.00  0.00     0.148 A 
ATOM      5  N   UNL     1       3.451  41.668  51.225  1.00  0.00    -0.339 N 
ATOM      6  C   UNL     1       4.323  41.165  50.298  1.00  0.00     0.199 A 
ATOM      7  N   UNL     1       5.318  41.994  50.067  1.00  0.00    -0.217 NA
ATOM      8  C   UNL     1       5.079  43.071  50.878  1.00  0.00     0.186 A 
ATOM      9  N   UNL     1       5.845  44.167  50.976  1.00  0.00    -0.191 NA
ATOM     10  H   UNL     1       2.612  41.221  51.569  1.00  0.00     0.168 HD
ENDROOT
BRANCH   1  11
ATOM     11  N   UNL     1       6.211  46.211  51.944  1.00  0.00    -0.324 N 
ATOM     12  H   UNL     1       5.681  47.011  51.626  1.00  0.00     0.170 HD
BRANCH  11  13
ATOM     13  C   UNL     1       7.553  46.438  52.268  1.00  0.00     0.045 A 
ATOM     14  C   UNL     1       9.174  47.187  53.952  1.00  0.00     0.120 A 
ATOM     15  C   UNL     1      10.221  46.903  53.079  1.00  0.00     0.046 A 
ATOM     16  C   UNL     1       7.856  46.951  53.541  1.00  0.00     0.072 A 
ATOM     17  C   UNL     1       9.944  46.385  51.815  1.00  0.00     0.006 A 
ATOM     18  C   UNL     1       8.623  46.152  51.419  1.00  0.00     0.026 A 
BRANCH  14  19
ATOM     19  O   UNL     1       9.296  47.692  55.218  1.00  0.00    -0.497 OA
ATOM     20  C   UNL     1      10.584  47.620  55.816  1.00  0.00     0.278 C 
ENDBRANCH  14  19
ENDBRANCH  11  13
ENDBRANCH   1  11
BRANCH   3  21
ATOM     21  O   UNL     1       2.366  43.683  53.214  1.00  0.00    -0.476 OA
BRANCH  21  22
ATOM     22  C   UNL     1       1.295  44.588  52.933  1.00  0.00     0.235 C 
BRANCH  22  23
ATOM     23  C   UNL     1       0.600  45.000  54.238  1.00  0.00     0.027 C 
ATOM     24  C   UNL     1       1.501  44.736  55.448  1.00  0.00     0.007 C 
ATOM     25  C   UNL     1      -0.765  44.305  54.414  1.00  0.00     0.007 C 
ATOM     26  C   UNL     1       0.890  45.274  56.745  1.00  0.00     0.000 C 
ATOM     27  C   UNL     1      -1.228  44.216  55.870  1.00  0.00     0.000 C 
ATOM     28  C   UNL     1      -0.637  45.325  56.730  1.00  0.00     0.000 C 
ENDBRANCH  22  23
ENDBRANCH  21  22
ENDBRANCH   3  21
TORSDOF 6
ENDMDL
MODEL 9
REMARK VINA RESULT:    -8.723      2.231      6.593
REMARK INTER + INTRA:         -12.587
REMARK INTER:                 -11.814
REMARK INTRA:                  -0.773
REMARK UNBOUND:                -0.804
REMARK SMILES COc1cccc(Nc2nc(OCC3CCCCC3)c3[nH]cnc3n2)c1
REMARK SMILES IDX 9 1 10 2 11 3 20 4 21 5 22 6 23 7 24 8 25 9 8 11 7 13 3 14
REMARK SMILES IDX 4 15 26 16 5 17 6 18 2 19 1 20 12 21 13 22 14 23 15 24 19 25
REMARK SMILES IDX 16 26 18 27 17 28
REMARK H PARENT 21 10 8 12
ROOT
ATOM      1  C   UNL     1       5.525  44.971  51.532  1.00  0.00     0.232 A 
ATOM      2  N   UNL     1       5.688  43.818  50.849  1.00  0.00    -0.175 NA
ATOM      3  C   UNL     1       4.794  42.823  50.998  1.00  0.00     0.245 A 
ATOM      4  C   UNL     1       3.734  43.039  51.837  1.00  0.00     0.148 A 
ATOM      5  N   UNL     1       2.647  42.313  52.227  1.00  0.00    -0.339 N 
ATOM      6  C   UNL     1       1.938  43.087  53.106  1.00  0.00     0.199 A 
ATOM      7  N   UNL     1       2.509  44.257  53.294  1.00  0.00    -0.217 NA
ATOM      8  C   UNL     1       3.628  44.237  52.505  1.00  0.00     0.186 A 
ATOM      9  N   UNL     1       4.519  45.231  52.378  1.00  0.00    -0.191 NA
ATOM     10  H   UNL     1       2.413  41.379  51.921  1.00  0.00     0.168 HD
ENDROOT
BRANCH   1  11
ATOM     11  N   UNL     1       6.442  46.016  51.411  1.00  0.00    -0.324 N 
ATOM     12  H   UNL     1       6.088  46.676  50.733  1.00  0.00     0.170 HD
BRANCH  11  13
ATOM     13  C   UNL     1       7.716  46.272  51.928  1.00  0.00     0.045 A 
ATOM     14  C   UNL     1       9.055  47.122  53.801  1.00  0.00     0.120 A 
ATOM     15  C   UNL     1      10.225  46.804  53.118  1.00  0.00     0.046 A 
ATOM     16  C   UNL     1       7.817  46.853  53.204  1.00  0.00     0.072 A 
ATOM     17  C   UNL     1      10.149  46.219  51.855  1.00  0.00     0.006 A 
ATOM     18  C   UNL     1       8.906  45.954  51.271  1.00  0.00     0.026 A 
BRANCH  14  19
ATOM     19  O   UNL     1       8.978  47.692  55.043  1.00  0.00    -0.497 OA
ATOM     20  C   UNL     1      10.198  47.839  55.759  1.00  0.00     0.278 C 
ENDBRANCH  14  19
ENDBRANCH  11  13
ENDBRANCH   1  11
BRANCH   3  21
ATOM     21  O   UNL     1       4.897  41.636  50.311  1.00  0.00    -0.476 OA
BRANCH  21  22
ATOM     22  C   UNL     1       5.976  41.551  49.377  1.00  0.00     0.235 C 
BRANCH  22  23
ATOM     23  C   UNL     1       5.451  41.087  48.010  1.00  0.00     0.027 C 
ATOM     24  C   UNL     1       5.616  42.186  46.956  1.00  0.00     0.007 C 
ATOM     25  C   UNL     1       3.986  40.614  48.081  1.00  0.00     0.007 C 
ATOM     26  C   UNL     1       5.237  41.696  45.555  1.00  0.00     0.000 C 
ATOM     27  C   UNL     1       3.252  40.682  46.738  1.00  0.00     0.000 C 
ATOM     28  C   UNL     1       4.204  40.570  45.556  1.00  0.00     0.000 C 
ENDBRANCH  22  23
ENDBRANCH  21  22
ENDBRANCH   3  21
TORSDOF 6
ENDMDL
MODEL 10
REMARK VINA RESULT:    -8.690      2.592      3.625
REMARK INTER + INTRA:         -12.541
REMARK INTER:                 -11.873
REMARK INTRA:                  -0.668
REMARK UNBOUND:                -0.804
REMARK SMILES COc1cccc(Nc2nc(OCC3CCCCC3)c3[nH]cnc3n2)c1
REMARK SMILES IDX 9 1 10 2 11 3 20 4 21 5 22 6 23 7 24 8 25 9 8 11 7 13 3 14
REMARK SMILES IDX 4 15 26 16 5 17 6 18 2 19 1 20 12 21 13 22 14 23 15 24 19 25
REMARK SMILES IDX 16 26 18 27 17 28
REMARK H PARENT 21 10 8 12
ROOT
ATOM      1  C   UNL     1       4.652  42.526  50.932  1.00  0.00     0.232 A 
ATOM      2  N   UNL     1       5.266  43.695  51.212  1.00  0.00    -0.175 NA
ATOM      3  C   UNL     1       4.713  44.543  52.098  1.00  0.00     0.245 A 
ATOM      4  C   UNL     1       3.541  44.165  52.697  1.00  0.00     0.148 A 
ATOM      5  N   UNL     1       2.709  44.716  53.626  1.00  0.00    -0.339 N 
ATOM      6  C   UNL     1       1.676  43.838  53.815  1.00  0.00     0.199 A 
ATOM      7  N   UNL     1       1.805  42.766  53.064  1.00  0.00    -0.217 NA
ATOM      8  C   UNL     1       2.967  42.959  52.365  1.00  0.00     0.186 A 
ATOM      9  N   UNL     1       3.499  42.111  51.473  1.00  0.00    -0.191 NA
ATOM     10  H   UNL     1       2.836  45.607  54.086  1.00  0.00     0.168 HD
ENDROOT
BRANCH   1  11
ATOM     11  N   UNL     1       5.192  41.630  50.007  1.00  0.00    -0.324 N 
ATOM     12  H   UNL     1       5.959  41.140  50.446  1.00  0.00     0.170 HD
BRANCH  11  13
ATOM     13  C   UNL     1       4.970  41.361  48.653  1.00  0.00     0.045 A 
ATOM     14  C   UNL     1       3.573  40.251  46.967  1.00  0.00     0.120 A 
ATOM     15  C   UNL     1       4.372  40.772  45.953  1.00  0.00     0.046 A 
ATOM     16  C   UNL     1       3.877  40.551  48.301  1.00  0.00     0.072 A 
ATOM     17  C   UNL     1       5.456  41.585  46.278  1.00  0.00     0.006 A 
ATOM     18  C   UNL     1       5.746  41.878  47.614  1.00  0.00     0.026 A 
BRANCH  14  19
ATOM     19  O   UNL     1       2.479  39.446  46.798  1.00  0.00    -0.497 OA
ATOM     20  C   UNL     1       2.690  38.211  46.125  1.00  0.00     0.278 C 
ENDBRANCH  14  19
ENDBRANCH  11  13
ENDBRANCH   1  11
BRANCH   3  21
ATOM     21  O   UNL     1       5.305  45.737  52.438  1.00  0.00    -0.476 OA
BRANCH  21  22
ATOM     22  C   UNL     1       6.084  45.724  53.637  1.00  0.00     0.235 C 
BRANCH  22  23
ATOM     23  C   UNL     1       7.563  45.969  53.304  1.00  0.00     0.027 C 
ATOM     24  C   UNL     1       8.185  46.976  54.276  1.00  0.00     0.007 C 
ATOM     25  C   UNL     1       7.762  46.426  51.845  1.00  0.00     0.007 C 
ATOM     26  C   UNL     1       9.694  47.125  54.057  1.00  0.00     0.000 C 
ATOM     27  C   UNL     1       9.060  47.204  51.616  1.00  0.00     0.000 C 
ATOM     28  C   UNL     1      10.138  46.835  52.625  1.00  0.00     0.000 C 
ENDBRANCH  22  23
ENDBRANCH  21  22
ENDBRANCH   3  21
TORSDOF 6
ENDMDL
