MODEL 1
REMARK VINA RESULT:    -9.454      0.000      0.000
REMARK INTER + INTRA:         -13.031
REMARK INTER:                 -12.217
REMARK INTRA:                  -0.814
REMARK UNBOUND:                -0.814
REMARK SMILES Fc1ccc(Nc2nc(OCC3CCCCC3)c3[nH]cnc3n2)cc1Cl
REMARK SMILES IDX 7 1 8 2 9 3 18 4 19 5 20 6 21 7 22 8 23 9 6 11 5 13 2 14
REMARK SMILES IDX 3 15 25 16 4 17 24 18 1 19 26 20 10 21 11 22 12 23 13 24
REMARK SMILES IDX 17 25 14 26 16 27 15 28
REMARK H PARENT 19 10 6 12
ROOT
ATOM      1  C   UNL     1       5.929  46.817  54.041  1.00  0.00     0.232 A 
ATOM      2  N   UNL     1       6.100  46.302  52.805  1.00  0.00    -0.175 NA
ATOM      3  C   UNL     1       7.345  46.171  52.308  1.00  0.00     0.245 A 
ATOM      4  C   UNL     1       8.392  46.586  53.086  1.00  0.00     0.148 A 
ATOM      5  N   UNL     1       9.748  46.635  52.940  1.00  0.00    -0.339 N 
ATOM      6  C   UNL     1      10.261  47.163  54.093  1.00  0.00     0.199 A 
ATOM      7  N   UNL     1       9.314  47.453  54.959  1.00  0.00    -0.217 NA
ATOM      8  C   UNL     1       8.145  47.099  54.339  1.00  0.00     0.186 A 
ATOM      9  N   UNL     1       6.914  47.227  54.852  1.00  0.00    -0.191 NA
ATOM     10  H   UNL     1      10.270  46.335  52.127  1.00  0.00     0.168 HD
ENDROOT
BRANCH   1  11
ATOM     11  N   UNL     1       4.654  46.975  54.589  1.00  0.00    -0.324 N 
ATOM     12  H   UNL     1       4.640  47.852  55.094  1.00  0.00     0.170 HD
BRANCH  11  13
ATOM     13  C   UNL     1       3.470  46.232  54.565  1.00  0.00     0.043 A 
ATOM     14  C   UNL     1       1.090  44.737  54.384  1.00  0.00     0.141 A 
ATOM     15  C   UNL     1       1.672  44.965  55.623  1.00  0.00     0.043 A 
ATOM     16  C   UNL     1       1.677  45.244  53.232  1.00  0.00     0.078 A 
ATOM     17  C   UNL     1       2.854  45.709  55.709  1.00  0.00     0.029 A 
ATOM     18  C   UNL     1       2.859  45.987  53.323  1.00  0.00     0.049 A 
ATOM     19  F   UNL     1      -0.043  44.021  54.322  1.00  0.00    -0.205 F 
ATOM     20  Cl  UNL     1       0.967  44.969  51.688  1.00  0.00    -0.081 Cl
ENDBRANCH  11  13
ENDBRANCH   1  11
BRANCH   3  21
ATOM     21  O   UNL     1       7.581  45.684  51.043  1.00  0.00    -0.476 OA
BRANCH  21  22
ATOM     22  C   UNL     1       6.424  45.266  50.316  1.00  0.00     0.235 C 
BRANCH  22  23
ATOM     23  C   UNL     1       6.101  43.791  50.604  1.00  0.00     0.027 C 
ATOM     24  C   UNL     1       4.612  43.637  50.952  1.00  0.00     0.007 C 
ATOM     25  C   UNL     1       6.484  42.865  49.438  1.00  0.00     0.007 C 
ATOM     26  C   UNL     1       4.236  42.183  51.223  1.00  0.00     0.000 C 
ATOM     27  C   UNL     1       6.098  41.413  49.712  1.00  0.00     0.000 C 
ATOM     28  C   UNL     1       4.620  41.277  50.057  1.00  0.00     0.000 C 
ENDBRANCH  22  23
ENDBRANCH  21  22
ENDBRANCH   3  21
TORSDOF 5
ENDMDL
MODEL 2
REMARK VINA RESULT:    -9.400      3.228      6.375
REMARK INTER + INTRA:         -12.962
REMARK INTER:                 -12.125
REMARK INTRA:                  -0.837
REMARK UNBOUND:                -0.814
REMARK SMILES Fc1ccc(Nc2nc(OCC3CCCCC3)c3[nH]cnc3n2)cc1Cl
REMARK SMILES IDX 7 1 8 2 9 3 18 4 19 5 20 6 21 7 22 8 23 9 6 11 5 13 2 14
REMARK SMILES IDX 3 15 25 16 4 17 24 18 1 19 26 20 10 21 11 22 12 23 13 24
REMARK SMILES IDX 17 25 14 26 16 27 15 28
REMARK H PARENT 19 10 6 12
ROOT
ATOM      1  C   UNL     1       2.901  44.471  53.113  1.00  0.00     0.232 A 
ATOM      2  N   UNL     1       4.040  45.012  53.594  1.00  0.00    -0.175 NA
ATOM      3  C   UNL     1       4.042  45.573  54.818  1.00  0.00     0.245 A 
ATOM      4  C   UNL     1       2.867  45.581  55.521  1.00  0.00     0.148 A 
ATOM      5  N   UNL     1       2.469  46.050  56.738  1.00  0.00    -0.339 N 
ATOM      6  C   UNL     1       1.143  45.744  56.877  1.00  0.00     0.199 A 
ATOM      7  N   UNL     1       0.676  45.112  55.821  1.00  0.00    -0.217 NA
ATOM      8  C   UNL     1       1.743  45.008  54.970  1.00  0.00     0.186 A 
ATOM      9  N   UNL     1       1.727  44.436  53.758  1.00  0.00    -0.191 NA
ATOM     10  H   UNL     1       3.051  46.534  57.409  1.00  0.00     0.168 HD
ENDROOT
BRANCH   1  11
ATOM     11  N   UNL     1       2.857  43.886  51.845  1.00  0.00    -0.324 N 
ATOM     12  H   UNL     1       1.976  44.139  51.416  1.00  0.00     0.170 HD
BRANCH  11  13
ATOM     13  C   UNL     1       3.731  43.096  51.091  1.00  0.00     0.043 A 
ATOM     14  C   UNL     1       5.584  41.601  49.586  1.00  0.00     0.141 A 
ATOM     15  C   UNL     1       4.360  41.044  49.929  1.00  0.00     0.043 A 
ATOM     16  C   UNL     1       5.898  42.895  49.981  1.00  0.00     0.078 A 
ATOM     17  C   UNL     1       3.442  41.791  50.676  1.00  0.00     0.029 A 
ATOM     18  C   UNL     1       4.978  43.637  50.728  1.00  0.00     0.049 A 
ATOM     19  F   UNL     1       6.450  40.870  48.869  1.00  0.00    -0.205 F 
ATOM     20  Cl  UNL     1       7.412  43.599  49.562  1.00  0.00    -0.081 Cl
ENDBRANCH  11  13
ENDBRANCH   1  11
BRANCH   3  21
ATOM     21  O   UNL     1       5.162  46.170  55.350  1.00  0.00    -0.476 OA
BRANCH  21  22
ATOM     22  C   UNL     1       5.772  47.174  54.535  1.00  0.00     0.235 C 
BRANCH  22  23
ATOM     23  C   UNL     1       7.054  46.640  53.877  1.00  0.00     0.027 C 
ATOM     24  C   UNL     1       6.987  46.841  52.355  1.00  0.00     0.007 C 
ATOM     25  C   UNL     1       8.325  47.286  54.454  1.00  0.00     0.007 C 
ATOM     26  C   UNL     1       8.251  46.349  51.657  1.00  0.00     0.000 C 
ATOM     27  C   UNL     1       9.586  46.794  53.747  1.00  0.00     0.000 C 
ATOM     28  C   UNL     1       9.503  46.999  52.239  1.00  0.00     0.000 C 
ENDBRANCH  22  23
ENDBRANCH  21  22
ENDBRANCH   3  21
TORSDOF 5
ENDMDL
MODEL 3
REMARK VINA RESULT:    -9.367      3.531      6.019
REMARK INTER + INTRA:         -12.919
REMARK INTER:                 -12.107
REMARK INTRA:                  -0.812
REMARK UNBOUND:                -0.814
REMARK SMILES Fc1ccc(Nc2nc(OCC3CCCCC3)c3[nH]cnc3n2)cc1Cl
REMARK SMILES IDX 7 1 8 2 9 3 18 4 19 5 20 6 21 7 22 8 23 9 6 11 5 13 2 14
REMARK SMILES IDX 3 15 25 16 4 17 24 18 1 19 26 20 10 21 11 22 12 23 13 24
REMARK SMILES IDX 17 25 14 26 16 27 15 28
REMARK H PARENT 19 10 6 12
ROOT
ATOM      1  C   UNL     1       4.287  46.369  53.897  1.00  0.00     0.232 A 
ATOM      2  N   UNL     1       3.916  45.492  52.941  1.00  0.00    -0.175 NA
ATOM      3  C   UNL     1       2.855  44.690  53.153  1.00  0.00     0.245 A 
ATOM      4  C   UNL     1       2.203  44.794  54.352  1.00  0.00     0.148 A 
ATOM      5  N   UNL     1       1.137  44.171  54.932  1.00  0.00    -0.339 N 
ATOM      6  C   UNL     1       0.965  44.731  56.169  1.00  0.00     0.199 A 
ATOM      7  N   UNL     1       1.857  45.669  56.408  1.00  0.00    -0.217 NA
ATOM      8  C   UNL     1       2.634  45.713  55.281  1.00  0.00     0.186 A 
ATOM      9  N   UNL     1       3.682  46.525  55.082  1.00  0.00    -0.191 NA
ATOM     10  H   UNL     1       0.582  43.433  54.521  1.00  0.00     0.168 HD
ENDROOT
BRANCH   1  11
ATOM     11  N   UNL     1       5.386  47.212  53.718  1.00  0.00    -0.324 N 
ATOM     12  H   UNL     1       5.114  48.144  54.005  1.00  0.00     0.170 HD
BRANCH  11  13
ATOM     13  C   UNL     1       6.702  47.040  53.275  1.00  0.00     0.043 A 
ATOM     14  C   UNL     1       9.391  46.707  52.509  1.00  0.00     0.141 A 
ATOM     15  C   UNL     1       8.379  46.533  51.576  1.00  0.00     0.043 A 
ATOM     16  C   UNL     1       9.083  47.045  53.820  1.00  0.00     0.078 A 
ATOM     17  C   UNL     1       7.044  46.701  51.960  1.00  0.00     0.029 A 
ATOM     18  C   UNL     1       7.747  47.211  54.200  1.00  0.00     0.049 A 
ATOM     19  F   UNL     1      10.665  46.542  52.121  1.00  0.00    -0.205 F 
ATOM     20  Cl  UNL     1      10.328  47.263  54.989  1.00  0.00    -0.081 Cl
ENDBRANCH  11  13
ENDBRANCH   1  11
BRANCH   3  21
ATOM     21  O   UNL     1       2.448  43.753  52.230  1.00  0.00    -0.476 OA
BRANCH  21  22
ATOM     22  C   UNL     1       3.265  42.585  52.135  1.00  0.00     0.235 C 
BRANCH  22  23
ATOM     23  C   UNL     1       4.066  42.583  50.823  1.00  0.00     0.027 C 
ATOM     24  C   UNL     1       5.426  43.267  51.035  1.00  0.00     0.007 C 
ATOM     25  C   UNL     1       4.255  41.168  50.250  1.00  0.00     0.007 C 
ATOM     26  C   UNL     1       6.270  43.268  49.764  1.00  0.00     0.000 C 
ATOM     27  C   UNL     1       5.107  41.175  48.982  1.00  0.00     0.000 C 
ATOM     28  C   UNL     1       6.450  41.859  49.209  1.00  0.00     0.000 C 
ENDBRANCH  22  23
ENDBRANCH  21  22
ENDBRANCH   3  21
TORSDOF 5
ENDMDL
MODEL 4
REMARK VINA RESULT:    -9.304      2.808      5.205
REMARK INTER + INTRA:         -12.837
REMARK INTER:                 -12.123
REMARK INTRA:                  -0.714
REMARK UNBOUND:                -0.814
REMARK SMILES Fc1ccc(Nc2nc(OCC3CCCCC3)c3[nH]cnc3n2)cc1Cl
REMARK SMILES IDX 7 1 8 2 9 3 18 4 19 5 20 6 21 7 22 8 23 9 6 11 5 13 2 14
REMARK SMILES IDX 3 15 25 16 4 17 24 18 1 19 26 20 10 21 11 22 12 23 13 24
REMARK SMILES IDX 17 25 14 26 16 27 15 28
REMARK H PARENT 19 10 6 12
ROOT
ATOM      1  C   UNL     1       3.448  42.952  52.274  1.00  0.00     0.232 A 
ATOM      2  N   UNL     1       3.838  44.244  52.233  1.00  0.00    -0.175 NA
ATOM      3  C   UNL     1       4.862  44.602  51.435  1.00  0.00     0.245 A 
ATOM      4  C   UNL     1       5.477  43.621  50.704  1.00  0.00     0.148 A 
ATOM      5  N   UNL     1       6.521  43.578  49.826  1.00  0.00    -0.339 N 
ATOM      6  C   UNL     1       6.655  42.278  49.421  1.00  0.00     0.199 A 
ATOM      7  N   UNL     1       5.762  41.495  49.989  1.00  0.00    -0.217 NA
ATOM      8  C   UNL     1       5.025  42.324  50.793  1.00  0.00     0.186 A 
ATOM      9  N   UNL     1       4.001  41.953  51.574  1.00  0.00    -0.191 NA
ATOM     10  H   UNL     1       7.086  44.364  49.535  1.00  0.00     0.168 HD
ENDROOT
BRANCH   1  11
ATOM     11  N   UNL     1       2.395  42.540  53.095  1.00  0.00    -0.324 N 
ATOM     12  H   UNL     1       2.633  41.633  53.475  1.00  0.00     0.170 HD
BRANCH  11  13
ATOM     13  C   UNL     1       1.174  43.097  53.488  1.00  0.00     0.043 A 
ATOM     14  C   UNL     1      -1.219  44.299  54.362  1.00  0.00     0.141 A 
ATOM     15  C   UNL     1      -1.246  43.374  53.328  1.00  0.00     0.043 A 
ATOM     16  C   UNL     1      -0.015  44.633  54.969  1.00  0.00     0.078 A 
ATOM     17  C   UNL     1      -0.055  42.778  52.897  1.00  0.00     0.029 A 
ATOM     18  C   UNL     1       1.172  44.036  54.535  1.00  0.00     0.049 A 
ATOM     19  F   UNL     1      -2.371  44.858  54.761  1.00  0.00    -0.205 F 
ATOM     20  Cl  UNL     1       0.034  45.779  56.253  1.00  0.00    -0.081 Cl
ENDBRANCH  11  13
ENDBRANCH   1  11
BRANCH   3  21
ATOM     21  O   UNL     1       5.326  45.895  51.375  1.00  0.00    -0.476 OA
BRANCH  21  22
ATOM     22  C   UNL     1       5.567  46.525  52.635  1.00  0.00     0.235 C 
BRANCH  22  23
ATOM     23  C   UNL     1       6.986  47.114  52.691  1.00  0.00     0.027 C 
ATOM     24  C   UNL     1       7.618  46.835  54.063  1.00  0.00     0.007 C 
ATOM     25  C   UNL     1       7.886  46.588  51.561  1.00  0.00     0.007 C 
ATOM     26  C   UNL     1       9.040  47.381  54.158  1.00  0.00     0.000 C 
ATOM     27  C   UNL     1       9.310  47.132  51.666  1.00  0.00     0.000 C 
ATOM     28  C   UNL     1       9.921  46.849  53.033  1.00  0.00     0.000 C 
ENDBRANCH  22  23
ENDBRANCH  21  22
ENDBRANCH   3  21
TORSDOF 5
ENDMDL
MODEL 5
REMARK VINA RESULT:    -9.230      3.566      6.871
REMARK INTER + INTRA:         -12.743
REMARK INTER:                 -11.915
REMARK INTRA:                  -0.827
REMARK UNBOUND:                -0.814
REMARK SMILES Fc1ccc(Nc2nc(OCC3CCCCC3)c3[nH]cnc3n2)cc1Cl
REMARK SMILES IDX 7 1 8 2 9 3 18 4 19 5 20 6 21 7 22 8 23 9 6 11 5 13 2 14
REMARK SMILES IDX 3 15 25 16 4 17 24 18 1 19 26 20 10 21 11 22 12 23 13 24
REMARK SMILES IDX 17 25 14 26 16 27 15 28
REMARK H PARENT 19 10 6 12
ROOT
ATOM      1  C   UNL     1       3.229  42.939  52.676  1.00  0.00     0.232 A 
ATOM      2  N   UNL     1       4.016  43.995  52.974  1.00  0.00    -0.175 NA
ATOM      3  C   UNL     1       3.521  45.001  53.719  1.00  0.00     0.245 A 
ATOM      4  C   UNL     1       2.219  44.911  54.133  1.00  0.00     0.148 A 
ATOM      5  N   UNL     1       1.377  45.700  54.860  1.00  0.00    -0.339 N 
ATOM      6  C   UNL     1       0.176  45.049  54.936  1.00  0.00     0.199 A 
ATOM      7  N   UNL     1       0.205  43.897  54.301  1.00  0.00    -0.217 NA
ATOM      8  C   UNL     1       1.475  43.804  53.794  1.00  0.00     0.186 A 
ATOM      9  N   UNL     1       1.955  42.790  53.063  1.00  0.00    -0.191 NA
ATOM     10  H   UNL     1       1.604  46.599  55.264  1.00  0.00     0.168 HD
ENDROOT
BRANCH   1  11
ATOM     11  N   UNL     1       3.704  41.880  51.899  1.00  0.00    -0.324 N 
ATOM     12  H   UNL     1       3.532  41.021  52.407  1.00  0.00     0.170 HD
BRANCH  11  13
ATOM     13  C   UNL     1       4.305  41.769  50.642  1.00  0.00     0.043 A 
ATOM     14  C   UNL     1       5.618  41.620  48.154  1.00  0.00     0.141 A 
ATOM     15  C   UNL     1       4.460  40.886  48.372  1.00  0.00     0.043 A 
ATOM     16  C   UNL     1       6.131  42.430  49.159  1.00  0.00     0.078 A 
ATOM     17  C   UNL     1       3.811  40.963  49.609  1.00  0.00     0.029 A 
ATOM     18  C   UNL     1       5.479  42.503  50.394  1.00  0.00     0.049 A 
ATOM     19  F   UNL     1       6.225  41.533  46.961  1.00  0.00    -0.205 F 
ATOM     20  Cl  UNL     1       7.565  43.346  48.903  1.00  0.00    -0.081 Cl
ENDBRANCH  11  13
ENDBRANCH   1  11
BRANCH   3  21
ATOM     21  O   UNL     1       4.262  46.118  54.028  1.00  0.00    -0.476 OA
BRANCH  21  22
ATOM     22  C   UNL     1       5.614  45.873  54.421  1.00  0.00     0.235 C 
BRANCH  22  23
ATOM     23  C   UNL     1       6.595  46.628  53.509  1.00  0.00     0.027 C 
ATOM     24  C   UNL     1       7.889  46.943  54.274  1.00  0.00     0.007 C 
ATOM     25  C   UNL     1       6.905  45.858  52.214  1.00  0.00     0.007 C 
ATOM     26  C   UNL     1       8.906  47.671  53.401  1.00  0.00     0.000 C 
ATOM     27  C   UNL     1       7.929  46.589  51.348  1.00  0.00     0.000 C 
ATOM     28  C   UNL     1       9.205  46.897  52.122  1.00  0.00     0.000 C 
ENDBRANCH  22  23
ENDBRANCH  21  22
ENDBRANCH   3  21
TORSDOF 5
ENDMDL
MODEL 6
REMARK VINA RESULT:    -9.083      3.543      6.861
REMARK INTER + INTRA:         -12.552
REMARK INTER:                 -11.844
REMARK INTRA:                  -0.708
REMARK UNBOUND:                -0.814
REMARK SMILES Fc1ccc(Nc2nc(OCC3CCCCC3)c3[nH]cnc3n2)cc1Cl
REMARK SMILES IDX 7 1 8 2 9 3 18 4 19 5 20 6 21 7 22 8 23 9 6 11 5 13 2 14
REMARK SMILES IDX 3 15 25 16 4 17 24 18 1 19 26 20 10 21 11 22 12 23 13 24
REMARK SMILES IDX 17 25 14 26 16 27 15 28
REMARK H PARENT 19 10 6 12
ROOT
ATOM      1  C   UNL     1       3.692  42.839  52.306  1.00  0.00     0.232 A 
ATOM      2  N   UNL     1       4.587  43.797  52.625  1.00  0.00    -0.175 NA
ATOM      3  C   UNL     1       4.206  44.829  53.402  1.00  0.00     0.245 A 
ATOM      4  C   UNL     1       2.904  44.865  53.825  1.00  0.00     0.148 A 
ATOM      5  N   UNL     1       2.154  45.718  54.581  1.00  0.00    -0.339 N 
ATOM      6  C   UNL     1       0.892  45.194  54.651  1.00  0.00     0.199 A 
ATOM      7  N   UNL     1       0.796  44.063  53.984  1.00  0.00    -0.217 NA
ATOM      8  C   UNL     1       2.046  43.852  53.464  1.00  0.00     0.186 A 
ATOM      9  N   UNL     1       2.412  42.813  52.701  1.00  0.00    -0.191 NA
ATOM     10  H   UNL     1       2.477  46.576  55.007  1.00  0.00     0.168 HD
ENDROOT
BRANCH   1  11
ATOM     11  N   UNL     1       4.048  41.757  51.497  1.00  0.00    -0.324 N 
ATOM     12  H   UNL     1       3.898  40.909  52.029  1.00  0.00     0.170 HD
BRANCH  11  13
ATOM     13  C   UNL     1       4.514  41.616  50.186  1.00  0.00     0.043 A 
ATOM     14  C   UNL     1       5.343  41.263  47.518  1.00  0.00     0.141 A 
ATOM     15  C   UNL     1       6.088  42.060  48.375  1.00  0.00     0.043 A 
ATOM     16  C   UNL     1       4.189  40.637  47.972  1.00  0.00     0.078 A 
ATOM     17  C   UNL     1       5.674  42.232  49.700  1.00  0.00     0.029 A 
ATOM     18  C   UNL     1       3.778  40.812  49.297  1.00  0.00     0.049 A 
ATOM     19  F   UNL     1       5.757  41.110  46.251  1.00  0.00    -0.205 F 
ATOM     20  Cl  UNL     1       3.254  39.646  46.920  1.00  0.00    -0.081 Cl
ENDBRANCH  11  13
ENDBRANCH   1  11
BRANCH   3  21
ATOM     21  O   UNL     1       5.063  45.853  53.734  1.00  0.00    -0.476 OA
BRANCH  21  22
ATOM     22  C   UNL     1       5.383  46.759  52.675  1.00  0.00     0.235 C 
BRANCH  22  23
ATOM     23  C   UNL     1       6.842  47.229  52.780  1.00  0.00     0.027 C 
ATOM     24  C   UNL     1       7.397  46.915  54.178  1.00  0.00     0.007 C 
ATOM     25  C   UNL     1       7.738  46.617  51.691  1.00  0.00     0.007 C 
ATOM     26  C   UNL     1       8.855  47.342  54.324  1.00  0.00     0.000 C 
ATOM     27  C   UNL     1       9.197  47.042  51.846  1.00  0.00     0.000 C 
ATOM     28  C   UNL     1       9.731  46.726  53.238  1.00  0.00     0.000 C 
ENDBRANCH  22  23
ENDBRANCH  21  22
ENDBRANCH   3  21
TORSDOF 5
ENDMDL
MODEL 7
REMARK VINA RESULT:    -8.710      1.977      4.902
REMARK INTER + INTRA:         -12.070
REMARK INTER:                 -11.117
REMARK INTRA:                  -0.953
REMARK UNBOUND:                -0.814
REMARK SMILES Fc1ccc(Nc2nc(OCC3CCCCC3)c3[nH]cnc3n2)cc1Cl
REMARK SMILES IDX 7 1 8 2 9 3 18 4 19 5 20 6 21 7 22 8 23 9 6 11 5 13 2 14
REMARK SMILES IDX 3 15 25 16 4 17 24 18 1 19 26 20 10 21 11 22 12 23 13 24
REMARK SMILES IDX 17 25 14 26 16 27 15 28
REMARK H PARENT 19 10 6 12
ROOT
ATOM      1  C   UNL     1       7.209  45.669  51.486  1.00  0.00     0.232 A 
ATOM      2  N   UNL     1       6.248  46.233  52.248  1.00  0.00    -0.175 NA
ATOM      3  C   UNL     1       6.599  46.982  53.311  1.00  0.00     0.245 A 
ATOM      4  C   UNL     1       7.934  47.126  53.579  1.00  0.00     0.148 A 
ATOM      5  N   UNL     1       8.666  47.766  54.536  1.00  0.00    -0.339 N 
ATOM      6  C   UNL     1       9.986  47.536  54.259  1.00  0.00     0.199 A 
ATOM      7  N   UNL     1      10.134  46.788  53.186  1.00  0.00    -0.217 NA
ATOM      8  C   UNL     1       8.860  46.526  52.757  1.00  0.00     0.186 A 
ATOM      9  N   UNL     1       8.528  45.786  51.691  1.00  0.00    -0.191 NA
ATOM     10  H   UNL     1       8.296  48.308  55.306  1.00  0.00     0.168 HD
ENDROOT
BRANCH   1  11
ATOM     11  N   UNL     1       6.885  44.880  50.380  1.00  0.00    -0.324 N 
ATOM     12  H   UNL     1       7.335  45.283  49.568  1.00  0.00     0.170 HD
BRANCH  11  13
ATOM     13  C   UNL     1       6.136  43.715  50.183  1.00  0.00     0.043 A 
ATOM     14  C   UNL     1       4.532  41.422  49.865  1.00  0.00     0.141 A 
ATOM     15  C   UNL     1       5.713  41.547  49.146  1.00  0.00     0.043 A 
ATOM     16  C   UNL     1       4.140  42.424  50.743  1.00  0.00     0.078 A 
ATOM     17  C   UNL     1       6.507  42.688  49.307  1.00  0.00     0.029 A 
ATOM     18  C   UNL     1       4.936  43.562  50.901  1.00  0.00     0.049 A 
ATOM     19  F   UNL     1       3.785  40.321  49.696  1.00  0.00    -0.205 F 
ATOM     20  Cl  UNL     1       2.678  42.282  51.642  1.00  0.00    -0.081 Cl
ENDBRANCH  11  13
ENDBRANCH   1  11
BRANCH   3  21
ATOM     21  O   UNL     1       5.666  47.554  54.145  1.00  0.00    -0.476 OA
BRANCH  21  22
ATOM     22  C   UNL     1       4.447  47.962  53.520  1.00  0.00     0.235 C 
BRANCH  22  23
ATOM     23  C   UNL     1       3.271  47.096  53.999  1.00  0.00     0.027 C 
ATOM     24  C   UNL     1       2.602  46.407  52.800  1.00  0.00     0.007 C 
ATOM     25  C   UNL     1       3.694  46.060  55.054  1.00  0.00     0.007 C 
ATOM     26  C   UNL     1       1.441  45.514  53.229  1.00  0.00     0.000 C 
ATOM     27  C   UNL     1       2.529  45.165  55.473  1.00  0.00     0.000 C 
ATOM     28  C   UNL     1       1.876  44.491  54.273  1.00  0.00     0.000 C 
ENDBRANCH  22  23
ENDBRANCH  21  22
ENDBRANCH   3  21
TORSDOF 5
ENDMDL
MODEL 8
REMARK VINA RESULT:    -8.685      3.969      7.384
REMARK INTER + INTRA:         -12.037
REMARK INTER:                 -11.492
REMARK INTRA:                  -0.545
REMARK UNBOUND:                -0.814
REMARK SMILES Fc1ccc(Nc2nc(OCC3CCCCC3)c3[nH]cnc3n2)cc1Cl
REMARK SMILES IDX 7 1 8 2 9 3 18 4 19 5 20 6 21 7 22 8 23 9 6 11 5 13 2 14
REMARK SMILES IDX 3 15 25 16 4 17 24 18 1 19 26 20 10 21 11 22 12 23 13 24
REMARK SMILES IDX 17 25 14 26 16 27 15 28
REMARK H PARENT 19 10 6 12
ROOT
ATOM      1  C   UNL     1       2.146  43.185  52.029  1.00  0.00     0.232 A 
ATOM      2  N   UNL     1       2.349  43.962  53.114  1.00  0.00    -0.175 NA
ATOM      3  C   UNL     1       1.379  44.806  53.516  1.00  0.00     0.245 A 
ATOM      4  C   UNL     1       0.222  44.846  52.785  1.00  0.00     0.148 A 
ATOM      5  N   UNL     1      -0.943  45.552  52.854  1.00  0.00    -0.339 N 
ATOM      6  C   UNL     1      -1.733  45.133  51.818  1.00  0.00     0.199 A 
ATOM      7  N   UNL     1      -1.139  44.207  51.097  1.00  0.00    -0.217 NA
ATOM      8  C   UNL     1       0.082  44.024  51.691  1.00  0.00     0.186 A 
ATOM      9  N   UNL     1       1.032  43.171  51.284  1.00  0.00    -0.191 NA
ATOM     10  H   UNL     1      -1.174  46.254  53.545  1.00  0.00     0.168 HD
ENDROOT
BRANCH   1  11
ATOM     11  N   UNL     1       3.130  42.303  51.576  1.00  0.00    -0.324 N 
ATOM     12  H   UNL     1       2.814  41.361  51.768  1.00  0.00     0.170 HD
BRANCH  11  13
ATOM     13  C   UNL     1       4.366  42.445  50.938  1.00  0.00     0.043 A 
ATOM     14  C   UNL     1       6.863  42.855  49.702  1.00  0.00     0.141 A 
ATOM     15  C   UNL     1       6.253  41.611  49.634  1.00  0.00     0.043 A 
ATOM     16  C   UNL     1       6.246  43.900  50.377  1.00  0.00     0.078 A 
ATOM     17  C   UNL     1       5.011  41.411  50.249  1.00  0.00     0.029 A 
ATOM     18  C   UNL     1       5.006  43.696  50.990  1.00  0.00     0.049 A 
ATOM     19  F   UNL     1       8.053  43.026  49.107  1.00  0.00    -0.205 F 
ATOM     20  Cl  UNL     1       6.991  45.449  50.469  1.00  0.00    -0.081 Cl
ENDBRANCH  11  13
ENDBRANCH   1  11
BRANCH   3  21
ATOM     21  O   UNL     1       1.539  45.646  54.593  1.00  0.00    -0.476 OA
BRANCH  21  22
ATOM     22  C   UNL     1       2.736  45.458  55.351  1.00  0.00     0.235 C 
BRANCH  22  23
ATOM     23  C   UNL     1       3.979  45.656  54.469  1.00  0.00     0.027 C 
ATOM     24  C   UNL     1       4.239  47.156  54.254  1.00  0.00     0.007 C 
ATOM     25  C   UNL     1       5.227  44.967  55.046  1.00  0.00     0.007 C 
ATOM     26  C   UNL     1       5.480  47.405  53.403  1.00  0.00     0.000 C 
ATOM     27  C   UNL     1       6.467  45.226  54.194  1.00  0.00     0.000 C 
ATOM     28  C   UNL     1       6.709  46.717  53.989  1.00  0.00     0.000 C 
ENDBRANCH  22  23
ENDBRANCH  21  22
ENDBRANCH   3  21
TORSDOF 5
ENDMDL
MODEL 9
REMARK VINA RESULT:    -8.660      3.822      7.210
REMARK INTER + INTRA:         -12.005
REMARK INTER:                 -11.473
REMARK INTRA:                  -0.532
REMARK UNBOUND:                -0.814
REMARK SMILES Fc1ccc(Nc2nc(OCC3CCCCC3)c3[nH]cnc3n2)cc1Cl
REMARK SMILES IDX 7 1 8 2 9 3 18 4 19 5 20 6 21 7 22 8 23 9 6 11 5 13 2 14
REMARK SMILES IDX 3 15 25 16 4 17 24 18 1 19 26 20 10 21 11 22 12 23 13 24
REMARK SMILES IDX 17 25 14 26 16 27 15 28
REMARK H PARENT 19 10 6 12
ROOT
ATOM      1  C   UNL     1       4.949  44.920  52.065  1.00  0.00     0.232 A 
ATOM      2  N   UNL     1       3.777  44.612  52.660  1.00  0.00    -0.175 NA
ATOM      3  C   UNL     1       3.162  43.455  52.354  1.00  0.00     0.245 A 
ATOM      4  C   UNL     1       3.756  42.639  51.429  1.00  0.00     0.148 A 
ATOM      5  N   UNL     1       3.451  41.437  50.859  1.00  0.00    -0.339 N 
ATOM      6  C   UNL     1       4.463  41.134  49.989  1.00  0.00     0.199 A 
ATOM      7  N   UNL     1       5.387  42.070  49.971  1.00  0.00    -0.217 NA
ATOM      8  C   UNL     1       4.954  43.013  50.864  1.00  0.00     0.186 A 
ATOM      9  N   UNL     1       5.584  44.157  51.165  1.00  0.00    -0.191 NA
ATOM     10  H   UNL     1       2.629  40.880  51.049  1.00  0.00     0.168 HD
ENDROOT
BRANCH   1  11
ATOM     11  N   UNL     1       5.615  46.114  52.351  1.00  0.00    -0.324 N 
ATOM     12  H   UNL     1       4.992  46.879  52.124  1.00  0.00     0.170 HD
BRANCH  11  13
ATOM     13  C   UNL     1       6.870  46.446  52.871  1.00  0.00     0.043 A 
ATOM     14  C   UNL     1       9.451  47.080  53.802  1.00  0.00     0.141 A 
ATOM     15  C   UNL     1       8.344  47.339  54.599  1.00  0.00     0.043 A 
ATOM     16  C   UNL     1       9.290  46.508  52.547  1.00  0.00     0.078 A 
ATOM     17  C   UNL     1       7.063  47.021  54.133  1.00  0.00     0.029 A 
ATOM     18  C   UNL     1       8.008  46.193  52.086  1.00  0.00     0.049 A 
ATOM     19  F   UNL     1      10.670  47.392  54.267  1.00  0.00    -0.205 F 
ATOM     20  Cl  UNL     1      10.653  46.181  51.548  1.00  0.00    -0.081 Cl
ENDBRANCH  11  13
ENDBRANCH   1  11
BRANCH   3  21
ATOM     21  O   UNL     1       1.950  43.102  52.901  1.00  0.00    -0.476 OA
BRANCH  21  22
ATOM     22  C   UNL     1       1.038  44.178  53.129  1.00  0.00     0.235 C 
BRANCH  22  23
ATOM     23  C   UNL     1       0.547  44.180  54.586  1.00  0.00     0.027 C 
ATOM     24  C   UNL     1       1.259  45.287  55.380  1.00  0.00     0.007 C 
ATOM     25  C   UNL     1      -0.980  44.333  54.692  1.00  0.00     0.007 C 
ATOM     26  C   UNL     1       0.785  45.345  56.829  1.00  0.00     0.000 C 
ATOM     27  C   UNL     1      -1.446  44.398  56.145  1.00  0.00     0.000 C 
ATOM     28  C   UNL     1      -0.729  45.498  56.919  1.00  0.00     0.000 C 
ENDBRANCH  22  23
ENDBRANCH  21  22
ENDBRANCH   3  21
TORSDOF 5
ENDMDL
MODEL 10
REMARK VINA RESULT:    -8.573      3.482      5.845
REMARK INTER + INTRA:         -11.893
REMARK INTER:                 -11.173
REMARK INTRA:                  -0.720
REMARK UNBOUND:                -0.814
REMARK SMILES Fc1ccc(Nc2nc(OCC3CCCCC3)c3[nH]cnc3n2)cc1Cl
REMARK SMILES IDX 7 1 8 2 9 3 18 4 19 5 20 6 21 7 22 8 23 9 6 11 5 13 2 14
REMARK SMILES IDX 3 15 25 16 4 17 24 18 1 19 26 20 10 21 11 22 12 23 13 24
REMARK SMILES IDX 17 25 14 26 16 27 15 28
REMARK H PARENT 19 10 6 12
ROOT
ATOM      1  C   UNL     1       2.067  45.091  55.573  1.00  0.00     0.232 A 
ATOM      2  N   UNL     1       3.168  45.851  55.391  1.00  0.00    -0.175 NA
ATOM      3  C   UNL     1       3.827  45.793  54.218  1.00  0.00     0.245 A 
ATOM      4  C   UNL     1       3.350  44.943  53.257  1.00  0.00     0.148 A 
ATOM      5  N   UNL     1       3.731  44.599  51.993  1.00  0.00    -0.339 N 
ATOM      6  C   UNL     1       2.828  43.678  51.535  1.00  0.00     0.199 A 
ATOM      7  N   UNL     1       1.901  43.417  52.432  1.00  0.00    -0.217 NA
ATOM      8  C   UNL     1       2.220  44.199  53.509  1.00  0.00     0.186 A 
ATOM      9  N   UNL     1       1.547  44.253  54.667  1.00  0.00    -0.191 NA
ATOM     10  H   UNL     1       4.533  44.960  51.494  1.00  0.00     0.168 HD
ENDROOT
BRANCH   1  11
ATOM     11  N   UNL     1       1.360  45.118  56.778  1.00  0.00    -0.324 N 
ATOM     12  H   UNL     1       1.461  44.212  57.217  1.00  0.00     0.170 HD
BRANCH  11  13
ATOM     13  C   UNL     1       0.613  46.081  57.463  1.00  0.00     0.043 A 
ATOM     14  C   UNL     1      -0.996  47.989  58.768  1.00  0.00     0.141 A 
ATOM     15  C   UNL     1       0.291  47.741  59.223  1.00  0.00     0.043 A 
ATOM     16  C   UNL     1      -1.494  47.300  57.669  1.00  0.00     0.078 A 
ATOM     17  C   UNL     1       1.088  46.793  58.572  1.00  0.00     0.029 A 
ATOM     18  C   UNL     1      -0.694  46.353  57.022  1.00  0.00     0.049 A 
ATOM     19  F   UNL     1      -1.744  48.902  59.406  1.00  0.00    -0.205 F 
ATOM     20  Cl  UNL     1      -3.088  47.598  57.093  1.00  0.00    -0.081 Cl
ENDBRANCH  11  13
ENDBRANCH   1  11
BRANCH   3  21
ATOM     21  O   UNL     1       4.973  46.518  53.985  1.00  0.00    -0.476 OA
BRANCH  21  22
ATOM     22  C   UNL     1       6.141  46.066  54.674  1.00  0.00     0.235 C 
BRANCH  22  23
ATOM     23  C   UNL     1       7.364  46.075  53.743  1.00  0.00     0.027 C 
ATOM     24  C   UNL     1       6.924  46.371  52.300  1.00  0.00     0.007 C 
ATOM     25  C   UNL     1       8.441  47.074  54.197  1.00  0.00     0.007 C 
ATOM     26  C   UNL     1       8.109  46.416  51.340  1.00  0.00     0.000 C 
ATOM     27  C   UNL     1       9.621  47.120  53.228  1.00  0.00     0.000 C 
ATOM     28  C   UNL     1       9.168  47.411  51.802  1.00  0.00     0.000 C 
ENDBRANCH  22  23
ENDBRANCH  21  22
ENDBRANCH   3  21
TORSDOF 5
ENDMDL
