MODEL 1
REMARK VINA RESULT:    -9.999      0.000      0.000
REMARK INTER + INTRA:         -13.879
REMARK INTER:                 -12.921
REMARK INTRA:                  -0.957
REMARK UNBOUND:                -0.957
REMARK SMILES Fc1cccc(Nc2nc(OCC3CCCCC3)c3[nH]cnc3n2)c1
REMARK SMILES IDX 8 1 9 2 10 3 19 4 20 5 21 6 22 7 23 8 24 9 7 11 6 13 2 14
REMARK SMILES IDX 3 15 25 16 4 17 5 18 1 19 11 20 12 21 13 22 14 23 18 24
REMARK SMILES IDX 15 25 17 26 16 27
REMARK H PARENT 20 10 7 12
ROOT
ATOM      1  C   UNL     1       3.659  44.226  52.801  1.00  0.00     0.232 A 
ATOM      2  N   UNL     1       4.732  44.875  53.311  1.00  0.00    -0.175 NA
ATOM      3  C   UNL     1       4.612  45.524  54.487  1.00  0.00     0.245 A 
ATOM      4  C   UNL     1       3.395  45.509  55.108  1.00  0.00     0.148 A 
ATOM      5  N   UNL     1       2.890  46.039  56.259  1.00  0.00    -0.339 N 
ATOM      6  C   UNL     1       1.575  45.667  56.333  1.00  0.00     0.199 A 
ATOM      7  N   UNL     1       1.218  44.929  55.301  1.00  0.00    -0.217 NA
ATOM      8  C   UNL     1       2.346  44.829  54.529  1.00  0.00     0.186 A 
ATOM      9  N   UNL     1       2.449  44.171  53.367  1.00  0.00    -0.191 NA
ATOM     10  H   UNL     1       3.397  46.604  56.929  1.00  0.00     0.168 HD
ENDROOT
BRANCH   1  11
ATOM     11  N   UNL     1       3.914  43.589  51.584  1.00  0.00    -0.324 N 
ATOM     12  H   UNL     1       3.033  43.371  51.143  1.00  0.00     0.170 HD
BRANCH  11  13
ATOM     13  C   UNL     1       5.078  43.326  50.852  1.00  0.00     0.044 A 
ATOM     14  C   UNL     1       7.145  43.958  49.755  1.00  0.00     0.125 A 
ATOM     15  C   UNL     1       7.380  42.648  49.359  1.00  0.00     0.039 A 
ATOM     16  C   UNL     1       6.015  44.299  50.495  1.00  0.00     0.065 A 
ATOM     17  C   UNL     1       6.473  41.659  49.720  1.00  0.00     0.005 A 
ATOM     18  C   UNL     1       5.338  41.997  50.466  1.00  0.00     0.026 A 
ATOM     19  F   UNL     1       8.023  44.911  49.414  1.00  0.00    -0.207 F 
ENDBRANCH  11  13
ENDBRANCH   1  11
BRANCH   3  20
ATOM     20  O   UNL     1       5.673  46.179  55.067  1.00  0.00    -0.476 OA
BRANCH  20  21
ATOM     21  C   UNL     1       6.915  45.965  54.401  1.00  0.00     0.235 C 
BRANCH  21  22
ATOM     22  C   UNL     1       7.463  47.298  53.848  1.00  0.00     0.027 C 
ATOM     23  C   UNL     1       8.909  47.582  54.287  1.00  0.00     0.007 C 
ATOM     24  C   UNL     1       7.294  47.389  52.317  1.00  0.00     0.007 C 
ATOM     25  C   UNL     1       9.979  46.792  53.535  1.00  0.00     0.000 C 
ATOM     26  C   UNL     1       8.601  47.509  51.533  1.00  0.00     0.000 C 
ATOM     27  C   UNL     1       9.657  46.550  52.061  1.00  0.00     0.000 C 
ENDBRANCH  21  22
ENDBRANCH  20  21
ENDBRANCH   3  20
TORSDOF 5
ENDMDL
MODEL 2
REMARK VINA RESULT:    -9.837      0.917      1.327
REMARK INTER + INTRA:         -13.670
REMARK INTER:                 -12.717
REMARK INTRA:                  -0.953
REMARK UNBOUND:                -0.957
REMARK SMILES Fc1cccc(Nc2nc(OCC3CCCCC3)c3[nH]cnc3n2)c1
REMARK SMILES IDX 8 1 9 2 10 3 19 4 20 5 21 6 22 7 23 8 24 9 7 11 6 13 2 14
REMARK SMILES IDX 3 15 25 16 4 17 5 18 1 19 11 20 12 21 13 22 14 23 18 24
REMARK SMILES IDX 15 25 17 26 16 27
REMARK H PARENT 20 10 7 12
ROOT
ATOM      1  C   UNL     1       3.668  44.618  52.712  1.00  0.00     0.232 A 
ATOM      2  N   UNL     1       4.683  45.346  53.234  1.00  0.00    -0.175 NA
ATOM      3  C   UNL     1       4.543  45.886  54.462  1.00  0.00     0.245 A 
ATOM      4  C   UNL     1       3.364  45.683  55.123  1.00  0.00     0.148 A 
ATOM      5  N   UNL     1       2.855  46.062  56.331  1.00  0.00    -0.339 N 
ATOM      6  C   UNL     1       1.595  45.535  56.421  1.00  0.00     0.199 A 
ATOM      7  N   UNL     1       1.278  44.840  55.347  1.00  0.00    -0.217 NA
ATOM      8  C   UNL     1       2.374  44.931  54.529  1.00  0.00     0.186 A 
ATOM      9  N   UNL     1       2.499  44.379  53.315  1.00  0.00    -0.191 NA
ATOM     10  H   UNL     1       3.324  46.630  57.025  1.00  0.00     0.168 HD
ENDROOT
BRANCH   1  11
ATOM     11  N   UNL     1       3.939  44.109  51.440  1.00  0.00    -0.324 N 
ATOM     12  H   UNL     1       3.091  44.139  50.893  1.00  0.00     0.170 HD
BRANCH  11  13
ATOM     13  C   UNL     1       5.108  43.709  50.784  1.00  0.00     0.044 A 
ATOM     14  C   UNL     1       6.608  42.064  49.824  1.00  0.00     0.125 A 
ATOM     15  C   UNL     1       7.519  43.048  49.463  1.00  0.00     0.039 A 
ATOM     16  C   UNL     1       5.416  42.382  50.471  1.00  0.00     0.065 A 
ATOM     17  C   UNL     1       7.225  44.378  49.744  1.00  0.00     0.005 A 
ATOM     18  C   UNL     1       6.027  44.702  50.392  1.00  0.00     0.026 A 
ATOM     19  F   UNL     1       6.886  40.783  49.545  1.00  0.00    -0.207 F 
ENDBRANCH  11  13
ENDBRANCH   1  11
BRANCH   3  20
ATOM     20  O   UNL     1       5.547  46.615  55.054  1.00  0.00    -0.476 OA
BRANCH  20  21
ATOM     21  C   UNL     1       6.852  46.284  54.584  1.00  0.00     0.235 C 
BRANCH  21  22
ATOM     22  C   UNL     1       7.529  47.527  53.966  1.00  0.00     0.027 C 
ATOM     23  C   UNL     1       8.981  47.716  54.435  1.00  0.00     0.007 C 
ATOM     24  C   UNL     1       7.412  47.529  52.427  1.00  0.00     0.007 C 
ATOM     25  C   UNL     1       9.999  46.789  53.772  1.00  0.00     0.000 C 
ATOM     26  C   UNL     1       8.746  47.485  51.682  1.00  0.00     0.000 C 
ATOM     27  C   UNL     1       9.700  46.478  52.306  1.00  0.00     0.000 C 
ENDBRANCH  21  22
ENDBRANCH  20  21
ENDBRANCH   3  20
TORSDOF 5
ENDMDL
MODEL 3
REMARK VINA RESULT:    -9.416      1.931      4.898
REMARK INTER + INTRA:         -13.126
REMARK INTER:                 -12.403
REMARK INTRA:                  -0.723
REMARK UNBOUND:                -0.957
REMARK SMILES Fc1cccc(Nc2nc(OCC3CCCCC3)c3[nH]cnc3n2)c1
REMARK SMILES IDX 8 1 9 2 10 3 19 4 20 5 21 6 22 7 23 8 24 9 7 11 6 13 2 14
REMARK SMILES IDX 3 15 25 16 4 17 5 18 1 19 11 20 12 21 13 22 14 23 18 24
REMARK SMILES IDX 15 25 17 26 16 27
REMARK H PARENT 20 10 7 12
ROOT
ATOM      1  C   UNL     1       5.037  46.529  53.568  1.00  0.00     0.232 A 
ATOM      2  N   UNL     1       4.867  45.472  52.738  1.00  0.00    -0.175 NA
ATOM      3  C   UNL     1       3.872  44.596  52.981  1.00  0.00     0.245 A 
ATOM      4  C   UNL     1       3.081  44.810  54.076  1.00  0.00     0.148 A 
ATOM      5  N   UNL     1       2.020  44.166  54.643  1.00  0.00    -0.339 N 
ATOM      6  C   UNL     1       1.657  44.884  55.750  1.00  0.00     0.199 A 
ATOM      7  N   UNL     1       2.418  45.947  55.914  1.00  0.00    -0.217 NA
ATOM      8  C   UNL     1       3.313  45.906  54.877  1.00  0.00     0.186 A 
ATOM      9  N   UNL     1       4.291  46.792  54.645  1.00  0.00    -0.191 NA
ATOM     10  H   UNL     1       1.589  43.314  54.306  1.00  0.00     0.168 HD
ENDROOT
BRANCH   1  11
ATOM     11  N   UNL     1       6.096  47.364  53.203  1.00  0.00    -0.324 N 
ATOM     12  H   UNL     1       5.744  48.305  53.101  1.00  0.00     0.170 HD
BRANCH  11  13
ATOM     13  C   UNL     1       7.478  47.182  53.082  1.00  0.00     0.044 A 
ATOM     14  C   UNL     1       9.742  47.086  53.945  1.00  0.00     0.125 A 
ATOM     15  C   UNL     1      10.251  46.800  52.685  1.00  0.00     0.039 A 
ATOM     16  C   UNL     1       8.376  47.271  54.150  1.00  0.00     0.065 A 
ATOM     17  C   UNL     1       9.375  46.685  51.612  1.00  0.00     0.005 A 
ATOM     18  C   UNL     1       8.002  46.868  51.814  1.00  0.00     0.026 A 
ATOM     19  F   UNL     1      10.584  47.188  54.982  1.00  0.00    -0.207 F 
ENDBRANCH  11  13
ENDBRANCH   1  11
BRANCH   3  20
ATOM     20  O   UNL     1       3.635  43.519  52.161  1.00  0.00    -0.476 OA
BRANCH  20  21
ATOM     21  C   UNL     1       4.228  43.636  50.870  1.00  0.00     0.235 C 
BRANCH  21  22
ATOM     22  C   UNL     1       5.625  42.979  50.862  1.00  0.00     0.027 C 
ATOM     23  C   UNL     1       5.597  41.514  50.395  1.00  0.00     0.007 C 
ATOM     24  C   UNL     1       6.644  43.822  50.065  1.00  0.00     0.007 C 
ATOM     25  C   UNL     1       5.459  41.320  48.885  1.00  0.00     0.000 C 
ATOM     26  C   UNL     1       7.243  43.120  48.846  1.00  0.00     0.000 C 
ATOM     27  C   UNL     1       6.179  42.379  48.051  1.00  0.00     0.000 C 
ENDBRANCH  21  22
ENDBRANCH  20  21
ENDBRANCH   3  20
TORSDOF 5
ENDMDL
MODEL 4
REMARK VINA RESULT:    -9.374      2.904      5.608
REMARK INTER + INTRA:         -13.071
REMARK INTER:                 -12.426
REMARK INTRA:                  -0.644
REMARK UNBOUND:                -0.957
REMARK SMILES Fc1cccc(Nc2nc(OCC3CCCCC3)c3[nH]cnc3n2)c1
REMARK SMILES IDX 8 1 9 2 10 3 19 4 20 5 21 6 22 7 23 8 24 9 7 11 6 13 2 14
REMARK SMILES IDX 3 15 25 16 4 17 5 18 1 19 11 20 12 21 13 22 14 23 18 24
REMARK SMILES IDX 15 25 17 26 16 27
REMARK H PARENT 20 10 7 12
ROOT
ATOM      1  C   UNL     1       3.540  42.741  52.219  1.00  0.00     0.232 A 
ATOM      2  N   UNL     1       3.962  44.024  52.324  1.00  0.00    -0.175 NA
ATOM      3  C   UNL     1       4.961  44.455  51.527  1.00  0.00     0.245 A 
ATOM      4  C   UNL     1       5.518  43.564  50.653  1.00  0.00     0.148 A 
ATOM      5  N   UNL     1       6.518  43.614  49.727  1.00  0.00    -0.339 N 
ATOM      6  C   UNL     1       6.607  42.371  49.160  1.00  0.00     0.199 A 
ATOM      7  N   UNL     1       5.718  41.540  49.666  1.00  0.00    -0.217 NA
ATOM      8  C   UNL     1       5.038  42.274  50.602  1.00  0.00     0.186 A 
ATOM      9  N   UNL     1       4.040  41.830  51.378  1.00  0.00    -0.191 NA
ATOM     10  H   UNL     1       7.088  44.421  49.507  1.00  0.00     0.168 HD
ENDROOT
BRANCH   1  11
ATOM     11  N   UNL     1       2.498  42.421  53.092  1.00  0.00    -0.324 N 
ATOM     12  H   UNL     1       2.742  41.576  53.589  1.00  0.00     0.170 HD
BRANCH  11  13
ATOM     13  C   UNL     1       1.318  43.069  53.474  1.00  0.00     0.044 A 
ATOM     14  C   UNL     1       0.041  44.681  54.757  1.00  0.00     0.125 A 
ATOM     15  C   UNL     1      -1.143  44.280  54.155  1.00  0.00     0.039 A 
ATOM     16  C   UNL     1       1.259  44.091  54.424  1.00  0.00     0.065 A 
ATOM     17  C   UNL     1      -1.107  43.279  53.190  1.00  0.00     0.005 A 
ATOM     18  C   UNL     1       0.114  42.686  52.851  1.00  0.00     0.026 A 
ATOM     19  F   UNL     1       0.008  45.651  55.680  1.00  0.00    -0.207 F 
ENDBRANCH  11  13
ENDBRANCH   1  11
BRANCH   3  20
ATOM     20  O   UNL     1       5.416  45.752  51.571  1.00  0.00    -0.476 OA
BRANCH  20  21
ATOM     21  C   UNL     1       6.560  45.934  52.403  1.00  0.00     0.235 C 
BRANCH  21  22
ATOM     22  C   UNL     1       7.633  46.761  51.663  1.00  0.00     0.027 C 
ATOM     23  C   UNL     1       7.988  48.070  52.388  1.00  0.00     0.007 C 
ATOM     24  C   UNL     1       8.885  45.915  51.350  1.00  0.00     0.007 C 
ATOM     25  C   UNL     1       8.901  47.908  53.603  1.00  0.00     0.000 C 
ATOM     26  C   UNL     1      10.175  46.410  52.006  1.00  0.00     0.000 C 
ATOM     27  C   UNL     1       9.946  46.804  53.457  1.00  0.00     0.000 C 
ENDBRANCH  21  22
ENDBRANCH  20  21
ENDBRANCH   3  20
TORSDOF 5
ENDMDL
MODEL 5
REMARK VINA RESULT:    -9.011      1.587      4.315
REMARK INTER + INTRA:         -12.602
REMARK INTER:                 -11.488
REMARK INTRA:                  -1.114
REMARK UNBOUND:                -0.957
REMARK SMILES Fc1cccc(Nc2nc(OCC3CCCCC3)c3[nH]cnc3n2)c1
REMARK SMILES IDX 8 1 9 2 10 3 19 4 20 5 21 6 22 7 23 8 24 9 7 11 6 13 2 14
REMARK SMILES IDX 3 15 25 16 4 17 5 18 1 19 11 20 12 21 13 22 14 23 18 24
REMARK SMILES IDX 15 25 17 26 16 27
REMARK H PARENT 20 10 7 12
ROOT
ATOM      1  C   UNL     1       5.017  46.147  54.464  1.00  0.00     0.232 A 
ATOM      2  N   UNL     1       5.068  45.220  53.478  1.00  0.00    -0.175 NA
ATOM      3  C   UNL     1       4.006  44.414  53.277  1.00  0.00     0.245 A 
ATOM      4  C   UNL     1       2.921  44.562  54.096  1.00  0.00     0.148 A 
ATOM      5  N   UNL     1       1.707  43.952  54.212  1.00  0.00    -0.339 N 
ATOM      6  C   UNL     1       1.047  44.559  55.247  1.00  0.00     0.199 A 
ATOM      7  N   UNL     1       1.767  45.521  55.788  1.00  0.00    -0.217 NA
ATOM      8  C   UNL     1       2.941  45.526  55.080  1.00  0.00     0.186 A 
ATOM      9  N   UNL     1       3.983  46.343  55.288  1.00  0.00    -0.191 NA
ATOM     10  H   UNL     1       1.364  43.190  53.640  1.00  0.00     0.168 HD
ENDROOT
BRANCH   1  11
ATOM     11  N   UNL     1       6.175  46.921  54.566  1.00  0.00    -0.324 N 
ATOM     12  H   UNL     1       6.158  47.413  55.448  1.00  0.00     0.170 HD
BRANCH  11  13
ATOM     13  C   UNL     1       7.333  47.042  53.790  1.00  0.00     0.044 A 
ATOM     14  C   UNL     1       8.628  47.927  51.941  1.00  0.00     0.125 A 
ATOM     15  C   UNL     1       9.737  47.176  52.308  1.00  0.00     0.039 A 
ATOM     16  C   UNL     1       7.441  47.870  52.669  1.00  0.00     0.065 A 
ATOM     17  C   UNL     1       9.661  46.361  53.432  1.00  0.00     0.005 A 
ATOM     18  C   UNL     1       8.471  46.303  54.167  1.00  0.00     0.026 A 
ATOM     19  F   UNL     1       8.704  48.719  50.863  1.00  0.00    -0.207 F 
ENDBRANCH  11  13
ENDBRANCH   1  11
BRANCH   3  20
ATOM     20  O   UNL     1       3.989  43.471  52.277  1.00  0.00    -0.476 OA
BRANCH  20  21
ATOM     21  C   UNL     1       5.276  43.182  51.736  1.00  0.00     0.235 C 
BRANCH  21  22
ATOM     22  C   UNL     1       5.358  43.657  50.269  1.00  0.00     0.027 C 
ATOM     23  C   UNL     1       5.892  45.092  50.131  1.00  0.00     0.007 C 
ATOM     24  C   UNL     1       6.145  42.659  49.393  1.00  0.00     0.007 C 
ATOM     25  C   UNL     1       7.405  45.237  50.299  1.00  0.00     0.000 C 
ATOM     26  C   UNL     1       7.414  43.227  48.756  1.00  0.00     0.000 C 
ATOM     27  C   UNL     1       8.210  44.061  49.747  1.00  0.00     0.000 C 
ENDBRANCH  21  22
ENDBRANCH  20  21
ENDBRANCH   3  20
TORSDOF 5
ENDMDL
MODEL 6
REMARK VINA RESULT:    -9.007      2.559      5.196
REMARK INTER + INTRA:         -12.597
REMARK INTER:                 -11.453
REMARK INTRA:                  -1.144
REMARK UNBOUND:                -0.957
REMARK SMILES Fc1cccc(Nc2nc(OCC3CCCCC3)c3[nH]cnc3n2)c1
REMARK SMILES IDX 8 1 9 2 10 3 19 4 20 5 21 6 22 7 23 8 24 9 7 11 6 13 2 14
REMARK SMILES IDX 3 15 25 16 4 17 5 18 1 19 11 20 12 21 13 22 14 23 18 24
REMARK SMILES IDX 15 25 17 26 16 27
REMARK H PARENT 20 10 7 12
ROOT
ATOM      1  C   UNL     1       6.434  44.133  50.464  1.00  0.00     0.232 A 
ATOM      2  N   UNL     1       5.591  44.477  51.466  1.00  0.00    -0.175 NA
ATOM      3  C   UNL     1       4.514  43.705  51.716  1.00  0.00     0.245 A 
ATOM      4  C   UNL     1       4.314  42.606  50.927  1.00  0.00     0.148 A 
ATOM      5  N   UNL     1       3.370  41.624  50.859  1.00  0.00    -0.339 N 
ATOM      6  C   UNL     1       3.727  40.791  49.832  1.00  0.00     0.199 A 
ATOM      7  N   UNL     1       4.842  41.183  49.251  1.00  0.00    -0.217 NA
ATOM      8  C   UNL     1       5.213  42.319  49.923  1.00  0.00     0.186 A 
ATOM      9  N   UNL     1       6.294  43.068  49.668  1.00  0.00    -0.191 NA
ATOM     10  H   UNL     1       2.558  41.534  51.456  1.00  0.00     0.168 HD
ENDROOT
BRANCH   1  11
ATOM     11  N   UNL     1       7.512  45.009  50.312  1.00  0.00    -0.324 N 
ATOM     12  H   UNL     1       7.797  45.005  49.343  1.00  0.00     0.170 HD
BRANCH  11  13
ATOM     13  C   UNL     1       8.149  45.920  51.161  1.00  0.00     0.044 A 
ATOM     14  C   UNL     1       8.407  48.081  52.229  1.00  0.00     0.125 A 
ATOM     15  C   UNL     1       9.545  47.657  52.900  1.00  0.00     0.039 A 
ATOM     16  C   UNL     1       7.710  47.230  51.374  1.00  0.00     0.065 A 
ATOM     17  C   UNL     1       9.989  46.351  52.722  1.00  0.00     0.005 A 
ATOM     18  C   UNL     1       9.291  45.492  51.866  1.00  0.00     0.026 A 
ATOM     19  F   UNL     1       7.973  49.337  52.407  1.00  0.00    -0.207 F 
ENDBRANCH  11  13
ENDBRANCH   1  11
BRANCH   3  20
ATOM     20  O   UNL     1       3.637  43.989  52.735  1.00  0.00    -0.476 OA
BRANCH  20  21
ATOM     21  C   UNL     1       3.157  45.332  52.723  1.00  0.00     0.235 C 
BRANCH  21  22
ATOM     22  C   UNL     1       3.416  46.005  54.088  1.00  0.00     0.027 C 
ATOM     23  C   UNL     1       3.953  45.027  55.147  1.00  0.00     0.007 C 
ATOM     24  C   UNL     1       4.313  47.252  53.944  1.00  0.00     0.007 C 
ATOM     25  C   UNL     1       5.432  44.669  55.004  1.00  0.00     0.000 C 
ATOM     26  C   UNL     1       5.646  47.174  54.688  1.00  0.00     0.000 C 
ATOM     27  C   UNL     1       6.308  45.817  54.504  1.00  0.00     0.000 C 
ENDBRANCH  21  22
ENDBRANCH  20  21
ENDBRANCH   3  20
TORSDOF 5
ENDMDL
MODEL 7
REMARK VINA RESULT:    -8.742      2.572      6.519
REMARK INTER + INTRA:         -12.254
REMARK INTER:                 -11.437
REMARK INTRA:                  -0.817
REMARK UNBOUND:                -0.957
REMARK SMILES Fc1cccc(Nc2nc(OCC3CCCCC3)c3[nH]cnc3n2)c1
REMARK SMILES IDX 8 1 9 2 10 3 19 4 20 5 21 6 22 7 23 8 24 9 7 11 6 13 2 14
REMARK SMILES IDX 3 15 25 16 4 17 5 18 1 19 11 20 12 21 13 22 14 23 18 24
REMARK SMILES IDX 15 25 17 26 16 27
REMARK H PARENT 20 10 7 12
ROOT
ATOM      1  C   UNL     1       6.013  44.920  51.242  1.00  0.00     0.232 A 
ATOM      2  N   UNL     1       5.035  45.056  52.168  1.00  0.00    -0.175 NA
ATOM      3  C   UNL     1       4.115  44.080  52.303  1.00  0.00     0.245 A 
ATOM      4  C   UNL     1       4.206  42.992  51.480  1.00  0.00     0.148 A 
ATOM      5  N   UNL     1       3.486  41.847  51.308  1.00  0.00    -0.339 N 
ATOM      6  C   UNL     1       4.088  41.137  50.304  1.00  0.00     0.199 A 
ATOM      7  N   UNL     1       5.150  41.761  49.835  1.00  0.00    -0.217 NA
ATOM      8  C   UNL     1       5.228  42.922  50.559  1.00  0.00     0.186 A 
ATOM      9  N   UNL     1       6.157  43.877  50.417  1.00  0.00    -0.191 NA
ATOM     10  H   UNL     1       2.658  41.578  51.826  1.00  0.00     0.168 HD
ENDROOT
BRANCH   1  11
ATOM     11  N   UNL     1       6.905  45.995  51.205  1.00  0.00    -0.324 N 
ATOM     12  H   UNL     1       6.632  46.615  50.457  1.00  0.00     0.170 HD
BRANCH  11  13
ATOM     13  C   UNL     1       7.957  46.411  52.029  1.00  0.00     0.044 A 
ATOM     14  C   UNL     1       8.885  47.506  53.982  1.00  0.00     0.125 A 
ATOM     15  C   UNL     1      10.180  47.199  53.587  1.00  0.00     0.039 A 
ATOM     16  C   UNL     1       7.784  47.118  53.222  1.00  0.00     0.065 A 
ATOM     17  C   UNL     1      10.377  46.477  52.415  1.00  0.00     0.005 A 
ATOM     18  C   UNL     1       9.273  46.083  51.650  1.00  0.00     0.026 A 
ATOM     19  F   UNL     1       8.695  48.194  55.116  1.00  0.00    -0.207 F 
ENDBRANCH  11  13
ENDBRANCH   1  11
BRANCH   3  20
ATOM     20  O   UNL     1       3.113  44.150  53.242  1.00  0.00    -0.476 OA
BRANCH  20  21
ATOM     21  C   UNL     1       2.346  45.351  53.176  1.00  0.00     0.235 C 
BRANCH  21  22
ATOM     22  C   UNL     1       0.874  45.065  53.542  1.00  0.00     0.027 C 
ATOM     23  C   UNL     1      -0.080  45.198  52.343  1.00  0.00     0.007 C 
ATOM     24  C   UNL     1       0.720  43.706  54.257  1.00  0.00     0.007 C 
ATOM     25  C   UNL     1      -0.058  44.020  51.368  1.00  0.00     0.000 C 
ATOM     26  C   UNL     1      -0.154  42.690  53.522  1.00  0.00     0.000 C 
ATOM     27  C   UNL     1       0.155  42.661  52.034  1.00  0.00     0.000 C 
ENDBRANCH  21  22
ENDBRANCH  20  21
ENDBRANCH   3  20
TORSDOF 5
ENDMDL
MODEL 8
REMARK VINA RESULT:    -8.706      2.695      5.736
REMARK INTER + INTRA:         -12.209
REMARK INTER:                 -11.550
REMARK INTRA:                  -0.659
REMARK UNBOUND:                -0.957
REMARK SMILES Fc1cccc(Nc2nc(OCC3CCCCC3)c3[nH]cnc3n2)c1
REMARK SMILES IDX 8 1 9 2 10 3 19 4 20 5 21 6 22 7 23 8 24 9 7 11 6 13 2 14
REMARK SMILES IDX 3 15 25 16 4 17 5 18 1 19 11 20 12 21 13 22 14 23 18 24
REMARK SMILES IDX 15 25 17 26 16 27
REMARK H PARENT 20 10 7 12
ROOT
ATOM      1  C   UNL     1       3.441  45.154  54.739  1.00  0.00     0.232 A 
ATOM      2  N   UNL     1       4.304  46.191  54.857  1.00  0.00    -0.175 NA
ATOM      3  C   UNL     1       5.209  46.409  53.881  1.00  0.00     0.245 A 
ATOM      4  C   UNL     1       5.224  45.553  52.815  1.00  0.00     0.148 A 
ATOM      5  N   UNL     1       5.969  45.438  51.678  1.00  0.00    -0.339 N 
ATOM      6  C   UNL     1       5.494  44.353  50.992  1.00  0.00     0.199 A 
ATOM      7  N   UNL     1       4.489  43.779  51.622  1.00  0.00    -0.217 NA
ATOM      8  C   UNL     1       4.317  44.518  52.764  1.00  0.00     0.186 A 
ATOM      9  N   UNL     1       3.404  44.293  53.718  1.00  0.00    -0.191 NA
ATOM     10  H   UNL     1       6.733  46.043  51.401  1.00  0.00     0.168 HD
ENDROOT
BRANCH   1  11
ATOM     11  N   UNL     1       2.551  45.040  55.810  1.00  0.00    -0.324 N 
ATOM     12  H   UNL     1       3.082  45.005  56.668  1.00  0.00     0.170 HD
BRANCH  11  13
ATOM     13  C   UNL     1       1.157  45.088  55.922  1.00  0.00     0.044 A 
ATOM     14  C   UNL     1      -1.101  44.598  55.189  1.00  0.00     0.125 A 
ATOM     15  C   UNL     1      -1.641  45.277  56.272  1.00  0.00     0.039 A 
ATOM     16  C   UNL     1       0.278  44.496  55.012  1.00  0.00     0.065 A 
ATOM     17  C   UNL     1      -0.786  45.856  57.204  1.00  0.00     0.005 A 
ATOM     18  C   UNL     1       0.599  45.754  57.031  1.00  0.00     0.026 A 
ATOM     19  F   UNL     1      -1.924  44.032  54.296  1.00  0.00    -0.207 F 
ENDBRANCH  11  13
ENDBRANCH   1  11
BRANCH   3  20
ATOM     20  O   UNL     1       6.094  47.460  53.933  1.00  0.00    -0.476 OA
BRANCH  20  21
ATOM     21  C   UNL     1       7.375  47.108  54.451  1.00  0.00     0.235 C 
BRANCH  21  22
ATOM     22  C   UNL     1       8.479  47.929  53.749  1.00  0.00     0.027 C 
ATOM     23  C   UNL     1       9.864  47.266  53.829  1.00  0.00     0.007 C 
ATOM     24  C   UNL     1       8.088  48.281  52.298  1.00  0.00     0.007 C 
ATOM     25  C   UNL     1      10.076  46.096  52.869  1.00  0.00     0.000 C 
ATOM     26  C   UNL     1       9.018  47.709  51.227  1.00  0.00     0.000 C 
ATOM     27  C   UNL     1       9.380  46.262  51.518  1.00  0.00     0.000 C 
ENDBRANCH  21  22
ENDBRANCH  20  21
ENDBRANCH   3  20
TORSDOF 5
ENDMDL
MODEL 9
REMARK VINA RESULT:    -8.635      2.741      6.209
REMARK INTER + INTRA:         -12.116
REMARK INTER:                 -11.258
REMARK INTRA:                  -0.858
REMARK UNBOUND:                -0.957
REMARK SMILES Fc1cccc(Nc2nc(OCC3CCCCC3)c3[nH]cnc3n2)c1
REMARK SMILES IDX 8 1 9 2 10 3 19 4 20 5 21 6 22 7 23 8 24 9 7 11 6 13 2 14
REMARK SMILES IDX 3 15 25 16 4 17 5 18 1 19 11 20 12 21 13 22 14 23 18 24
REMARK SMILES IDX 15 25 17 26 16 27
REMARK H PARENT 20 10 7 12
ROOT
ATOM      1  C   UNL     1       5.915  47.104  54.006  1.00  0.00     0.232 A 
ATOM      2  N   UNL     1       6.048  46.693  52.722  1.00  0.00    -0.175 NA
ATOM      3  C   UNL     1       7.284  46.518  52.211  1.00  0.00     0.245 A 
ATOM      4  C   UNL     1       8.356  46.781  53.018  1.00  0.00     0.148 A 
ATOM      5  N   UNL     1       9.711  46.739  52.869  1.00  0.00    -0.339 N 
ATOM      6  C   UNL     1      10.261  47.126  54.061  1.00  0.00     0.199 A 
ATOM      7  N   UNL     1       9.336  47.405  54.958  1.00  0.00    -0.217 NA
ATOM      8  C   UNL     1       8.144  47.198  54.314  1.00  0.00     0.186 A 
ATOM      9  N   UNL     1       6.924  47.367  54.841  1.00  0.00    -0.191 NA
ATOM     10  H   UNL     1      10.212  46.473  52.030  1.00  0.00     0.168 HD
ENDROOT
BRANCH   1  11
ATOM     11  N   UNL     1       4.586  47.240  54.415  1.00  0.00    -0.324 N 
ATOM     12  H   UNL     1       4.471  48.150  54.838  1.00  0.00     0.170 HD
BRANCH  11  13
ATOM     13  C   UNL     1       3.435  46.461  54.252  1.00  0.00     0.044 A 
ATOM     14  C   UNL     1       1.513  45.656  53.014  1.00  0.00     0.125 A 
ATOM     15  C   UNL     1       1.126  44.841  54.069  1.00  0.00     0.039 A 
ATOM     16  C   UNL     1       2.653  46.454  53.095  1.00  0.00     0.065 A 
ATOM     17  C   UNL     1       1.901  44.815  55.223  1.00  0.00     0.005 A 
ATOM     18  C   UNL     1       3.048  45.613  55.307  1.00  0.00     0.026 A 
ATOM     19  F   UNL     1       0.772  45.676  51.898  1.00  0.00    -0.207 F 
ENDBRANCH  11  13
ENDBRANCH   1  11
BRANCH   3  20
ATOM     20  O   UNL     1       7.483  46.080  50.924  1.00  0.00    -0.476 OA
BRANCH  20  21
ATOM     21  C   UNL     1       7.451  44.661  50.787  1.00  0.00     0.235 C 
BRANCH  21  22
ATOM     22  C   UNL     1       6.224  44.231  49.955  1.00  0.00     0.027 C 
ATOM     23  C   UNL     1       6.511  43.031  49.038  1.00  0.00     0.007 C 
ATOM     24  C   UNL     1       4.988  43.996  50.848  1.00  0.00     0.007 C 
ATOM     25  C   UNL     1       6.551  41.675  49.742  1.00  0.00     0.000 C 
ATOM     26  C   UNL     1       4.439  42.568  50.821  1.00  0.00     0.000 C 
ATOM     27  C   UNL     1       5.558  41.540  50.896  1.00  0.00     0.000 C 
ENDBRANCH  21  22
ENDBRANCH  20  21
ENDBRANCH   3  20
TORSDOF 5
ENDMDL
MODEL 10
REMARK VINA RESULT:    -8.466      2.417      6.439
REMARK INTER + INTRA:         -11.898
REMARK INTER:                 -11.123
REMARK INTRA:                  -0.774
REMARK UNBOUND:                -0.957
REMARK SMILES Fc1cccc(Nc2nc(OCC3CCCCC3)c3[nH]cnc3n2)c1
REMARK SMILES IDX 8 1 9 2 10 3 19 4 20 5 21 6 22 7 23 8 24 9 7 11 6 13 2 14
REMARK SMILES IDX 3 15 25 16 4 17 5 18 1 19 11 20 12 21 13 22 14 23 18 24
REMARK SMILES IDX 15 25 17 26 16 27
REMARK H PARENT 20 10 7 12
ROOT
ATOM      1  C   UNL     1       5.623  45.143  51.152  1.00  0.00     0.232 A 
ATOM      2  N   UNL     1       4.394  45.456  51.627  1.00  0.00    -0.175 NA
ATOM      3  C   UNL     1       3.447  44.498  51.685  1.00  0.00     0.245 A 
ATOM      4  C   UNL     1       3.770  43.246  51.243  1.00  0.00     0.148 A 
ATOM      5  N   UNL     1       3.108  42.059  51.132  1.00  0.00    -0.339 N 
ATOM      6  C   UNL     1       3.988  41.153  50.605  1.00  0.00     0.199 A 
ATOM      7  N   UNL     1       5.169  41.692  50.381  1.00  0.00    -0.217 NA
ATOM      8  C   UNL     1       5.041  43.000  50.771  1.00  0.00     0.186 A 
ATOM      9  N   UNL     1       5.998  43.936  50.716  1.00  0.00    -0.191 NA
ATOM     10  H   UNL     1       2.144  41.886  51.390  1.00  0.00     0.168 HD
ENDROOT
BRANCH   1  11
ATOM     11  N   UNL     1       6.514  46.218  51.150  1.00  0.00    -0.324 N 
ATOM     12  H   UNL     1       6.152  46.937  50.540  1.00  0.00     0.170 HD
BRANCH  11  13
ATOM     13  C   UNL     1       7.671  46.522  51.876  1.00  0.00     0.044 A 
ATOM     14  C   UNL     1      10.069  46.542  52.237  1.00  0.00     0.125 A 
ATOM     15  C   UNL     1       9.918  47.186  53.458  1.00  0.00     0.039 A 
ATOM     16  C   UNL     1       8.966  46.215  51.450  1.00  0.00     0.065 A 
ATOM     17  C   UNL     1       8.641  47.521  53.894  1.00  0.00     0.005 A 
ATOM     18  C   UNL     1       7.531  47.197  53.104  1.00  0.00     0.026 A 
ATOM     19  F   UNL     1      11.300  46.227  51.813  1.00  0.00    -0.207 F 
ENDBRANCH  11  13
ENDBRANCH   1  11
BRANCH   3  20
ATOM     20  O   UNL     1       2.189  44.750  52.180  1.00  0.00    -0.476 OA
BRANCH  20  21
ATOM     21  C   UNL     1       2.185  45.279  53.504  1.00  0.00     0.235 C 
BRANCH  21  22
ATOM     22  C   UNL     1       1.717  44.203  54.508  1.00  0.00     0.027 C 
ATOM     23  C   UNL     1       1.148  44.800  55.806  1.00  0.00     0.007 C 
ATOM     24  C   UNL     1       0.741  43.203  53.853  1.00  0.00     0.007 C 
ATOM     25  C   UNL     1      -0.270  45.360  55.692  1.00  0.00     0.000 C 
ATOM     26  C   UNL     1      -0.657  43.173  54.472  1.00  0.00     0.000 C 
ATOM     27  C   UNL     1      -1.177  44.576  54.744  1.00  0.00     0.000 C 
ENDBRANCH  21  22
ENDBRANCH  20  21
ENDBRANCH   3  20
TORSDOF 5
ENDMDL
