MODEL 1
REMARK VINA RESULT:    -9.589      0.000      0.000
REMARK INTER + INTRA:         -14.237
REMARK INTER:                 -12.953
REMARK INTRA:                  -1.284
REMARK UNBOUND:                -1.284
REMARK SMILES CCc1cccc(Nc2nc(OCC3CCCCC3)c3[nH]cnc3n2)c1
REMARK SMILES IDX 9 1 10 2 11 3 20 4 21 5 22 6 23 7 24 8 25 9 8 11 7 13 3 14
REMARK SMILES IDX 4 15 26 16 5 17 6 18 2 19 1 20 12 21 13 22 14 23 15 24 19 25
REMARK SMILES IDX 16 26 18 27 17 28
REMARK H PARENT 21 10 8 12
ROOT
ATOM      1  C   UNL     1       3.615  44.523  52.814  1.00  0.00     0.232 A 
ATOM      2  N   UNL     1       4.607  45.292  53.309  1.00  0.00    -0.175 NA
ATOM      3  C   UNL     1       4.453  45.889  54.504  1.00  0.00     0.245 A 
ATOM      4  C   UNL     1       3.281  45.681  55.178  1.00  0.00     0.148 A 
ATOM      5  N   UNL     1       2.768  46.089  56.374  1.00  0.00    -0.339 N 
ATOM      6  C   UNL     1       1.519  45.542  56.484  1.00  0.00     0.199 A 
ATOM      7  N   UNL     1       1.212  44.811  55.433  1.00  0.00    -0.217 NA
ATOM      8  C   UNL     1       2.308  44.890  54.614  1.00  0.00     0.186 A 
ATOM      9  N   UNL     1       2.442  44.293  53.420  1.00  0.00    -0.191 NA
ATOM     10  H   UNL     1       3.228  46.686  57.046  1.00  0.00     0.168 HD
ENDROOT
BRANCH   1  11
ATOM     11  N   UNL     1       3.742  43.907  51.570  1.00  0.00    -0.324 N 
ATOM     12  H   UNL     1       2.836  43.885  51.122  1.00  0.00     0.170 HD
BRANCH  11  13
ATOM     13  C   UNL     1       4.795  43.284  50.892  1.00  0.00     0.041 A 
ATOM     14  C   UNL     1       6.878  43.307  49.594  1.00  0.00    -0.046 A 
ATOM     15  C   UNL     1       6.824  41.916  49.477  1.00  0.00     0.004 A 
ATOM     16  C   UNL     1       5.857  43.974  50.295  1.00  0.00     0.029 A 
ATOM     17  C   UNL     1       5.775  41.208  50.056  1.00  0.00     0.002 A 
ATOM     18  C   UNL     1       4.772  41.887  50.754  1.00  0.00     0.026 A 
BRANCH  14  19
ATOM     19  C   UNL     1       8.000  44.090  48.961  1.00  0.00     0.032 C 
ATOM     20  C   UNL     1       9.304  43.946  49.734  1.00  0.00     0.009 C 
ENDBRANCH  14  19
ENDBRANCH  11  13
ENDBRANCH   1  11
BRANCH   3  21
ATOM     21  O   UNL     1       5.436  46.685  55.046  1.00  0.00    -0.476 OA
BRANCH  21  22
ATOM     22  C   UNL     1       6.746  46.343  54.599  1.00  0.00     0.235 C 
BRANCH  22  23
ATOM     23  C   UNL     1       7.454  47.553  53.955  1.00  0.00     0.027 C 
ATOM     24  C   UNL     1       7.245  47.627  52.432  1.00  0.00     0.007 C 
ATOM     25  C   UNL     1       8.948  47.637  54.320  1.00  0.00     0.007 C 
ATOM     26  C   UNL     1       8.163  46.714  51.623  1.00  0.00     0.000 C 
ATOM     27  C   UNL     1       9.859  46.734  53.491  1.00  0.00     0.000 C 
ATOM     28  C   UNL     1       9.626  46.912  51.995  1.00  0.00     0.000 C 
ENDBRANCH  22  23
ENDBRANCH  21  22
ENDBRANCH   3  21
TORSDOF 6
ENDMDL
MODEL 2
REMARK VINA RESULT:    -8.927      2.330      5.595
REMARK INTER + INTRA:         -13.342
REMARK INTER:                 -12.161
REMARK INTRA:                  -1.180
REMARK UNBOUND:                -1.284
REMARK SMILES CCc1cccc(Nc2nc(OCC3CCCCC3)c3[nH]cnc3n2)c1
REMARK SMILES IDX 9 1 10 2 11 3 20 4 21 5 22 6 23 7 24 8 25 9 8 11 7 13 3 14
REMARK SMILES IDX 4 15 26 16 5 17 6 18 2 19 1 20 12 21 13 22 14 23 15 24 19 25
REMARK SMILES IDX 16 26 18 27 17 28
REMARK H PARENT 21 10 8 12
ROOT
ATOM      1  C   UNL     1       6.119  44.280  50.549  1.00  0.00     0.232 A 
ATOM      2  N   UNL     1       5.175  44.480  51.493  1.00  0.00    -0.175 NA
ATOM      3  C   UNL     1       4.181  43.588  51.639  1.00  0.00     0.245 A 
ATOM      4  C   UNL     1       4.173  42.497  50.816  1.00  0.00     0.148 A 
ATOM      5  N   UNL     1       3.368  41.406  50.664  1.00  0.00    -0.339 N 
ATOM      6  C   UNL     1       3.889  40.660  49.642  1.00  0.00     0.199 A 
ATOM      7  N   UNL     1       4.976  41.210  49.142  1.00  0.00    -0.217 NA
ATOM      8  C   UNL     1       5.161  42.355  49.870  1.00  0.00     0.186 A 
ATOM      9  N   UNL     1       6.157  43.239  49.706  1.00  0.00    -0.191 NA
ATOM     10  H   UNL     1       2.541  41.196  51.205  1.00  0.00     0.168 HD
ENDROOT
BRANCH   1  11
ATOM     11  N   UNL     1       7.152  45.198  50.366  1.00  0.00    -0.324 N 
ATOM     12  H   UNL     1       7.138  45.518  49.407  1.00  0.00     0.170 HD
BRANCH  11  13
ATOM     13  C   UNL     1       8.186  45.679  51.176  1.00  0.00     0.041 A 
ATOM     14  C   UNL     1       9.063  46.999  53.049  1.00  0.00    -0.046 A 
ATOM     15  C   UNL     1      10.368  46.653  52.687  1.00  0.00     0.004 A 
ATOM     16  C   UNL     1       7.988  46.512  52.283  1.00  0.00     0.029 A 
ATOM     17  C   UNL     1      10.590  45.831  51.586  1.00  0.00     0.002 A 
ATOM     18  C   UNL     1       9.509  45.352  50.840  1.00  0.00     0.026 A 
BRANCH  14  19
ATOM     19  C   UNL     1       8.805  47.900  54.231  1.00  0.00     0.032 C 
ATOM     20  C   UNL     1       9.874  47.753  55.305  1.00  0.00     0.009 C 
ENDBRANCH  14  19
ENDBRANCH  11  13
ENDBRANCH   1  11
BRANCH   3  21
ATOM     21  O   UNL     1       3.195  43.753  52.587  1.00  0.00    -0.476 OA
BRANCH  21  22
ATOM     22  C   UNL     1       3.696  44.184  53.850  1.00  0.00     0.235 C 
BRANCH  22  23
ATOM     23  C   UNL     1       2.964  45.449  54.344  1.00  0.00     0.027 C 
ATOM     24  C   UNL     1       2.382  46.290  53.195  1.00  0.00     0.007 C 
ATOM     25  C   UNL     1       3.824  46.307  55.289  1.00  0.00     0.007 C 
ATOM     26  C   UNL     1       3.394  47.200  52.503  1.00  0.00     0.000 C 
ATOM     27  C   UNL     1       4.820  47.228  54.585  1.00  0.00     0.000 C 
ATOM     28  C   UNL     1       4.150  48.066  53.502  1.00  0.00     0.000 C 
ENDBRANCH  22  23
ENDBRANCH  21  22
ENDBRANCH   3  21
TORSDOF 6
ENDMDL
MODEL 3
REMARK VINA RESULT:    -8.919      2.146      2.903
REMARK INTER + INTRA:         -13.332
REMARK INTER:                 -12.410
REMARK INTRA:                  -0.922
REMARK UNBOUND:                -1.284
REMARK SMILES CCc1cccc(Nc2nc(OCC3CCCCC3)c3[nH]cnc3n2)c1
REMARK SMILES IDX 9 1 10 2 11 3 20 4 21 5 22 6 23 7 24 8 25 9 8 11 7 13 3 14
REMARK SMILES IDX 4 15 26 16 5 17 6 18 2 19 1 20 12 21 13 22 14 23 15 24 19 25
REMARK SMILES IDX 16 26 18 27 17 28
REMARK H PARENT 21 10 8 12
ROOT
ATOM      1  C   UNL     1       2.283  43.019  52.559  1.00  0.00     0.232 A 
ATOM      2  N   UNL     1       2.612  44.327  52.605  1.00  0.00    -0.175 NA
ATOM      3  C   UNL     1       1.777  45.203  53.190  1.00  0.00     0.245 A 
ATOM      4  C   UNL     1       0.616  44.721  53.726  1.00  0.00     0.148 A 
ATOM      5  N   UNL     1      -0.445  45.268  54.385  1.00  0.00    -0.339 N 
ATOM      6  C   UNL     1      -1.316  44.250  54.664  1.00  0.00     0.199 A 
ATOM      7  N   UNL     1      -0.868  43.092  54.225  1.00  0.00    -0.217 NA
ATOM      8  C   UNL     1       0.338  43.377  53.641  1.00  0.00     0.186 A 
ATOM      9  N   UNL     1       1.156  42.489  53.056  1.00  0.00    -0.191 NA
ATOM     10  H   UNL     1      -0.562  46.245  54.618  1.00  0.00     0.168 HD
ENDROOT
BRANCH   1  11
ATOM     11  N   UNL     1       3.124  42.091  51.944  1.00  0.00    -0.324 N 
ATOM     12  H   UNL     1       2.917  41.171  52.308  1.00  0.00     0.170 HD
BRANCH  11  13
ATOM     13  C   UNL     1       4.182  42.186  51.034  1.00  0.00     0.041 A 
ATOM     14  C   UNL     1       6.125  43.316  50.049  1.00  0.00    -0.046 A 
ATOM     15  C   UNL     1       6.231  42.306  49.091  1.00  0.00     0.004 A 
ATOM     16  C   UNL     1       5.096  43.247  51.006  1.00  0.00     0.029 A 
ATOM     17  C   UNL     1       5.330  41.244  49.094  1.00  0.00     0.002 A 
ATOM     18  C   UNL     1       4.317  41.189  50.056  1.00  0.00     0.026 A 
BRANCH  14  19
ATOM     19  C   UNL     1       7.084  44.480  50.052  1.00  0.00     0.032 C 
ATOM     20  C   UNL     1       8.365  44.166  49.292  1.00  0.00     0.009 C 
ENDBRANCH  14  19
ENDBRANCH  11  13
ENDBRANCH   1  11
BRANCH   3  21
ATOM     21  O   UNL     1       2.070  46.547  53.256  1.00  0.00    -0.476 OA
BRANCH  21  22
ATOM     22  C   UNL     1       3.261  46.897  52.555  1.00  0.00     0.235 C 
BRANCH  22  23
ATOM     23  C   UNL     1       4.345  47.428  53.516  1.00  0.00     0.027 C 
ATOM     24  C   UNL     1       5.773  47.181  53.002  1.00  0.00     0.007 C 
ATOM     25  C   UNL     1       4.170  46.914  54.957  1.00  0.00     0.007 C 
ATOM     26  C   UNL     1       6.301  45.771  53.255  1.00  0.00     0.000 C 
ATOM     27  C   UNL     1       4.719  45.510  55.204  1.00  0.00     0.000 C 
ATOM     28  C   UNL     1       6.157  45.369  54.718  1.00  0.00     0.000 C 
ENDBRANCH  22  23
ENDBRANCH  21  22
ENDBRANCH   3  21
TORSDOF 6
ENDMDL
MODEL 4
REMARK VINA RESULT:    -8.882      2.380      6.601
REMARK INTER + INTRA:         -13.282
REMARK INTER:                 -12.466
REMARK INTRA:                  -0.815
REMARK UNBOUND:                -1.284
REMARK SMILES CCc1cccc(Nc2nc(OCC3CCCCC3)c3[nH]cnc3n2)c1
REMARK SMILES IDX 9 1 10 2 11 3 20 4 21 5 22 6 23 7 24 8 25 9 8 11 7 13 3 14
REMARK SMILES IDX 4 15 26 16 5 17 6 18 2 19 1 20 12 21 13 22 14 23 15 24 19 25
REMARK SMILES IDX 16 26 18 27 17 28
REMARK H PARENT 21 10 8 12
ROOT
ATOM      1  C   UNL     1       5.511  45.237  51.212  1.00  0.00     0.232 A 
ATOM      2  N   UNL     1       4.248  45.508  51.602  1.00  0.00    -0.175 NA
ATOM      3  C   UNL     1       3.325  44.531  51.592  1.00  0.00     0.245 A 
ATOM      4  C   UNL     1       3.715  43.284  51.186  1.00  0.00     0.148 A 
ATOM      5  N   UNL     1       3.100  42.075  51.049  1.00  0.00    -0.339 N 
ATOM      6  C   UNL     1       4.038  41.196  50.581  1.00  0.00     0.199 A 
ATOM      7  N   UNL     1       5.209  41.774  50.418  1.00  0.00    -0.217 NA
ATOM      8  C   UNL     1       5.017  43.077  50.795  1.00  0.00     0.186 A 
ATOM      9  N   UNL     1       5.950  44.042  50.793  1.00  0.00    -0.191 NA
ATOM     10  H   UNL     1       2.130  41.874  51.253  1.00  0.00     0.168 HD
ENDROOT
BRANCH   1  11
ATOM     11  N   UNL     1       6.484  46.236  51.198  1.00  0.00    -0.324 N 
ATOM     12  H   UNL     1       6.209  46.950  50.536  1.00  0.00     0.170 HD
BRANCH  11  13
ATOM     13  C   UNL     1       7.724  46.400  51.823  1.00  0.00     0.041 A 
ATOM     14  C   UNL     1       9.173  47.226  53.623  1.00  0.00    -0.046 A 
ATOM     15  C   UNL     1      10.295  46.741  52.947  1.00  0.00     0.004 A 
ATOM     16  C   UNL     1       7.901  47.055  53.048  1.00  0.00     0.029 A 
ATOM     17  C   UNL     1      10.146  46.093  51.724  1.00  0.00     0.002 A 
ATOM     18  C   UNL     1       8.873  45.927  51.171  1.00  0.00     0.026 A 
BRANCH  14  19
ATOM     19  C   UNL     1       9.319  47.943  54.942  1.00  0.00     0.032 C 
ATOM     20  C   UNL     1      10.592  47.542  55.673  1.00  0.00     0.009 C 
ENDBRANCH  14  19
ENDBRANCH  11  13
ENDBRANCH   1  11
BRANCH   3  21
ATOM     21  O   UNL     1       2.024  44.762  51.978  1.00  0.00    -0.476 OA
BRANCH  21  22
ATOM     22  C   UNL     1       1.917  45.338  53.277  1.00  0.00     0.235 C 
BRANCH  22  23
ATOM     23  C   UNL     1       1.651  44.262  54.350  1.00  0.00     0.027 C 
ATOM     24  C   UNL     1       0.659  43.182  53.881  1.00  0.00     0.007 C 
ATOM     25  C   UNL     1       1.230  44.859  55.706  1.00  0.00     0.007 C 
ATOM     26  C   UNL     1      -0.809  43.586  53.984  1.00  0.00     0.000 C 
ATOM     27  C   UNL     1      -0.246  45.241  55.804  1.00  0.00     0.000 C 
ATOM     28  C   UNL     1      -1.158  44.097  55.376  1.00  0.00     0.000 C 
ENDBRANCH  22  23
ENDBRANCH  21  22
ENDBRANCH   3  21
TORSDOF 6
ENDMDL
MODEL 5
REMARK VINA RESULT:    -8.828      1.650      5.432
REMARK INTER + INTRA:         -13.209
REMARK INTER:                 -12.294
REMARK INTRA:                  -0.915
REMARK UNBOUND:                -1.284
REMARK SMILES CCc1cccc(Nc2nc(OCC3CCCCC3)c3[nH]cnc3n2)c1
REMARK SMILES IDX 9 1 10 2 11 3 20 4 21 5 22 6 23 7 24 8 25 9 8 11 7 13 3 14
REMARK SMILES IDX 4 15 26 16 5 17 6 18 2 19 1 20 12 21 13 22 14 23 15 24 19 25
REMARK SMILES IDX 16 26 18 27 17 28
REMARK H PARENT 21 10 8 12
ROOT
ATOM      1  C   UNL     1       4.768  45.877  52.886  1.00  0.00     0.232 A 
ATOM      2  N   UNL     1       4.393  44.712  52.316  1.00  0.00    -0.175 NA
ATOM      3  C   UNL     1       3.395  43.996  52.862  1.00  0.00     0.245 A 
ATOM      4  C   UNL     1       2.791  44.490  53.985  1.00  0.00     0.148 A 
ATOM      5  N   UNL     1       1.776  44.078  54.797  1.00  0.00    -0.339 N 
ATOM      6  C   UNL     1       1.641  45.019  55.782  1.00  0.00     0.199 A 
ATOM      7  N   UNL     1       2.505  46.001  55.639  1.00  0.00    -0.217 NA
ATOM      8  C   UNL     1       3.225  45.681  54.519  1.00  0.00     0.186 A 
ATOM      9  N   UNL     1       4.224  46.405  53.991  1.00  0.00    -0.191 NA
ATOM     10  H   UNL     1       1.232  43.234  54.689  1.00  0.00     0.168 HD
ENDROOT
BRANCH   1  11
ATOM     11  N   UNL     1       5.811  46.631  52.350  1.00  0.00    -0.324 N 
ATOM     12  H   UNL     1       5.421  47.375  51.788  1.00  0.00     0.170 HD
BRANCH  11  13
ATOM     13  C   UNL     1       7.206  46.524  52.375  1.00  0.00     0.041 A 
ATOM     14  C   UNL     1       9.402  46.799  53.435  1.00  0.00    -0.046 A 
ATOM     15  C   UNL     1      10.025  46.339  52.272  1.00  0.00     0.004 A 
ATOM     16  C   UNL     1       7.999  46.892  53.469  1.00  0.00     0.029 A 
ATOM     17  C   UNL     1       9.258  45.974  51.169  1.00  0.00     0.002 A 
ATOM     18  C   UNL     1       7.864  46.068  51.223  1.00  0.00     0.026 A 
BRANCH  14  19
ATOM     19  C   UNL     1      10.218  47.212  54.634  1.00  0.00     0.032 C 
ATOM     20  C   UNL     1       9.544  48.322  55.429  1.00  0.00     0.009 C 
ENDBRANCH  14  19
ENDBRANCH  11  13
ENDBRANCH   1  11
BRANCH   3  21
ATOM     21  O   UNL     1       2.981  42.801  52.317  1.00  0.00    -0.476 OA
BRANCH  21  22
ATOM     22  C   UNL     1       3.310  42.670  50.936  1.00  0.00     0.235 C 
BRANCH  22  23
ATOM     23  C   UNL     1       4.262  41.481  50.694  1.00  0.00     0.027 C 
ATOM     24  C   UNL     1       5.731  41.914  50.537  1.00  0.00     0.007 C 
ATOM     25  C   UNL     1       3.815  40.583  49.526  1.00  0.00     0.007 C 
ATOM     26  C   UNL     1       6.092  42.431  49.147  1.00  0.00     0.000 C 
ATOM     27  C   UNL     1       4.199  41.100  48.141  1.00  0.00     0.000 C 
ATOM     28  C   UNL     1       5.680  41.451  48.056  1.00  0.00     0.000 C 
ENDBRANCH  22  23
ENDBRANCH  21  22
ENDBRANCH   3  21
TORSDOF 6
ENDMDL
MODEL 6
REMARK VINA RESULT:    -8.799      2.171      6.068
REMARK INTER + INTRA:         -13.169
REMARK INTER:                 -12.483
REMARK INTRA:                  -0.686
REMARK UNBOUND:                -1.284
REMARK SMILES CCc1cccc(Nc2nc(OCC3CCCCC3)c3[nH]cnc3n2)c1
REMARK SMILES IDX 9 1 10 2 11 3 20 4 21 5 22 6 23 7 24 8 25 9 8 11 7 13 3 14
REMARK SMILES IDX 4 15 26 16 5 17 6 18 2 19 1 20 12 21 13 22 14 23 15 24 19 25
REMARK SMILES IDX 16 26 18 27 17 28
REMARK H PARENT 21 10 8 12
ROOT
ATOM      1  C   UNL     1       4.091  43.496  52.174  1.00  0.00     0.232 A 
ATOM      2  N   UNL     1       5.048  44.426  51.976  1.00  0.00    -0.175 NA
ATOM      3  C   UNL     1       5.955  44.250  50.998  1.00  0.00     0.245 A 
ATOM      4  C   UNL     1       5.860  43.121  50.233  1.00  0.00     0.148 A 
ATOM      5  N   UNL     1       6.558  42.605  49.181  1.00  0.00    -0.339 N 
ATOM      6  C   UNL     1       5.970  41.414  48.852  1.00  0.00     0.199 A 
ATOM      7  N   UNL     1       4.941  41.148  49.629  1.00  0.00    -0.217 NA
ATOM      8  C   UNL     1       4.864  42.209  50.492  1.00  0.00     0.186 A 
ATOM      9  N   UNL     1       3.955  42.366  51.466  1.00  0.00    -0.191 NA
ATOM     10  H   UNL     1       7.362  43.026  48.735  1.00  0.00     0.168 HD
ENDROOT
BRANCH   1  11
ATOM     11  N   UNL     1       3.149  43.646  53.191  1.00  0.00    -0.324 N 
ATOM     12  H   UNL     1       3.548  43.309  54.057  1.00  0.00     0.170 HD
BRANCH  11  13
ATOM     13  C   UNL     1       1.818  44.075  53.234  1.00  0.00     0.041 A 
ATOM     14  C   UNL     1      -0.303  44.510  54.389  1.00  0.00    -0.046 A 
ATOM     15  C   UNL     1      -0.889  44.884  53.177  1.00  0.00     0.004 A 
ATOM     16  C   UNL     1       1.044  44.103  54.400  1.00  0.00     0.029 A 
ATOM     17  C   UNL     1      -0.141  44.859  52.004  1.00  0.00     0.002 A 
ATOM     18  C   UNL     1       1.197  44.457  52.035  1.00  0.00     0.026 A 
BRANCH  14  19
ATOM     19  C   UNL     1      -1.103  44.519  55.667  1.00  0.00     0.032 C 
ATOM     20  C   UNL     1      -0.280  45.006  56.852  1.00  0.00     0.009 C 
ENDBRANCH  14  19
ENDBRANCH  11  13
ENDBRANCH   1  11
BRANCH   3  21
ATOM     21  O   UNL     1       6.951  45.171  50.762  1.00  0.00    -0.476 OA
BRANCH  21  22
ATOM     22  C   UNL     1       6.959  46.244  51.701  1.00  0.00     0.235 C 
BRANCH  22  23
ATOM     23  C   UNL     1       8.220  47.118  51.546  1.00  0.00     0.027 C 
ATOM     24  C   UNL     1       9.523  46.301  51.596  1.00  0.00     0.007 C 
ATOM     25  C   UNL     1       8.258  48.296  52.537  1.00  0.00     0.007 C 
ATOM     26  C   UNL     1       9.994  45.948  53.005  1.00  0.00     0.000 C 
ATOM     27  C   UNL     1       8.749  47.935  53.938  1.00  0.00     0.000 C 
ATOM     28  C   UNL     1      10.072  47.179  53.899  1.00  0.00     0.000 C 
ENDBRANCH  22  23
ENDBRANCH  21  22
ENDBRANCH   3  21
TORSDOF 6
ENDMDL
MODEL 7
REMARK VINA RESULT:    -8.659      2.335      6.225
REMARK INTER + INTRA:         -12.981
REMARK INTER:                 -11.803
REMARK INTRA:                  -1.177
REMARK UNBOUND:                -1.284
REMARK SMILES CCc1cccc(Nc2nc(OCC3CCCCC3)c3[nH]cnc3n2)c1
REMARK SMILES IDX 9 1 10 2 11 3 20 4 21 5 22 6 23 7 24 8 25 9 8 11 7 13 3 14
REMARK SMILES IDX 4 15 26 16 5 17 6 18 2 19 1 20 12 21 13 22 14 23 15 24 19 25
REMARK SMILES IDX 16 26 18 27 17 28
REMARK H PARENT 21 10 8 12
ROOT
ATOM      1  C   UNL     1       5.945  46.904  53.787  1.00  0.00     0.232 A 
ATOM      2  N   UNL     1       6.196  46.528  52.515  1.00  0.00    -0.175 NA
ATOM      3  C   UNL     1       7.467  46.451  52.083  1.00  0.00     0.245 A 
ATOM      4  C   UNL     1       8.464  46.756  52.968  1.00  0.00     0.148 A 
ATOM      5  N   UNL     1       9.826  46.789  52.915  1.00  0.00    -0.339 N 
ATOM      6  C   UNL     1      10.268  47.189  54.146  1.00  0.00     0.199 A 
ATOM      7  N   UNL     1       9.269  47.408  54.975  1.00  0.00    -0.217 NA
ATOM      8  C   UNL     1       8.139  47.138  54.248  1.00  0.00     0.186 A 
ATOM      9  N   UNL     1       6.877  47.226  54.694  1.00  0.00    -0.191 NA
ATOM     10  H   UNL     1      10.397  46.561  52.112  1.00  0.00     0.168 HD
ENDROOT
BRANCH   1  11
ATOM     11  N   UNL     1       4.636  47.008  54.256  1.00  0.00    -0.324 N 
ATOM     12  H   UNL     1       4.557  47.843  54.821  1.00  0.00     0.170 HD
BRANCH  11  13
ATOM     13  C   UNL     1       3.500  46.197  54.167  1.00  0.00     0.041 A 
ATOM     14  C   UNL     1       1.674  45.119  52.931  1.00  0.00    -0.046 A 
ATOM     15  C   UNL     1       1.161  44.610  54.126  1.00  0.00     0.004 A 
ATOM     16  C   UNL     1       2.835  45.913  52.967  1.00  0.00     0.029 A 
ATOM     17  C   UNL     1       1.801  44.884  55.332  1.00  0.00     0.002 A 
ATOM     18  C   UNL     1       2.957  45.670  55.348  1.00  0.00     0.026 A 
BRANCH  14  19
ATOM     19  C   UNL     1       0.986  44.844  51.618  1.00  0.00     0.032 C 
ATOM     20  C   UNL     1       1.088  43.379  51.215  1.00  0.00     0.009 C 
ENDBRANCH  14  19
ENDBRANCH  11  13
ENDBRANCH   1  11
BRANCH   3  21
ATOM     21  O   UNL     1       7.770  46.076  50.794  1.00  0.00    -0.476 OA
BRANCH  21  22
ATOM     22  C   UNL     1       7.714  44.666  50.591  1.00  0.00     0.235 C 
BRANCH  22  23
ATOM     23  C   UNL     1       6.517  44.271  49.702  1.00  0.00     0.027 C 
ATOM     24  C   UNL     1       5.169  44.369  50.437  1.00  0.00     0.007 C 
ATOM     25  C   UNL     1       6.694  42.895  49.035  1.00  0.00     0.007 C 
ATOM     26  C   UNL     1       4.846  43.172  51.327  1.00  0.00     0.000 C 
ATOM     27  C   UNL     1       6.349  41.705  49.929  1.00  0.00     0.000 C 
ATOM     28  C   UNL     1       4.975  41.856  50.571  1.00  0.00     0.000 C 
ENDBRANCH  22  23
ENDBRANCH  21  22
ENDBRANCH   3  21
TORSDOF 6
ENDMDL
MODEL 8
REMARK VINA RESULT:    -8.629      1.514      4.917
REMARK INTER + INTRA:         -12.939
REMARK INTER:                 -11.906
REMARK INTRA:                  -1.033
REMARK UNBOUND:                -1.284
REMARK SMILES CCc1cccc(Nc2nc(OCC3CCCCC3)c3[nH]cnc3n2)c1
REMARK SMILES IDX 9 1 10 2 11 3 20 4 21 5 22 6 23 7 24 8 25 9 8 11 7 13 3 14
REMARK SMILES IDX 4 15 26 16 5 17 6 18 2 19 1 20 12 21 13 22 14 23 15 24 19 25
REMARK SMILES IDX 16 26 18 27 17 28
REMARK H PARENT 21 10 8 12
ROOT
ATOM      1  C   UNL     1       4.411  45.952  54.176  1.00  0.00     0.232 A 
ATOM      2  N   UNL     1       4.602  44.989  53.249  1.00  0.00    -0.175 NA
ATOM      3  C   UNL     1       3.608  44.128  52.970  1.00  0.00     0.245 A 
ATOM      4  C   UNL     1       2.427  44.273  53.645  1.00  0.00     0.148 A 
ATOM      5  N   UNL     1       1.225  43.629  53.639  1.00  0.00    -0.339 N 
ATOM      6  C   UNL     1       0.430  44.249  54.564  1.00  0.00     0.199 A 
ATOM      7  N   UNL     1       1.055  45.248  55.151  1.00  0.00    -0.217 NA
ATOM      8  C   UNL     1       2.301  45.272  54.582  1.00  0.00     0.186 A 
ATOM      9  N   UNL     1       3.284  46.135  54.877  1.00  0.00    -0.191 NA
ATOM     10  H   UNL     1       0.976  42.839  53.060  1.00  0.00     0.168 HD
ENDROOT
BRANCH   1  11
ATOM     11  N   UNL     1       5.432  46.847  54.496  1.00  0.00    -0.324 N 
ATOM     12  H   UNL     1       5.126  47.429  55.264  1.00  0.00     0.170 HD
BRANCH  11  13
ATOM     13  C   UNL     1       6.688  47.132  53.950  1.00  0.00     0.041 A 
ATOM     14  C   UNL     1       9.137  47.251  54.044  1.00  0.00    -0.046 A 
ATOM     15  C   UNL     1       9.161  47.826  52.770  1.00  0.00     0.004 A 
ATOM     16  C   UNL     1       7.898  46.918  54.620  1.00  0.00     0.029 A 
ATOM     17  C   UNL     1       7.970  48.054  52.086  1.00  0.00     0.002 A 
ATOM     18  C   UNL     1       6.749  47.711  52.673  1.00  0.00     0.026 A 
BRANCH  14  19
ATOM     19  C   UNL     1      10.416  47.010  54.804  1.00  0.00     0.032 C 
ATOM     20  C   UNL     1      10.511  47.874  56.054  1.00  0.00     0.009 C 
ENDBRANCH  14  19
ENDBRANCH  11  13
ENDBRANCH   1  11
BRANCH   3  21
ATOM     21  O   UNL     1       3.758  43.129  52.035  1.00  0.00    -0.476 OA
BRANCH  21  22
ATOM     22  C   UNL     1       5.102  42.977  51.587  1.00  0.00     0.235 C 
BRANCH  22  23
ATOM     23  C   UNL     1       5.295  43.564  50.173  1.00  0.00     0.027 C 
ATOM     24  C   UNL     1       6.073  42.624  49.236  1.00  0.00     0.007 C 
ATOM     25  C   UNL     1       5.910  44.975  50.190  1.00  0.00     0.007 C 
ATOM     26  C   UNL     1       7.588  42.668  49.414  1.00  0.00     0.000 C 
ATOM     27  C   UNL     1       7.429  45.006  50.348  1.00  0.00     0.000 C 
ATOM     28  C   UNL     1       8.123  44.092  49.345  1.00  0.00     0.000 C 
ENDBRANCH  22  23
ENDBRANCH  21  22
ENDBRANCH   3  21
TORSDOF 6
ENDMDL
MODEL 9
REMARK VINA RESULT:    -8.581      2.716      3.764
REMARK INTER + INTRA:         -12.875
REMARK INTER:                 -12.209
REMARK INTRA:                  -0.665
REMARK UNBOUND:                -1.284
REMARK SMILES CCc1cccc(Nc2nc(OCC3CCCCC3)c3[nH]cnc3n2)c1
REMARK SMILES IDX 9 1 10 2 11 3 20 4 21 5 22 6 23 7 24 8 25 9 8 11 7 13 3 14
REMARK SMILES IDX 4 15 26 16 5 17 6 18 2 19 1 20 12 21 13 22 14 23 15 24 19 25
REMARK SMILES IDX 16 26 18 27 17 28
REMARK H PARENT 21 10 8 12
ROOT
ATOM      1  C   UNL     1       5.066  42.518  50.442  1.00  0.00     0.232 A 
ATOM      2  N   UNL     1       5.790  43.638  50.648  1.00  0.00    -0.175 NA
ATOM      3  C   UNL     1       5.391  44.527  51.574  1.00  0.00     0.245 A 
ATOM      4  C   UNL     1       4.253  44.250  52.280  1.00  0.00     0.148 A 
ATOM      5  N   UNL     1       3.554  44.875  53.271  1.00  0.00    -0.339 N 
ATOM      6  C   UNL     1       2.474  44.086  53.561  1.00  0.00     0.199 A 
ATOM      7  N   UNL     1       2.450  43.000  52.817  1.00  0.00    -0.217 NA
ATOM      8  C   UNL     1       3.558  43.093  52.017  1.00  0.00     0.186 A 
ATOM      9  N   UNL     1       3.938  42.198  51.093  1.00  0.00    -0.191 NA
ATOM     10  H   UNL     1       3.793  45.757  53.703  1.00  0.00     0.168 HD
ENDROOT
BRANCH   1  11
ATOM     11  N   UNL     1       5.448  41.587  49.477  1.00  0.00    -0.324 N 
ATOM     12  H   UNL     1       6.315  41.155  49.766  1.00  0.00     0.170 HD
BRANCH  11  13
ATOM     13  C   UNL     1       4.941  41.209  48.230  1.00  0.00     0.041 A 
ATOM     14  C   UNL     1       4.852  41.321  45.780  1.00  0.00    -0.046 A 
ATOM     15  C   UNL     1       3.775  40.431  45.775  1.00  0.00     0.004 A 
ATOM     16  C   UNL     1       5.417  41.705  47.010  1.00  0.00     0.029 A 
ATOM     17  C   UNL     1       3.280  39.929  46.975  1.00  0.00     0.002 A 
ATOM     18  C   UNL     1       3.858  40.317  48.188  1.00  0.00     0.026 A 
BRANCH  14  19
ATOM     19  C   UNL     1       5.392  41.884  44.489  1.00  0.00     0.032 C 
ATOM     20  C   UNL     1       5.749  40.789  43.493  1.00  0.00     0.009 C 
ENDBRANCH  14  19
ENDBRANCH  11  13
ENDBRANCH   1  11
BRANCH   3  21
ATOM     21  O   UNL     1       6.096  45.685  51.815  1.00  0.00    -0.476 OA
BRANCH  21  22
ATOM     22  C   UNL     1       7.429  45.646  51.310  1.00  0.00     0.235 C 
BRANCH  22  23
ATOM     23  C   UNL     1       8.156  46.987  51.538  1.00  0.00     0.027 C 
ATOM     24  C   UNL     1       9.687  46.838  51.578  1.00  0.00     0.007 C 
ATOM     25  C   UNL     1       7.634  47.750  52.769  1.00  0.00     0.007 C 
ATOM     26  C   UNL     1      10.240  46.361  52.918  1.00  0.00     0.000 C 
ATOM     27  C   UNL     1       8.210  47.277  54.103  1.00  0.00     0.000 C 
ATOM     28  C   UNL     1       9.732  47.213  54.074  1.00  0.00     0.000 C 
ENDBRANCH  22  23
ENDBRANCH  21  22
ENDBRANCH   3  21
TORSDOF 6
ENDMDL
MODEL 10
REMARK VINA RESULT:    -8.386      1.938      6.116
REMARK INTER + INTRA:         -12.612
REMARK INTER:                 -12.029
REMARK INTRA:                  -0.582
REMARK UNBOUND:                -1.284
REMARK SMILES CCc1cccc(Nc2nc(OCC3CCCCC3)c3[nH]cnc3n2)c1
REMARK SMILES IDX 9 1 10 2 11 3 20 4 21 5 22 6 23 7 24 8 25 9 8 11 7 13 3 14
REMARK SMILES IDX 4 15 26 16 5 17 6 18 2 19 1 20 12 21 13 22 14 23 15 24 19 25
REMARK SMILES IDX 16 26 18 27 17 28
REMARK H PARENT 21 10 8 12
ROOT
ATOM      1  C   UNL     1       3.178  43.854  52.857  1.00  0.00     0.232 A 
ATOM      2  N   UNL     1       3.751  45.068  52.989  1.00  0.00    -0.175 NA
ATOM      3  C   UNL     1       4.828  45.381  52.246  1.00  0.00     0.245 A 
ATOM      4  C   UNL     1       5.297  44.440  51.372  1.00  0.00     0.148 A 
ATOM      5  N   UNL     1       6.321  44.381  50.473  1.00  0.00    -0.339 N 
ATOM      6  C   UNL     1       6.280  43.142  49.894  1.00  0.00     0.199 A 
ATOM      7  N   UNL     1       5.289  42.416  50.369  1.00  0.00    -0.217 NA
ATOM      8  C   UNL     1       4.670  43.219  51.290  1.00  0.00     0.186 A 
ATOM      9  N   UNL     1       3.599  42.888  52.028  1.00  0.00    -0.191 NA
ATOM     10  H   UNL     1       6.986  45.118  50.278  1.00  0.00     0.168 HD
ENDROOT
BRANCH   1  11
ATOM     11  N   UNL     1       2.071  43.499  53.627  1.00  0.00    -0.324 N 
ATOM     12  H   UNL     1       1.793  42.558  53.383  1.00  0.00     0.170 HD
BRANCH  11  13
ATOM     13  C   UNL     1       1.273  44.172  54.558  1.00  0.00     0.041 A 
ATOM     14  C   UNL     1      -0.883  44.955  55.429  1.00  0.00    -0.046 A 
ATOM     15  C   UNL     1      -0.225  45.634  56.457  1.00  0.00     0.004 A 
ATOM     16  C   UNL     1      -0.124  44.237  54.488  1.00  0.00     0.029 A 
ATOM     17  C   UNL     1       1.164  45.590  56.544  1.00  0.00     0.002 A 
ATOM     18  C   UNL     1       1.902  44.867  55.603  1.00  0.00     0.026 A 
BRANCH  14  19
ATOM     19  C   UNL     1      -2.385  45.004  55.312  1.00  0.00     0.032 C 
ATOM     20  C   UNL     1      -2.847  44.964  53.862  1.00  0.00     0.009 C 
ENDBRANCH  14  19
ENDBRANCH  11  13
ENDBRANCH   1  11
BRANCH   3  21
ATOM     21  O   UNL     1       5.447  46.606  52.350  1.00  0.00    -0.476 OA
BRANCH  21  22
ATOM     22  C   UNL     1       6.573  46.594  53.225  1.00  0.00     0.235 C 
BRANCH  22  23
ATOM     23  C   UNL     1       7.656  47.590  52.761  1.00  0.00     0.027 C 
ATOM     24  C   UNL     1       8.267  47.217  51.399  1.00  0.00     0.007 C 
ATOM     25  C   UNL     1       8.748  47.823  53.821  1.00  0.00     0.007 C 
ATOM     26  C   UNL     1       9.347  46.141  51.465  1.00  0.00     0.000 C 
ATOM     27  C   UNL     1       9.834  46.749  53.865  1.00  0.00     0.000 C 
ATOM     28  C   UNL     1      10.425  46.484  52.485  1.00  0.00     0.000 C 
ENDBRANCH  22  23
ENDBRANCH  21  22
ENDBRANCH   3  21
TORSDOF 6
ENDMDL
