MODEL 1
REMARK VINA RESULT:    -9.605      0.000      0.000
REMARK INTER + INTRA:         -13.093
REMARK INTER:                 -12.412
REMARK INTRA:                  -0.681
REMARK UNBOUND:                -0.681
REMARK SMILES Fc1ccc(Nc2nc(OCC3CCCCC3)c3[nH]cnc3n2)cc1
REMARK SMILES IDX 7 1 8 2 9 3 18 4 19 5 20 6 21 7 22 8 23 9 6 11 5 13 2 14
REMARK SMILES IDX 3 15 25 16 4 17 24 18 1 19 10 20 11 21 12 22 13 23 17 24
REMARK SMILES IDX 14 25 16 26 15 27
REMARK H PARENT 19 10 6 12
ROOT
ATOM      1  C   UNL     1       3.366  43.970  53.084  1.00  0.00     0.232 A 
ATOM      2  N   UNL     1       4.472  44.545  53.611  1.00  0.00    -0.175 NA
ATOM      3  C   UNL     1       4.372  45.258  54.749  1.00  0.00     0.245 A 
ATOM      4  C   UNL     1       3.133  45.381  55.319  1.00  0.00     0.148 A 
ATOM      5  N   UNL     1       2.633  46.010  56.420  1.00  0.00    -0.339 N 
ATOM      6  C   UNL     1       1.288  45.754  56.458  1.00  0.00     0.199 A 
ATOM      7  N   UNL     1       0.907  45.004  55.446  1.00  0.00    -0.217 NA
ATOM      8  C   UNL     1       2.051  44.768  54.729  1.00  0.00     0.186 A 
ATOM      9  N   UNL     1       2.137  44.047  53.603  1.00  0.00    -0.191 NA
ATOM     10  H   UNL     1       3.161  46.561  57.083  1.00  0.00     0.168 HD
ENDROOT
BRANCH   1  11
ATOM     11  N   UNL     1       3.615  43.262  51.908  1.00  0.00    -0.324 N 
ATOM     12  H   UNL     1       2.805  42.701  51.689  1.00  0.00     0.170 HD
BRANCH  11  13
ATOM     13  C   UNL     1       4.707  43.168  51.039  1.00  0.00     0.041 A 
ATOM     14  C   UNL     1       6.924  43.118  49.311  1.00  0.00     0.123 A 
ATOM     15  C   UNL     1       6.502  44.325  49.848  1.00  0.00     0.041 A 
ATOM     16  C   UNL     1       6.263  41.939  49.619  1.00  0.00     0.041 A 
ATOM     17  C   UNL     1       5.401  44.347  50.707  1.00  0.00     0.029 A 
ATOM     18  C   UNL     1       5.161  41.966  50.480  1.00  0.00     0.029 A 
ATOM     19  F   UNL     1       7.980  43.093  48.486  1.00  0.00    -0.207 F 
ENDBRANCH  11  13
ENDBRANCH   1  11
BRANCH   3  20
ATOM     20  O   UNL     1       5.457  45.889  55.312  1.00  0.00    -0.476 OA
BRANCH  20  21
ATOM     21  C   UNL     1       5.997  46.978  54.560  1.00  0.00     0.235 C 
BRANCH  21  22
ATOM     22  C   UNL     1       7.327  46.574  53.900  1.00  0.00     0.027 C 
ATOM     23  C   UNL     1       7.292  46.899  52.399  1.00  0.00     0.007 C 
ATOM     24  C   UNL     1       8.536  47.246  54.572  1.00  0.00     0.007 C 
ATOM     25  C   UNL     1       8.606  46.541  51.707  1.00  0.00     0.000 C 
ATOM     26  C   UNL     1       9.846  46.892  53.872  1.00  0.00     0.000 C 
ATOM     27  C   UNL     1       9.796  47.214  52.382  1.00  0.00     0.000 C 
ENDBRANCH  21  22
ENDBRANCH  20  21
ENDBRANCH   3  20
TORSDOF 5
ENDMDL
MODEL 2
REMARK VINA RESULT:    -9.548      3.040      6.387
REMARK INTER + INTRA:         -13.020
REMARK INTER:                 -12.131
REMARK INTRA:                  -0.888
REMARK UNBOUND:                -0.681
REMARK SMILES Fc1ccc(Nc2nc(OCC3CCCCC3)c3[nH]cnc3n2)cc1
REMARK SMILES IDX 7 1 8 2 9 3 18 4 19 5 20 6 21 7 22 8 23 9 6 11 5 13 2 14
REMARK SMILES IDX 3 15 25 16 4 17 24 18 1 19 10 20 11 21 12 22 13 23 17 24
REMARK SMILES IDX 14 25 16 26 15 27
REMARK H PARENT 19 10 6 12
ROOT
ATOM      1  C   UNL     1       5.853  46.883  54.164  1.00  0.00     0.232 A 
ATOM      2  N   UNL     1       5.991  46.358  52.925  1.00  0.00    -0.175 NA
ATOM      3  C   UNL     1       7.222  46.203  52.403  1.00  0.00     0.245 A 
ATOM      4  C   UNL     1       8.291  46.607  53.157  1.00  0.00     0.148 A 
ATOM      5  N   UNL     1       9.644  46.632  52.983  1.00  0.00    -0.339 N 
ATOM      6  C   UNL     1      10.190  47.160  54.122  1.00  0.00     0.199 A 
ATOM      7  N   UNL     1       9.265  47.472  55.005  1.00  0.00    -0.217 NA
ATOM      8  C   UNL     1       8.077  47.133  54.411  1.00  0.00     0.186 A 
ATOM      9  N   UNL     1       6.859  47.283  54.948  1.00  0.00    -0.191 NA
ATOM     10  H   UNL     1      10.145  46.318  52.163  1.00  0.00     0.168 HD
ENDROOT
BRANCH   1  11
ATOM     11  N   UNL     1       4.525  46.985  54.580  1.00  0.00    -0.324 N 
ATOM     12  H   UNL     1       4.460  47.701  55.288  1.00  0.00     0.170 HD
BRANCH  11  13
ATOM     13  C   UNL     1       3.344  46.315  54.244  1.00  0.00     0.041 A 
ATOM     14  C   UNL     1       0.978  44.899  53.696  1.00  0.00     0.123 A 
ATOM     15  C   UNL     1       1.670  44.645  54.870  1.00  0.00     0.041 A 
ATOM     16  C   UNL     1       1.442  45.843  52.792  1.00  0.00     0.041 A 
ATOM     17  C   UNL     1       2.845  45.351  55.140  1.00  0.00     0.029 A 
ATOM     18  C   UNL     1       2.619  46.547  53.068  1.00  0.00     0.029 A 
ATOM     19  F   UNL     1      -0.150  44.225  53.433  1.00  0.00    -0.207 F 
ENDBRANCH  11  13
ENDBRANCH   1  11
BRANCH   3  20
ATOM     20  O   UNL     1       7.420  45.702  51.137  1.00  0.00    -0.476 OA
BRANCH  20  21
ATOM     21  C   UNL     1       6.238  45.294  50.443  1.00  0.00     0.235 C 
BRANCH  21  22
ATOM     22  C   UNL     1       5.872  43.844  50.803  1.00  0.00     0.027 C 
ATOM     23  C   UNL     1       4.383  43.750  51.169  1.00  0.00     0.007 C 
ATOM     24  C   UNL     1       6.215  42.862  49.670  1.00  0.00     0.007 C 
ATOM     25  C   UNL     1       3.968  42.319  51.505  1.00  0.00     0.000 C 
ATOM     26  C   UNL     1       5.790  41.434  50.007  1.00  0.00     0.000 C 
ATOM     27  C   UNL     1       4.312  41.356  50.374  1.00  0.00     0.000 C 
ENDBRANCH  21  22
ENDBRANCH  20  21
ENDBRANCH   3  20
TORSDOF 5
ENDMDL
MODEL 3
REMARK VINA RESULT:    -9.495      1.757      4.426
REMARK INTER + INTRA:         -12.951
REMARK INTER:                 -11.967
REMARK INTRA:                  -0.984
REMARK UNBOUND:                -0.681
REMARK SMILES Fc1ccc(Nc2nc(OCC3CCCCC3)c3[nH]cnc3n2)cc1
REMARK SMILES IDX 7 1 8 2 9 3 18 4 19 5 20 6 21 7 22 8 23 9 6 11 5 13 2 14
REMARK SMILES IDX 3 15 25 16 4 17 24 18 1 19 10 20 11 21 12 22 13 23 17 24
REMARK SMILES IDX 14 25 16 26 15 27
REMARK H PARENT 19 10 6 12
ROOT
ATOM      1  C   UNL     1       4.850  46.281  54.459  1.00  0.00     0.232 A 
ATOM      2  N   UNL     1       4.844  45.285  53.543  1.00  0.00    -0.175 NA
ATOM      3  C   UNL     1       3.789  44.451  53.477  1.00  0.00     0.245 A 
ATOM      4  C   UNL     1       2.765  44.644  54.365  1.00  0.00     0.148 A 
ATOM      5  N   UNL     1       1.576  44.027  54.621  1.00  0.00    -0.339 N 
ATOM      6  C   UNL     1       0.981  44.703  55.652  1.00  0.00     0.199 A 
ATOM      7  N   UNL     1       1.722  45.708  56.066  1.00  0.00    -0.217 NA
ATOM      8  C   UNL     1       2.838  45.679  55.271  1.00  0.00     0.186 A 
ATOM      9  N   UNL     1       3.875  46.523  55.341  1.00  0.00    -0.191 NA
ATOM     10  H   UNL     1       1.207  43.220  54.136  1.00  0.00     0.168 HD
ENDROOT
BRANCH   1  11
ATOM     11  N   UNL     1       6.001  47.069  54.415  1.00  0.00    -0.324 N 
ATOM     12  H   UNL     1       5.904  47.823  55.079  1.00  0.00     0.170 HD
BRANCH  11  13
ATOM     13  C   UNL     1       7.180  47.032  53.663  1.00  0.00     0.041 A 
ATOM     14  C   UNL     1       9.607  46.876  52.252  1.00  0.00     0.123 A 
ATOM     15  C   UNL     1       9.500  46.275  53.497  1.00  0.00     0.041 A 
ATOM     16  C   UNL     1       8.530  47.551  51.698  1.00  0.00     0.041 A 
ATOM     17  C   UNL     1       8.292  46.354  54.196  1.00  0.00     0.029 A 
ATOM     18  C   UNL     1       7.322  47.626  52.402  1.00  0.00     0.029 A 
ATOM     19  F   UNL     1      10.763  46.803  51.579  1.00  0.00    -0.207 F 
ENDBRANCH  11  13
ENDBRANCH   1  11
BRANCH   3  20
ATOM     20  O   UNL     1       3.742  43.404  52.585  1.00  0.00    -0.476 OA
BRANCH  20  21
ATOM     21  C   UNL     1       4.021  43.740  51.224  1.00  0.00     0.235 C 
BRANCH  21  22
ATOM     22  C   UNL     1       5.518  43.558  50.917  1.00  0.00     0.027 C 
ATOM     23  C   UNL     1       5.722  42.362  49.975  1.00  0.00     0.007 C 
ATOM     24  C   UNL     1       6.147  44.829  50.324  1.00  0.00     0.007 C 
ATOM     25  C   UNL     1       7.193  42.161  49.618  1.00  0.00     0.000 C 
ATOM     26  C   UNL     1       7.616  44.621  49.962  1.00  0.00     0.000 C 
ATOM     27  C   UNL     1       7.805  43.428  49.031  1.00  0.00     0.000 C 
ENDBRANCH  21  22
ENDBRANCH  20  21
ENDBRANCH   3  20
TORSDOF 5
ENDMDL
MODEL 4
REMARK VINA RESULT:    -9.161      3.153      5.786
REMARK INTER + INTRA:         -12.520
REMARK INTER:                 -11.924
REMARK INTRA:                  -0.596
REMARK UNBOUND:                -0.681
REMARK SMILES Fc1ccc(Nc2nc(OCC3CCCCC3)c3[nH]cnc3n2)cc1
REMARK SMILES IDX 7 1 8 2 9 3 18 4 19 5 20 6 21 7 22 8 23 9 6 11 5 13 2 14
REMARK SMILES IDX 3 15 25 16 4 17 24 18 1 19 10 20 11 21 12 22 13 23 17 24
REMARK SMILES IDX 14 25 16 26 15 27
REMARK H PARENT 19 10 6 12
ROOT
ATOM      1  C   UNL     1       3.446  42.801  52.247  1.00  0.00     0.232 A 
ATOM      2  N   UNL     1       3.796  44.106  52.304  1.00  0.00    -0.175 NA
ATOM      3  C   UNL     1       4.787  44.562  51.515  1.00  0.00     0.245 A 
ATOM      4  C   UNL     1       5.413  43.665  50.691  1.00  0.00     0.148 A 
ATOM      5  N   UNL     1       6.433  43.728  49.789  1.00  0.00    -0.339 N 
ATOM      6  C   UNL     1       6.598  42.470  49.274  1.00  0.00     0.199 A 
ATOM      7  N   UNL     1       5.746  41.615  49.798  1.00  0.00    -0.217 NA
ATOM      8  C   UNL     1       5.004  42.350  50.685  1.00  0.00     0.186 A 
ATOM      9  N   UNL     1       4.013  41.884  51.456  1.00  0.00    -0.191 NA
ATOM     10  H   UNL     1       6.965  44.553  49.548  1.00  0.00     0.168 HD
ENDROOT
BRANCH   1  11
ATOM     11  N   UNL     1       2.406  42.466  53.115  1.00  0.00    -0.324 N 
ATOM     12  H   UNL     1       2.554  41.527  53.453  1.00  0.00     0.170 HD
BRANCH  11  13
ATOM     13  C   UNL     1       1.258  43.129  53.563  1.00  0.00     0.041 A 
ATOM     14  C   UNL     1      -1.127  44.373  54.380  1.00  0.00     0.123 A 
ATOM     15  C   UNL     1      -1.173  43.360  53.435  1.00  0.00     0.041 A 
ATOM     16  C   UNL     1       0.083  44.776  54.925  1.00  0.00     0.041 A 
ATOM     17  C   UNL     1       0.013  42.743  53.031  1.00  0.00     0.029 A 
ATOM     18  C   UNL     1       1.269  44.155  54.518  1.00  0.00     0.029 A 
ATOM     19  F   UNL     1      -2.262  44.968  54.771  1.00  0.00    -0.207 F 
ENDBRANCH  11  13
ENDBRANCH   1  11
BRANCH   3  20
ATOM     20  O   UNL     1       5.204  45.873  51.552  1.00  0.00    -0.476 OA
BRANCH  20  21
ATOM     21  C   UNL     1       5.510  46.387  52.851  1.00  0.00     0.235 C 
BRANCH  21  22
ATOM     22  C   UNL     1       6.881  47.084  52.848  1.00  0.00     0.027 C 
ATOM     23  C   UNL     1       7.568  46.904  54.210  1.00  0.00     0.007 C 
ATOM     24  C   UNL     1       7.787  46.579  51.713  1.00  0.00     0.007 C 
ATOM     25  C   UNL     1       8.948  47.556  54.244  1.00  0.00     0.000 C 
ATOM     26  C   UNL     1       9.169  47.227  51.756  1.00  0.00     0.000 C 
ATOM     27  C   UNL     1       9.837  47.046  53.114  1.00  0.00     0.000 C 
ENDBRANCH  21  22
ENDBRANCH  20  21
ENDBRANCH   3  20
TORSDOF 5
ENDMDL
MODEL 5
REMARK VINA RESULT:    -9.077      2.607      6.658
REMARK INTER + INTRA:         -12.411
REMARK INTER:                 -11.800
REMARK INTRA:                  -0.611
REMARK UNBOUND:                -0.681
REMARK SMILES Fc1ccc(Nc2nc(OCC3CCCCC3)c3[nH]cnc3n2)cc1
REMARK SMILES IDX 7 1 8 2 9 3 18 4 19 5 20 6 21 7 22 8 23 9 6 11 5 13 2 14
REMARK SMILES IDX 3 15 25 16 4 17 24 18 1 19 10 20 11 21 12 22 13 23 17 24
REMARK SMILES IDX 14 25 16 26 15 27
REMARK H PARENT 19 10 6 12
ROOT
ATOM      1  C   UNL     1       5.763  45.014  51.496  1.00  0.00     0.232 A 
ATOM      2  N   UNL     1       4.686  45.071  52.313  1.00  0.00    -0.175 NA
ATOM      3  C   UNL     1       3.812  44.046  52.331  1.00  0.00     0.245 A 
ATOM      4  C   UNL     1       4.051  42.988  51.496  1.00  0.00     0.148 A 
ATOM      5  N   UNL     1       3.418  41.812  51.219  1.00  0.00    -0.339 N 
ATOM      6  C   UNL     1       4.167  41.161  50.275  1.00  0.00     0.199 A 
ATOM      7  N   UNL     1       5.233  41.855  49.937  1.00  0.00    -0.217 NA
ATOM      8  C   UNL     1       5.168  42.997  50.692  1.00  0.00     0.186 A 
ATOM      9  N   UNL     1       6.052  44.003  50.671  1.00  0.00    -0.191 NA
ATOM     10  H   UNL     1       2.557  41.486  51.636  1.00  0.00     0.168 HD
ENDROOT
BRANCH   1  11
ATOM     11  N   UNL     1       6.583  46.140  51.580  1.00  0.00    -0.324 N 
ATOM     12  H   UNL     1       6.290  46.808  50.883  1.00  0.00     0.170 HD
BRANCH  11  13
ATOM     13  C   UNL     1       7.679  46.491  52.377  1.00  0.00     0.041 A 
ATOM     14  C   UNL     1       9.789  47.217  54.086  1.00  0.00     0.123 A 
ATOM     15  C   UNL     1       8.484  47.272  54.550  1.00  0.00     0.041 A 
ATOM     16  C   UNL     1      10.062  46.808  52.790  1.00  0.00     0.041 A 
ATOM     17  C   UNL     1       7.437  46.909  53.699  1.00  0.00     0.029 A 
ATOM     18  C   UNL     1       9.009  46.445  51.941  1.00  0.00     0.029 A 
ATOM     19  F   UNL     1      10.796  47.564  54.899  1.00  0.00    -0.207 F 
ENDBRANCH  11  13
ENDBRANCH   1  11
BRANCH   3  20
ATOM     20  O   UNL     1       2.684  44.064  53.119  1.00  0.00    -0.476 OA
BRANCH  20  21
ATOM     21  C   UNL     1       2.735  44.937  54.250  1.00  0.00     0.235 C 
BRANCH  21  22
ATOM     22  C   UNL     1       1.316  45.254  54.753  1.00  0.00     0.027 C 
ATOM     23  C   UNL     1       0.328  44.191  54.250  1.00  0.00     0.007 C 
ATOM     24  C   UNL     1       1.256  45.369  56.285  1.00  0.00     0.007 C 
ATOM     25  C   UNL     1      -1.092  44.449  54.751  1.00  0.00     0.000 C 
ATOM     26  C   UNL     1      -0.167  45.620  56.781  1.00  0.00     0.000 C 
ATOM     27  C   UNL     1      -1.138  44.561  56.271  1.00  0.00     0.000 C 
ENDBRANCH  21  22
ENDBRANCH  20  21
ENDBRANCH   3  20
TORSDOF 5
ENDMDL
MODEL 6
REMARK VINA RESULT:    -9.069      2.986      6.011
REMARK INTER + INTRA:         -12.400
REMARK INTER:                 -11.456
REMARK INTRA:                  -0.945
REMARK UNBOUND:                -0.681
REMARK SMILES Fc1ccc(Nc2nc(OCC3CCCCC3)c3[nH]cnc3n2)cc1
REMARK SMILES IDX 7 1 8 2 9 3 18 4 19 5 20 6 21 7 22 8 23 9 6 11 5 13 2 14
REMARK SMILES IDX 3 15 25 16 4 17 24 18 1 19 10 20 11 21 12 22 13 23 17 24
REMARK SMILES IDX 14 25 16 26 15 27
REMARK H PARENT 19 10 6 12
ROOT
ATOM      1  C   UNL     1       6.685  44.334  50.302  1.00  0.00     0.232 A 
ATOM      2  N   UNL     1       5.762  44.325  51.291  1.00  0.00    -0.175 NA
ATOM      3  C   UNL     1       4.839  43.346  51.328  1.00  0.00     0.245 A 
ATOM      4  C   UNL     1       4.870  42.400  50.338  1.00  0.00     0.148 A 
ATOM      5  N   UNL     1       4.125  41.301  50.027  1.00  0.00    -0.339 N 
ATOM      6  C   UNL     1       4.666  40.752  48.895  1.00  0.00     0.199 A 
ATOM      7  N   UNL     1       5.705  41.439  48.470  1.00  0.00    -0.217 NA
ATOM      8  C   UNL     1       5.838  42.470  49.363  1.00  0.00     0.186 A 
ATOM      9  N   UNL     1       6.770  43.432  49.319  1.00  0.00    -0.191 NA
ATOM     10  H   UNL     1       3.324  40.958  50.540  1.00  0.00     0.168 HD
ENDROOT
BRANCH   1  11
ATOM     11  N   UNL     1       7.579  45.401  50.386  1.00  0.00    -0.324 N 
ATOM     12  H   UNL     1       7.787  45.725  49.453  1.00  0.00     0.170 HD
BRANCH  11  13
ATOM     13  C   UNL     1       8.222  46.054  51.443  1.00  0.00     0.041 A 
ATOM     14  C   UNL     1       9.636  47.307  53.525  1.00  0.00     0.123 A 
ATOM     15  C   UNL     1      10.301  46.439  52.673  1.00  0.00     0.041 A 
ATOM     16  C   UNL     1       8.283  47.562  53.360  1.00  0.00     0.041 A 
ATOM     17  C   UNL     1       9.596  45.819  51.638  1.00  0.00     0.029 A 
ATOM     18  C   UNL     1       7.581  46.938  52.322  1.00  0.00     0.029 A 
ATOM     19  F   UNL     1      10.308  47.904  54.519  1.00  0.00    -0.207 F 
ENDBRANCH  11  13
ENDBRANCH   1  11
BRANCH   3  20
ATOM     20  O   UNL     1       3.859  43.304  52.293  1.00  0.00    -0.476 OA
BRANCH  20  21
ATOM     21  C   UNL     1       2.804  44.257  52.143  1.00  0.00     0.235 C 
BRANCH  21  22
ATOM     22  C   UNL     1       3.002  45.440  53.107  1.00  0.00     0.027 C 
ATOM     23  C   UNL     1       3.814  44.992  54.332  1.00  0.00     0.007 C 
ATOM     24  C   UNL     1       3.673  46.641  52.421  1.00  0.00     0.007 C 
ATOM     25  C   UNL     1       4.062  46.143  55.304  1.00  0.00     0.000 C 
ATOM     26  C   UNL     1       3.926  47.787  53.399  1.00  0.00     0.000 C 
ATOM     27  C   UNL     1       4.728  47.327  54.612  1.00  0.00     0.000 C 
ENDBRANCH  21  22
ENDBRANCH  20  21
ENDBRANCH   3  20
TORSDOF 5
ENDMDL
MODEL 7
REMARK VINA RESULT:    -9.037      3.089      6.677
REMARK INTER + INTRA:         -12.359
REMARK INTER:                 -11.755
REMARK INTRA:                  -0.604
REMARK UNBOUND:                -0.681
REMARK SMILES Fc1ccc(Nc2nc(OCC3CCCCC3)c3[nH]cnc3n2)cc1
REMARK SMILES IDX 7 1 8 2 9 3 18 4 19 5 20 6 21 7 22 8 23 9 6 11 5 13 2 14
REMARK SMILES IDX 3 15 25 16 4 17 24 18 1 19 10 20 11 21 12 22 13 23 17 24
REMARK SMILES IDX 14 25 16 26 15 27
REMARK H PARENT 19 10 6 12
ROOT
ATOM      1  C   UNL     1       5.553  44.814  51.393  1.00  0.00     0.232 A 
ATOM      2  N   UNL     1       5.769  43.649  50.739  1.00  0.00    -0.175 NA
ATOM      3  C   UNL     1       4.863  42.658  50.830  1.00  0.00     0.245 A 
ATOM      4  C   UNL     1       3.756  42.875  51.606  1.00  0.00     0.148 A 
ATOM      5  N   UNL     1       2.659  42.143  51.953  1.00  0.00    -0.339 N 
ATOM      6  C   UNL     1       1.890  42.926  52.771  1.00  0.00     0.199 A 
ATOM      7  N   UNL     1       2.434  44.109  52.964  1.00  0.00    -0.217 NA
ATOM      8  C   UNL     1       3.600  44.085  52.243  1.00  0.00     0.186 A 
ATOM      9  N   UNL     1       4.488  45.084  52.153  1.00  0.00    -0.191 NA
ATOM     10  H   UNL     1       2.456  41.197  51.659  1.00  0.00     0.168 HD
ENDROOT
BRANCH   1  11
ATOM     11  N   UNL     1       6.570  45.751  51.210  1.00  0.00    -0.324 N 
ATOM     12  H   UNL     1       6.487  46.145  50.284  1.00  0.00     0.170 HD
BRANCH  11  13
ATOM     13  C   UNL     1       7.631  46.206  52.000  1.00  0.00     0.041 A 
ATOM     14  C   UNL     1       9.670  47.131  53.700  1.00  0.00     0.123 A 
ATOM     15  C   UNL     1       8.372  47.037  54.178  1.00  0.00     0.041 A 
ATOM     16  C   UNL     1       9.970  46.773  52.395  1.00  0.00     0.041 A 
ATOM     17  C   UNL     1       7.361  46.576  53.332  1.00  0.00     0.029 A 
ATOM     18  C   UNL     1       8.953  46.312  51.551  1.00  0.00     0.029 A 
ATOM     19  F   UNL     1      10.643  47.572  54.509  1.00  0.00    -0.207 F 
ENDBRANCH  11  13
ENDBRANCH   1  11
BRANCH   3  20
ATOM     20  O   UNL     1       5.045  41.444  50.211  1.00  0.00    -0.476 OA
BRANCH  20  21
ATOM     21  C   UNL     1       5.832  41.471  49.017  1.00  0.00     0.235 C 
BRANCH  21  22
ATOM     22  C   UNL     1       4.928  41.586  47.777  1.00  0.00     0.027 C 
ATOM     23  C   UNL     1       5.785  41.771  46.515  1.00  0.00     0.007 C 
ATOM     24  C   UNL     1       3.995  40.373  47.625  1.00  0.00     0.007 C 
ATOM     25  C   UNL     1       4.930  41.859  45.253  1.00  0.00     0.000 C 
ATOM     26  C   UNL     1       3.148  40.462  46.357  1.00  0.00     0.000 C 
ATOM     27  C   UNL     1       4.010  40.651  45.114  1.00  0.00     0.000 C 
ENDBRANCH  21  22
ENDBRANCH  20  21
ENDBRANCH   3  20
TORSDOF 5
ENDMDL
MODEL 8
REMARK VINA RESULT:    -8.999      2.446      3.412
REMARK INTER + INTRA:         -12.310
REMARK INTER:                 -11.686
REMARK INTRA:                  -0.624
REMARK UNBOUND:                -0.681
REMARK SMILES Fc1ccc(Nc2nc(OCC3CCCCC3)c3[nH]cnc3n2)cc1
REMARK SMILES IDX 7 1 8 2 9 3 18 4 19 5 20 6 21 7 22 8 23 9 6 11 5 13 2 14
REMARK SMILES IDX 3 15 25 16 4 17 24 18 1 19 10 20 11 21 12 22 13 23 17 24
REMARK SMILES IDX 14 25 16 26 15 27
REMARK H PARENT 19 10 6 12
ROOT
ATOM      1  C   UNL     1       4.646  42.299  50.783  1.00  0.00     0.232 A 
ATOM      2  N   UNL     1       5.411  43.339  51.187  1.00  0.00    -0.175 NA
ATOM      3  C   UNL     1       4.968  44.146  52.170  1.00  0.00     0.245 A 
ATOM      4  C   UNL     1       3.739  43.878  52.711  1.00  0.00     0.148 A 
ATOM      5  N   UNL     1       2.962  44.448  53.676  1.00  0.00    -0.339 N 
ATOM      6  C   UNL     1       1.816  43.704  53.766  1.00  0.00     0.199 A 
ATOM      7  N   UNL     1       1.820  42.700  52.916  1.00  0.00    -0.217 NA
ATOM      8  C   UNL     1       3.015  42.802  52.251  1.00  0.00     0.186 A 
ATOM      9  N   UNL     1       3.447  41.985  51.282  1.00  0.00    -0.191 NA
ATOM     10  H   UNL     1       3.193  45.268  54.221  1.00  0.00     0.168 HD
ENDROOT
BRANCH   1  11
ATOM     11  N   UNL     1       5.226  41.547  49.760  1.00  0.00    -0.324 N 
ATOM     12  H   UNL     1       6.092  41.153  50.098  1.00  0.00     0.170 HD
BRANCH  11  13
ATOM     13  C   UNL     1       4.875  41.270  48.434  1.00  0.00     0.041 A 
ATOM     14  C   UNL     1       4.284  40.791  45.728  1.00  0.00     0.123 A 
ATOM     15  C   UNL     1       5.353  41.610  46.060  1.00  0.00     0.041 A 
ATOM     16  C   UNL     1       3.507  40.208  46.717  1.00  0.00     0.041 A 
ATOM     17  C   UNL     1       5.645  41.846  47.406  1.00  0.00     0.029 A 
ATOM     18  C   UNL     1       3.804  40.447  48.064  1.00  0.00     0.029 A 
ATOM     19  F   UNL     1       4.001  40.562  44.439  1.00  0.00    -0.207 F 
ENDBRANCH  11  13
ENDBRANCH   1  11
BRANCH   3  20
ATOM     20  O   UNL     1       5.690  45.235  52.600  1.00  0.00    -0.476 OA
BRANCH  20  21
ATOM     21  C   UNL     1       6.161  46.109  51.571  1.00  0.00     0.235 C 
BRANCH  21  22
ATOM     22  C   UNL     1       7.470  46.795  52.000  1.00  0.00     0.027 C 
ATOM     23  C   UNL     1       7.522  46.921  53.531  1.00  0.00     0.007 C 
ATOM     24  C   UNL     1       8.711  46.056  51.475  1.00  0.00     0.007 C 
ATOM     25  C   UNL     1       8.820  47.570  54.005  1.00  0.00     0.000 C 
ATOM     26  C   UNL     1      10.007  46.704  51.958  1.00  0.00     0.000 C 
ATOM     27  C   UNL     1      10.043  46.828  53.478  1.00  0.00     0.000 C 
ENDBRANCH  21  22
ENDBRANCH  20  21
ENDBRANCH   3  20
TORSDOF 5
ENDMDL
MODEL 9
REMARK VINA RESULT:    -8.984      1.503      2.129
REMARK INTER + INTRA:         -12.291
REMARK INTER:                 -11.765
REMARK INTRA:                  -0.526
REMARK UNBOUND:                -0.681
REMARK SMILES Fc1ccc(Nc2nc(OCC3CCCCC3)c3[nH]cnc3n2)cc1
REMARK SMILES IDX 7 1 8 2 9 3 18 4 19 5 20 6 21 7 22 8 23 9 6 11 5 13 2 14
REMARK SMILES IDX 3 15 25 16 4 17 24 18 1 19 10 20 11 21 12 22 13 23 17 24
REMARK SMILES IDX 14 25 16 26 15 27
REMARK H PARENT 19 10 6 12
ROOT
ATOM      1  C   UNL     1       3.495  42.798  52.430  1.00  0.00     0.232 A 
ATOM      2  N   UNL     1       4.460  43.717  52.663  1.00  0.00    -0.175 NA
ATOM      3  C   UNL     1       4.200  44.763  53.469  1.00  0.00     0.245 A 
ATOM      4  C   UNL     1       2.946  44.856  54.011  1.00  0.00     0.148 A 
ATOM      5  N   UNL     1       2.310  45.740  54.832  1.00  0.00    -0.339 N 
ATOM      6  C   UNL     1       1.036  45.274  55.019  1.00  0.00     0.199 A 
ATOM      7  N   UNL     1       0.827  44.152  54.366  1.00  0.00    -0.217 NA
ATOM      8  C   UNL     1       2.012  43.884  53.731  1.00  0.00     0.186 A 
ATOM      9  N   UNL     1       2.260  42.832  52.940  1.00  0.00    -0.191 NA
ATOM     10  H   UNL     1       2.709  46.581  55.226  1.00  0.00     0.168 HD
ENDROOT
BRANCH   1  11
ATOM     11  N   UNL     1       3.900  41.769  51.579  1.00  0.00    -0.324 N 
ATOM     12  H   UNL     1       3.742  40.885  52.039  1.00  0.00     0.170 HD
BRANCH  11  13
ATOM     13  C   UNL     1       4.469  41.728  50.302  1.00  0.00     0.041 A 
ATOM     14  C   UNL     1       5.504  41.559  47.693  1.00  0.00     0.123 A 
ATOM     15  C   UNL     1       4.368  40.837  48.026  1.00  0.00     0.041 A 
ATOM     16  C   UNL     1       6.132  42.362  48.633  1.00  0.00     0.041 A 
ATOM     17  C   UNL     1       3.856  40.923  49.323  1.00  0.00     0.029 A 
ATOM     18  C   UNL     1       5.614  42.445  49.931  1.00  0.00     0.029 A 
ATOM     19  F   UNL     1       5.999  41.479  46.451  1.00  0.00    -0.207 F 
ENDBRANCH  11  13
ENDBRANCH   1  11
BRANCH   3  20
ATOM     20  O   UNL     1       5.134  45.742  53.717  1.00  0.00    -0.476 OA
BRANCH  20  21
ATOM     21  C   UNL     1       5.404  46.628  52.628  1.00  0.00     0.235 C 
BRANCH  21  22
ATOM     22  C   UNL     1       6.832  47.191  52.729  1.00  0.00     0.027 C 
ATOM     23  C   UNL     1       7.436  46.855  54.101  1.00  0.00     0.007 C 
ATOM     24  C   UNL     1       7.738  46.680  51.597  1.00  0.00     0.007 C 
ATOM     25  C   UNL     1       8.868  47.369  54.235  1.00  0.00     0.000 C 
ATOM     26  C   UNL     1       9.171  47.190  51.741  1.00  0.00     0.000 C 
ATOM     27  C   UNL     1       9.756  46.854  53.108  1.00  0.00     0.000 C 
ENDBRANCH  21  22
ENDBRANCH  20  21
ENDBRANCH   3  20
TORSDOF 5
ENDMDL
MODEL 10
REMARK VINA RESULT:    -8.974      2.838      5.310
REMARK INTER + INTRA:         -12.278
REMARK INTER:                 -11.305
REMARK INTRA:                  -0.973
REMARK UNBOUND:                -0.681
REMARK SMILES Fc1ccc(Nc2nc(OCC3CCCCC3)c3[nH]cnc3n2)cc1
REMARK SMILES IDX 7 1 8 2 9 3 18 4 19 5 20 6 21 7 22 8 23 9 6 11 5 13 2 14
REMARK SMILES IDX 3 15 25 16 4 17 24 18 1 19 10 20 11 21 12 22 13 23 17 24
REMARK SMILES IDX 14 25 16 26 15 27
REMARK H PARENT 19 10 6 12
ROOT
ATOM      1  C   UNL     1       7.571  45.662  51.252  1.00  0.00     0.232 A 
ATOM      2  N   UNL     1       6.535  46.341  51.795  1.00  0.00    -0.175 NA
ATOM      3  C   UNL     1       6.749  47.143  52.855  1.00  0.00     0.245 A 
ATOM      4  C   UNL     1       8.024  47.222  53.349  1.00  0.00     0.148 A 
ATOM      5  N   UNL     1       8.623  47.884  54.381  1.00  0.00    -0.339 N 
ATOM      6  C   UNL     1       9.950  47.550  54.360  1.00  0.00     0.199 A 
ATOM      7  N   UNL     1      10.227  46.715  53.381  1.00  0.00    -0.217 NA
ATOM      8  C   UNL     1       9.031  46.503  52.747  1.00  0.00     0.186 A 
ATOM      9  N   UNL     1       8.835  45.710  51.685  1.00  0.00    -0.191 NA
ATOM     10  H   UNL     1       8.167  48.505  55.035  1.00  0.00     0.168 HD
ENDROOT
BRANCH   1  11
ATOM     11  N   UNL     1       7.207  44.872  50.161  1.00  0.00    -0.324 N 
ATOM     12  H   UNL     1       7.618  45.262  49.326  1.00  0.00     0.170 HD
BRANCH  11  13
ATOM     13  C   UNL     1       6.415  43.729  50.006  1.00  0.00     0.041 A 
ATOM     14  C   UNL     1       4.742  41.479  49.805  1.00  0.00     0.123 A 
ATOM     15  C   UNL     1       4.526  42.403  50.816  1.00  0.00     0.041 A 
ATOM     16  C   UNL     1       5.773  41.655  48.895  1.00  0.00     0.041 A 
ATOM     17  C   UNL     1       5.359  43.521  50.913  1.00  0.00     0.029 A 
ATOM     18  C   UNL     1       6.604  42.777  48.996  1.00  0.00     0.029 A 
ATOM     19  F   UNL     1       3.946  40.405  49.708  1.00  0.00    -0.207 F 
ENDBRANCH  11  13
ENDBRANCH   1  11
BRANCH   3  20
ATOM     20  O   UNL     1       5.728  47.834  53.465  1.00  0.00    -0.476 OA
BRANCH  20  21
ATOM     21  C   UNL     1       5.140  47.193  54.600  1.00  0.00     0.235 C 
BRANCH  21  22
ATOM     22  C   UNL     1       3.826  46.495  54.206  1.00  0.00     0.027 C 
ATOM     23  C   UNL     1       3.279  47.096  52.903  1.00  0.00     0.007 C 
ATOM     24  C   UNL     1       3.995  44.973  54.072  1.00  0.00     0.007 C 
ATOM     25  C   UNL     1       1.988  46.413  52.457  1.00  0.00     0.000 C 
ATOM     26  C   UNL     1       2.704  44.295  53.619  1.00  0.00     0.000 C 
ATOM     27  C   UNL     1       2.169  44.904  52.327  1.00  0.00     0.000 C 
ENDBRANCH  21  22
ENDBRANCH  20  21
ENDBRANCH   3  20
TORSDOF 5
ENDMDL
