MODEL 1
REMARK VINA RESULT:    -9.370      0.000      0.000
REMARK INTER + INTRA:         -13.388
REMARK INTER:                 -12.656
REMARK INTRA:                  -0.732
REMARK UNBOUND:                -0.732
REMARK SMILES CSc1cccc(Nc2nc(OCC3CCCCC3)c3[nH]cnc3n2)c1
REMARK SMILES IDX 9 1 10 2 11 3 20 4 21 5 22 6 23 7 24 8 25 9 8 11 7 13 3 14
REMARK SMILES IDX 4 15 26 16 5 17 6 18 2 19 1 20 12 21 13 22 14 23 15 24 19 25
REMARK SMILES IDX 16 26 18 27 17 28
REMARK H PARENT 21 10 8 12
ROOT
ATOM      1  C   UNL     1       3.490  42.935  52.315  1.00  0.00     0.232 A 
ATOM      2  N   UNL     1       3.944  44.202  52.403  1.00  0.00    -0.175 NA
ATOM      3  C   UNL     1       4.975  44.594  51.632  1.00  0.00     0.245 A 
ATOM      4  C   UNL     1       5.524  43.675  50.779  1.00  0.00     0.148 A 
ATOM      5  N   UNL     1       6.540  43.683  49.871  1.00  0.00    -0.339 N 
ATOM      6  C   UNL     1       6.602  42.431  49.322  1.00  0.00     0.199 A 
ATOM      7  N   UNL     1       5.687  41.632  49.827  1.00  0.00    -0.217 NA
ATOM      8  C   UNL     1       5.009  42.399  50.737  1.00  0.00     0.186 A 
ATOM      9  N   UNL     1       3.982  41.993  51.498  1.00  0.00    -0.191 NA
ATOM     10  H   UNL     1       7.135  44.470  49.648  1.00  0.00     0.168 HD
ENDROOT
BRANCH   1  11
ATOM     11  N   UNL     1       2.420  42.499  53.098  1.00  0.00    -0.324 N 
ATOM     12  H   UNL     1       2.741  41.742  53.686  1.00  0.00     0.170 HD
BRANCH  11  13
ATOM     13  C   UNL     1       1.098  42.921  53.278  1.00  0.00     0.042 A 
ATOM     14  C   UNL     1      -0.497  44.209  54.624  1.00  0.00     0.009 A 
ATOM     15  C   UNL     1      -1.532  43.822  53.775  1.00  0.00     0.015 A 
ATOM     16  C   UNL     1       0.807  43.765  54.364  1.00  0.00     0.041 A 
ATOM     17  C   UNL     1      -1.268  42.983  52.696  1.00  0.00     0.003 A 
ATOM     18  C   UNL     1       0.035  42.534  52.457  1.00  0.00     0.026 A 
BRANCH  14  19
ATOM     19  S   UNL     1      -0.787  45.290  56.014  1.00  0.00    -0.130 SA
ATOM     20  C   UNL     1       0.881  45.333  56.724  1.00  0.00     0.091 C 
ENDBRANCH  14  19
ENDBRANCH  11  13
ENDBRANCH   1  11
BRANCH   3  21
ATOM     21  O   UNL     1       5.473  45.877  51.687  1.00  0.00    -0.476 OA
BRANCH  21  22
ATOM     22  C   UNL     1       6.684  45.971  52.447  1.00  0.00     0.235 C 
BRANCH  22  23
ATOM     23  C   UNL     1       7.717  46.775  51.635  1.00  0.00     0.027 C 
ATOM     24  C   UNL     1       8.071  48.089  52.340  1.00  0.00     0.007 C 
ATOM     25  C   UNL     1       8.980  45.941  51.326  1.00  0.00     0.007 C 
ATOM     26  C   UNL     1       8.868  47.885  53.629  1.00  0.00     0.000 C 
ATOM     27  C   UNL     1      10.220  46.371  52.113  1.00  0.00     0.000 C 
ATOM     28  C   UNL     1       9.879  46.741  53.549  1.00  0.00     0.000 C 
ENDBRANCH  22  23
ENDBRANCH  21  22
ENDBRANCH   3  21
TORSDOF 6
ENDMDL
MODEL 2
REMARK VINA RESULT:    -9.217      1.123      1.988
REMARK INTER + INTRA:         -13.182
REMARK INTER:                 -12.462
REMARK INTRA:                  -0.720
REMARK UNBOUND:                -0.732
REMARK SMILES CSc1cccc(Nc2nc(OCC3CCCCC3)c3[nH]cnc3n2)c1
REMARK SMILES IDX 9 1 10 2 11 3 20 4 21 5 22 6 23 7 24 8 25 9 8 11 7 13 3 14
REMARK SMILES IDX 4 15 26 16 5 17 6 18 2 19 1 20 12 21 13 22 14 23 15 24 19 25
REMARK SMILES IDX 16 26 18 27 17 28
REMARK H PARENT 21 10 8 12
ROOT
ATOM      1  C   UNL     1       3.494  42.992  52.291  1.00  0.00     0.232 A 
ATOM      2  N   UNL     1       3.961  44.255  52.372  1.00  0.00    -0.175 NA
ATOM      3  C   UNL     1       5.000  44.630  51.603  1.00  0.00     0.245 A 
ATOM      4  C   UNL     1       5.543  43.699  50.759  1.00  0.00     0.148 A 
ATOM      5  N   UNL     1       6.563  43.690  49.856  1.00  0.00    -0.339 N 
ATOM      6  C   UNL     1       6.614  42.433  49.316  1.00  0.00     0.199 A 
ATOM      7  N   UNL     1       5.688  41.648  49.822  1.00  0.00    -0.217 NA
ATOM      8  C   UNL     1       5.015  42.429  50.724  1.00  0.00     0.186 A 
ATOM      9  N   UNL     1       3.980  42.039  51.483  1.00  0.00    -0.191 NA
ATOM     10  H   UNL     1       7.168  44.469  49.631  1.00  0.00     0.168 HD
ENDROOT
BRANCH   1  11
ATOM     11  N   UNL     1       2.416  42.573  53.073  1.00  0.00    -0.324 N 
ATOM     12  H   UNL     1       2.647  41.679  53.483  1.00  0.00     0.170 HD
BRANCH  11  13
ATOM     13  C   UNL     1       1.190  43.140  53.440  1.00  0.00     0.042 A 
ATOM     14  C   UNL     1      -1.200  43.393  52.955  1.00  0.00     0.009 A 
ATOM     15  C   UNL     1      -1.338  44.239  54.054  1.00  0.00     0.015 A 
ATOM     16  C   UNL     1       0.057  42.845  52.664  1.00  0.00     0.041 A 
ATOM     17  C   UNL     1      -0.227  44.549  54.834  1.00  0.00     0.003 A 
ATOM     18  C   UNL     1       1.025  44.008  54.523  1.00  0.00     0.026 A 
BRANCH  14  19
ATOM     19  S   UNL     1      -2.596  42.961  51.931  1.00  0.00    -0.130 SA
ATOM     20  C   UNL     1      -1.886  43.278  50.293  1.00  0.00     0.091 C 
ENDBRANCH  14  19
ENDBRANCH  11  13
ENDBRANCH   1  11
BRANCH   3  21
ATOM     21  O   UNL     1       5.512  45.908  51.652  1.00  0.00    -0.476 OA
BRANCH  21  22
ATOM     22  C   UNL     1       6.724  45.992  52.413  1.00  0.00     0.235 C 
BRANCH  22  23
ATOM     23  C   UNL     1       7.760  46.798  51.606  1.00  0.00     0.027 C 
ATOM     24  C   UNL     1       8.090  48.124  52.301  1.00  0.00     0.007 C 
ATOM     25  C   UNL     1       9.035  45.973  51.324  1.00  0.00     0.007 C 
ATOM     26  C   UNL     1       8.871  47.943  53.603  1.00  0.00     0.000 C 
ATOM     27  C   UNL     1      10.260  46.425  52.123  1.00  0.00     0.000 C 
ATOM     28  C   UNL     1       9.895  46.808  53.550  1.00  0.00     0.000 C 
ENDBRANCH  22  23
ENDBRANCH  21  22
ENDBRANCH   3  21
TORSDOF 6
ENDMDL
MODEL 3
REMARK VINA RESULT:    -9.090      0.933      1.701
REMARK INTER + INTRA:         -13.010
REMARK INTER:                 -12.485
REMARK INTRA:                  -0.525
REMARK UNBOUND:                -0.732
REMARK SMILES CSc1cccc(Nc2nc(OCC3CCCCC3)c3[nH]cnc3n2)c1
REMARK SMILES IDX 9 1 10 2 11 3 20 4 21 5 22 6 23 7 24 8 25 9 8 11 7 13 3 14
REMARK SMILES IDX 4 15 26 16 5 17 6 18 2 19 1 20 12 21 13 22 14 23 15 24 19 25
REMARK SMILES IDX 16 26 18 27 17 28
REMARK H PARENT 21 10 8 12
ROOT
ATOM      1  C   UNL     1       3.301  43.348  52.432  1.00  0.00     0.232 A 
ATOM      2  N   UNL     1       3.870  44.569  52.369  1.00  0.00    -0.175 NA
ATOM      3  C   UNL     1       4.931  44.768  51.565  1.00  0.00     0.245 A 
ATOM      4  C   UNL     1       5.389  43.705  50.834  1.00  0.00     0.148 A 
ATOM      5  N   UNL     1       6.399  43.509  49.940  1.00  0.00    -0.339 N 
ATOM      6  C   UNL     1       6.343  42.199  49.548  1.00  0.00     0.199 A 
ATOM      7  N   UNL     1       5.360  41.555  50.139  1.00  0.00    -0.217 NA
ATOM      8  C   UNL     1       4.759  42.487  50.943  1.00  0.00     0.186 A 
ATOM      9  N   UNL     1       3.701  42.272  51.740  1.00  0.00    -0.191 NA
ATOM     10  H   UNL     1       7.064  44.205  49.628  1.00  0.00     0.168 HD
ENDROOT
BRANCH   1  11
ATOM     11  N   UNL     1       2.198  43.112  53.254  1.00  0.00    -0.324 N 
ATOM     12  H   UNL     1       1.910  42.150  53.133  1.00  0.00     0.170 HD
BRANCH  11  13
ATOM     13  C   UNL     1       1.503  43.865  54.207  1.00  0.00     0.042 A 
ATOM     14  C   UNL     1      -0.666  44.507  55.155  1.00  0.00     0.009 A 
ATOM     15  C   UNL     1      -0.025  45.352  56.058  1.00  0.00     0.015 A 
ATOM     16  C   UNL     1       0.101  43.765  54.246  1.00  0.00     0.041 A 
ATOM     17  C   UNL     1       1.362  45.472  56.034  1.00  0.00     0.003 A 
ATOM     18  C   UNL     1       2.115  44.738  55.111  1.00  0.00     0.026 A 
BRANCH  14  19
ATOM     19  S   UNL     1      -2.440  44.316  55.155  1.00  0.00    -0.130 SA
ATOM     20  C   UNL     1      -2.664  43.517  56.767  1.00  0.00     0.091 C 
ENDBRANCH  14  19
ENDBRANCH  11  13
ENDBRANCH   1  11
BRANCH   3  21
ATOM     21  O   UNL     1       5.546  45.997  51.468  1.00  0.00    -0.476 OA
BRANCH  21  22
ATOM     22  C   UNL     1       6.683  46.118  52.331  1.00  0.00     0.235 C 
BRANCH  22  23
ATOM     23  C   UNL     1       7.795  46.876  51.581  1.00  0.00     0.027 C 
ATOM     24  C   UNL     1       8.148  48.186  52.295  1.00  0.00     0.007 C 
ATOM     25  C   UNL     1       9.045  45.994  51.365  1.00  0.00     0.007 C 
ATOM     26  C   UNL     1       8.850  47.971  53.636  1.00  0.00     0.000 C 
ATOM     27  C   UNL     1      10.245  46.391  52.228  1.00  0.00     0.000 C 
ATOM     28  C   UNL     1       9.823  46.791  53.635  1.00  0.00     0.000 C 
ENDBRANCH  22  23
ENDBRANCH  21  22
ENDBRANCH   3  21
TORSDOF 6
ENDMDL
MODEL 4
REMARK VINA RESULT:    -9.021      3.159      5.684
REMARK INTER + INTRA:         -12.917
REMARK INTER:                 -12.302
REMARK INTRA:                  -0.615
REMARK UNBOUND:                -0.732
REMARK SMILES CSc1cccc(Nc2nc(OCC3CCCCC3)c3[nH]cnc3n2)c1
REMARK SMILES IDX 9 1 10 2 11 3 20 4 21 5 22 6 23 7 24 8 25 9 8 11 7 13 3 14
REMARK SMILES IDX 4 15 26 16 5 17 6 18 2 19 1 20 12 21 13 22 14 23 15 24 19 25
REMARK SMILES IDX 16 26 18 27 17 28
REMARK H PARENT 21 10 8 12
ROOT
ATOM      1  C   UNL     1       3.426  44.327  52.849  1.00  0.00     0.232 A 
ATOM      2  N   UNL     1       4.600  44.796  53.319  1.00  0.00    -0.175 NA
ATOM      3  C   UNL     1       4.638  45.418  54.513  1.00  0.00     0.245 A 
ATOM      4  C   UNL     1       3.466  45.547  55.207  1.00  0.00     0.148 A 
ATOM      5  N   UNL     1       3.104  46.092  56.402  1.00  0.00    -0.339 N 
ATOM      6  C   UNL     1       1.756  45.901  56.542  1.00  0.00     0.199 A 
ATOM      7  N   UNL     1       1.244  45.267  55.509  1.00  0.00    -0.217 NA
ATOM      8  C   UNL     1       2.304  45.042  54.670  1.00  0.00     0.186 A 
ATOM      9  N   UNL     1       2.248  44.420  53.483  1.00  0.00    -0.191 NA
ATOM     10  H   UNL     1       3.720  46.552  57.059  1.00  0.00     0.168 HD
ENDROOT
BRANCH   1  11
ATOM     11  N   UNL     1       3.354  43.676  51.618  1.00  0.00    -0.324 N 
ATOM     12  H   UNL     1       2.462  43.890  51.194  1.00  0.00     0.170 HD
BRANCH  11  13
ATOM     13  C   UNL     1       4.240  42.896  50.865  1.00  0.00     0.042 A 
ATOM     14  C   UNL     1       6.401  42.749  49.715  1.00  0.00     0.009 A 
ATOM     15  C   UNL     1       6.107  41.444  49.322  1.00  0.00     0.015 A 
ATOM     16  C   UNL     1       5.472  43.458  50.489  1.00  0.00     0.041 A 
ATOM     17  C   UNL     1       4.890  40.869  49.679  1.00  0.00     0.003 A 
ATOM     18  C   UNL     1       3.966  41.594  50.438  1.00  0.00     0.026 A 
BRANCH  14  19
ATOM     19  S   UNL     1       7.950  43.524  49.287  1.00  0.00    -0.130 SA
ATOM     20  C   UNL     1       7.642  45.195  49.919  1.00  0.00     0.091 C 
ENDBRANCH  14  19
ENDBRANCH  11  13
ENDBRANCH   1  11
BRANCH   3  21
ATOM     21  O   UNL     1       5.814  45.914  55.033  1.00  0.00    -0.476 OA
BRANCH  21  22
ATOM     22  C   UNL     1       6.888  45.905  54.085  1.00  0.00     0.235 C 
BRANCH  22  23
ATOM     23  C   UNL     1       7.413  47.344  53.919  1.00  0.00     0.027 C 
ATOM     24  C   UNL     1       8.789  47.508  54.574  1.00  0.00     0.007 C 
ATOM     25  C   UNL     1       7.435  47.779  52.437  1.00  0.00     0.007 C 
ATOM     26  C   UNL     1       9.898  46.750  53.843  1.00  0.00     0.000 C 
ATOM     27  C   UNL     1       8.841  47.884  51.839  1.00  0.00     0.000 C 
ATOM     28  C   UNL     1       9.747  46.760  52.321  1.00  0.00     0.000 C 
ENDBRANCH  22  23
ENDBRANCH  21  22
ENDBRANCH   3  21
TORSDOF 6
ENDMDL
MODEL 5
REMARK VINA RESULT:    -8.603      3.306      6.009
REMARK INTER + INTRA:         -12.352
REMARK INTER:                 -11.656
REMARK INTRA:                  -0.696
REMARK UNBOUND:                -0.732
REMARK SMILES CSc1cccc(Nc2nc(OCC3CCCCC3)c3[nH]cnc3n2)c1
REMARK SMILES IDX 9 1 10 2 11 3 20 4 21 5 22 6 23 7 24 8 25 9 8 11 7 13 3 14
REMARK SMILES IDX 4 15 26 16 5 17 6 18 2 19 1 20 12 21 13 22 14 23 15 24 19 25
REMARK SMILES IDX 16 26 18 27 17 28
REMARK H PARENT 21 10 8 12
ROOT
ATOM      1  C   UNL     1       4.846  42.554  50.477  1.00  0.00     0.232 A 
ATOM      2  N   UNL     1       5.424  43.767  50.595  1.00  0.00    -0.175 NA
ATOM      3  C   UNL     1       4.955  44.642  51.505  1.00  0.00     0.245 A 
ATOM      4  C   UNL     1       3.899  44.253  52.283  1.00  0.00     0.148 A 
ATOM      5  N   UNL     1       3.166  44.829  53.278  1.00  0.00    -0.339 N 
ATOM      6  C   UNL     1       2.224  43.915  53.666  1.00  0.00     0.199 A 
ATOM      7  N   UNL     1       2.317  42.797  52.979  1.00  0.00    -0.217 NA
ATOM      8  C   UNL     1       3.359  42.999  52.113  1.00  0.00     0.186 A 
ATOM      9  N   UNL     1       3.814  42.116  51.211  1.00  0.00    -0.191 NA
ATOM     10  H   UNL     1       3.298  45.758  53.654  1.00  0.00     0.168 HD
ENDROOT
BRANCH   1  11
ATOM     11  N   UNL     1       5.311  41.625  49.547  1.00  0.00    -0.324 N 
ATOM     12  H   UNL     1       5.961  41.005  50.010  1.00  0.00     0.170 HD
BRANCH  11  13
ATOM     13  C   UNL     1       5.022  41.348  48.205  1.00  0.00     0.042 A 
ATOM     14  C   UNL     1       3.672  40.077  46.600  1.00  0.00     0.009 A 
ATOM     15  C   UNL     1       4.357  40.676  45.544  1.00  0.00     0.015 A 
ATOM     16  C   UNL     1       4.002  40.424  47.917  1.00  0.00     0.041 A 
ATOM     17  C   UNL     1       5.375  41.589  45.806  1.00  0.00     0.003 A 
ATOM     18  C   UNL     1       5.705  41.915  47.126  1.00  0.00     0.026 A 
BRANCH  14  19
ATOM     19  S   UNL     1       2.356  38.907  46.313  1.00  0.00    -0.130 SA
ATOM     20  C   UNL     1       3.295  37.579  45.513  1.00  0.00     0.091 C 
ENDBRANCH  14  19
ENDBRANCH  11  13
ENDBRANCH   1  11
BRANCH   3  21
ATOM     21  O   UNL     1       5.513  45.892  51.661  1.00  0.00    -0.476 OA
BRANCH  21  22
ATOM     22  C   UNL     1       6.767  45.859  52.353  1.00  0.00     0.235 C 
BRANCH  22  23
ATOM     23  C   UNL     1       7.787  46.708  51.570  1.00  0.00     0.027 C 
ATOM     24  C   UNL     1       8.067  48.033  52.287  1.00  0.00     0.007 C 
ATOM     25  C   UNL     1       9.090  45.927  51.291  1.00  0.00     0.007 C 
ATOM     26  C   UNL     1       8.838  47.858  53.596  1.00  0.00     0.000 C 
ATOM     27  C   UNL     1      10.291  46.406  52.111  1.00  0.00     0.000 C 
ATOM     28  C   UNL     1       9.897  46.756  53.539  1.00  0.00     0.000 C 
ENDBRANCH  22  23
ENDBRANCH  21  22
ENDBRANCH   3  21
TORSDOF 6
ENDMDL
MODEL 6
REMARK VINA RESULT:    -8.524      2.946      5.697
REMARK INTER + INTRA:         -12.245
REMARK INTER:                 -11.615
REMARK INTRA:                  -0.630
REMARK UNBOUND:                -0.732
REMARK SMILES CSc1cccc(Nc2nc(OCC3CCCCC3)c3[nH]cnc3n2)c1
REMARK SMILES IDX 9 1 10 2 11 3 20 4 21 5 22 6 23 7 24 8 25 9 8 11 7 13 3 14
REMARK SMILES IDX 4 15 26 16 5 17 6 18 2 19 1 20 12 21 13 22 14 23 15 24 19 25
REMARK SMILES IDX 16 26 18 27 17 28
REMARK H PARENT 21 10 8 12
ROOT
ATOM      1  C   UNL     1       3.610  42.961  52.345  1.00  0.00     0.232 A 
ATOM      2  N   UNL     1       4.500  43.972  52.416  1.00  0.00    -0.175 NA
ATOM      3  C   UNL     1       4.232  45.041  53.189  1.00  0.00     0.245 A 
ATOM      4  C   UNL     1       3.052  45.052  53.882  1.00  0.00     0.148 A 
ATOM      5  N   UNL     1       2.440  45.919  54.738  1.00  0.00    -0.339 N 
ATOM      6  C   UNL     1       1.249  45.352  55.103  1.00  0.00     0.199 A 
ATOM      7  N   UNL     1       1.071  44.181  54.531  1.00  0.00    -0.217 NA
ATOM      8  C   UNL     1       2.190  43.985  53.767  1.00  0.00     0.186 A 
ATOM      9  N   UNL     1       2.441  42.913  53.001  1.00  0.00    -0.191 NA
ATOM     10  H   UNL     1       2.803  46.813  55.042  1.00  0.00     0.168 HD
ENDROOT
BRANCH   1  11
ATOM     11  N   UNL     1       3.859  41.838  51.555  1.00  0.00    -0.324 N 
ATOM     12  H   UNL     1       3.522  41.021  52.045  1.00  0.00     0.170 HD
BRANCH  11  13
ATOM     13  C   UNL     1       4.380  41.635  50.272  1.00  0.00     0.042 A 
ATOM     14  C   UNL     1       4.110  40.586  48.072  1.00  0.00     0.009 A 
ATOM     15  C   UNL     1       5.329  41.123  47.662  1.00  0.00     0.015 A 
ATOM     16  C   UNL     1       3.643  40.853  49.366  1.00  0.00     0.041 A 
ATOM     17  C   UNL     1       6.079  41.896  48.544  1.00  0.00     0.003 A 
ATOM     18  C   UNL     1       5.608  42.142  49.838  1.00  0.00     0.026 A 
BRANCH  14  19
ATOM     19  S   UNL     1       3.111  39.596  46.974  1.00  0.00    -0.130 SA
ATOM     20  C   UNL     1       2.917  40.762  45.600  1.00  0.00     0.091 C 
ENDBRANCH  14  19
ENDBRANCH  11  13
ENDBRANCH   1  11
BRANCH   3  21
ATOM     21  O   UNL     1       5.110  46.098  53.292  1.00  0.00    -0.476 OA
BRANCH  21  22
ATOM     22  C   UNL     1       6.476  45.704  53.112  1.00  0.00     0.235 C 
BRANCH  22  23
ATOM     23  C   UNL     1       7.120  46.621  52.054  1.00  0.00     0.027 C 
ATOM     24  C   UNL     1       7.707  47.881  52.701  1.00  0.00     0.007 C 
ATOM     25  C   UNL     1       8.175  45.873  51.211  1.00  0.00     0.007 C 
ATOM     26  C   UNL     1       8.935  47.596  53.568  1.00  0.00     0.000 C 
ATOM     27  C   UNL     1       9.619  46.283  51.511  1.00  0.00     0.000 C 
ATOM     28  C   UNL     1       9.846  46.508  52.999  1.00  0.00     0.000 C 
ENDBRANCH  22  23
ENDBRANCH  21  22
ENDBRANCH   3  21
TORSDOF 6
ENDMDL
MODEL 7
REMARK VINA RESULT:    -8.481      2.904      6.046
REMARK INTER + INTRA:         -12.187
REMARK INTER:                 -11.592
REMARK INTRA:                  -0.596
REMARK UNBOUND:                -0.732
REMARK SMILES CSc1cccc(Nc2nc(OCC3CCCCC3)c3[nH]cnc3n2)c1
REMARK SMILES IDX 9 1 10 2 11 3 20 4 21 5 22 6 23 7 24 8 25 9 8 11 7 13 3 14
REMARK SMILES IDX 4 15 26 16 5 17 6 18 2 19 1 20 12 21 13 22 14 23 15 24 19 25
REMARK SMILES IDX 16 26 18 27 17 28
REMARK H PARENT 21 10 8 12
ROOT
ATOM      1  C   UNL     1       2.239  43.004  52.512  1.00  0.00     0.232 A 
ATOM      2  N   UNL     1       2.610  44.299  52.593  1.00  0.00    -0.175 NA
ATOM      3  C   UNL     1       1.812  45.182  53.221  1.00  0.00     0.245 A 
ATOM      4  C   UNL     1       0.642  44.718  53.761  1.00  0.00     0.148 A 
ATOM      5  N   UNL     1      -0.394  45.276  54.448  1.00  0.00    -0.339 N 
ATOM      6  C   UNL     1      -1.285  44.273  54.719  1.00  0.00     0.199 A 
ATOM      7  N   UNL     1      -0.876  43.116  54.245  1.00  0.00    -0.217 NA
ATOM      8  C   UNL     1       0.326  43.384  53.645  1.00  0.00     0.186 A 
ATOM      9  N   UNL     1       1.110  42.491  53.022  1.00  0.00    -0.191 NA
ATOM     10  H   UNL     1      -0.484  46.250  54.706  1.00  0.00     0.168 HD
ENDROOT
BRANCH   1  11
ATOM     11  N   UNL     1       3.046  42.065  51.871  1.00  0.00    -0.324 N 
ATOM     12  H   UNL     1       2.713  41.140  52.109  1.00  0.00     0.170 HD
BRANCH  11  13
ATOM     13  C   UNL     1       4.109  42.138  50.962  1.00  0.00     0.042 A 
ATOM     14  C   UNL     1       6.043  43.401  50.139  1.00  0.00     0.009 A 
ATOM     15  C   UNL     1       6.273  42.425  49.171  1.00  0.00     0.015 A 
ATOM     16  C   UNL     1       4.972  43.245  51.030  1.00  0.00     0.041 A 
ATOM     17  C   UNL     1       5.427  41.322  49.082  1.00  0.00     0.003 A 
ATOM     18  C   UNL     1       4.353  41.187  49.967  1.00  0.00     0.026 A 
BRANCH  14  19
ATOM     19  S   UNL     1       7.105  44.826  50.296  1.00  0.00    -0.130 SA
ATOM     20  C   UNL     1       8.544  44.242  49.360  1.00  0.00     0.091 C 
ENDBRANCH  14  19
ENDBRANCH  11  13
ENDBRANCH   1  11
BRANCH   3  21
ATOM     21  O   UNL     1       2.148  46.513  53.328  1.00  0.00    -0.476 OA
BRANCH  21  22
ATOM     22  C   UNL     1       3.372  46.832  52.654  1.00  0.00     0.235 C 
BRANCH  22  23
ATOM     23  C   UNL     1       4.351  47.449  53.671  1.00  0.00     0.027 C 
ATOM     24  C   UNL     1       4.306  46.697  55.006  1.00  0.00     0.007 C 
ATOM     25  C   UNL     1       5.788  47.525  53.112  1.00  0.00     0.007 C 
ATOM     26  C   UNL     1       4.888  45.285  54.920  1.00  0.00     0.000 C 
ATOM     27  C   UNL     1       6.760  46.531  53.751  1.00  0.00     0.000 C 
ATOM     28  C   UNL     1       6.105  45.180  54.000  1.00  0.00     0.000 C 
ENDBRANCH  22  23
ENDBRANCH  21  22
ENDBRANCH   3  21
TORSDOF 6
ENDMDL
MODEL 8
REMARK VINA RESULT:    -8.430      2.730      5.283
REMARK INTER + INTRA:         -12.119
REMARK INTER:                 -11.244
REMARK INTRA:                  -0.875
REMARK UNBOUND:                -0.732
REMARK SMILES CSc1cccc(Nc2nc(OCC3CCCCC3)c3[nH]cnc3n2)c1
REMARK SMILES IDX 9 1 10 2 11 3 20 4 21 5 22 6 23 7 24 8 25 9 8 11 7 13 3 14
REMARK SMILES IDX 4 15 26 16 5 17 6 18 2 19 1 20 12 21 13 22 14 23 15 24 19 25
REMARK SMILES IDX 16 26 18 27 17 28
REMARK H PARENT 21 10 8 12
ROOT
ATOM      1  C   UNL     1       5.719  47.055  53.622  1.00  0.00     0.232 A 
ATOM      2  N   UNL     1       5.996  46.572  52.393  1.00  0.00    -0.175 NA
ATOM      3  C   UNL     1       7.277  46.387  52.025  1.00  0.00     0.245 A 
ATOM      4  C   UNL     1       8.257  46.701  52.928  1.00  0.00     0.148 A 
ATOM      5  N   UNL     1       9.619  46.657  52.933  1.00  0.00    -0.339 N 
ATOM      6  C   UNL     1      10.033  47.112  54.155  1.00  0.00     0.199 A 
ATOM      7  N   UNL     1       9.017  47.440  54.923  1.00  0.00    -0.217 NA
ATOM      8  C   UNL     1       7.904  47.187  54.166  1.00  0.00     0.186 A 
ATOM      9  N   UNL     1       6.633  47.377  54.549  1.00  0.00    -0.191 NA
ATOM     10  H   UNL     1      10.209  46.347  52.172  1.00  0.00     0.168 HD
ENDROOT
BRANCH   1  11
ATOM     11  N   UNL     1       4.402  47.255  54.035  1.00  0.00    -0.324 N 
ATOM     12  H   UNL     1       4.231  48.249  54.090  1.00  0.00     0.170 HD
BRANCH  11  13
ATOM     13  C   UNL     1       3.316  46.412  54.298  1.00  0.00     0.042 A 
ATOM     14  C   UNL     1       1.259  45.366  53.467  1.00  0.00     0.009 A 
ATOM     15  C   UNL     1       1.064  44.756  54.704  1.00  0.00     0.015 A 
ATOM     16  C   UNL     1       2.385  46.179  53.271  1.00  0.00     0.041 A 
ATOM     17  C   UNL     1       1.971  44.977  55.738  1.00  0.00     0.003 A 
ATOM     18  C   UNL     1       3.081  45.803  55.535  1.00  0.00     0.026 A 
BRANCH  14  19
ATOM     19  S   UNL     1       0.128  45.106  52.111  1.00  0.00    -0.130 SA
ATOM     20  C   UNL     1       1.083  43.909  51.140  1.00  0.00     0.091 C 
ENDBRANCH  14  19
ENDBRANCH  11  13
ENDBRANCH   1  11
BRANCH   3  21
ATOM     21  O   UNL     1       7.609  45.896  50.780  1.00  0.00    -0.476 OA
BRANCH  21  22
ATOM     22  C   UNL     1       7.474  44.473  50.691  1.00  0.00     0.235 C 
BRANCH  22  23
ATOM     23  C   UNL     1       6.229  44.146  49.844  1.00  0.00     0.027 C 
ATOM     24  C   UNL     1       6.497  42.969  48.899  1.00  0.00     0.007 C 
ATOM     25  C   UNL     1       4.985  43.894  50.724  1.00  0.00     0.007 C 
ATOM     26  C   UNL     1       6.660  41.636  49.631  1.00  0.00     0.000 C 
ATOM     27  C   UNL     1       4.542  42.430  50.773  1.00  0.00     0.000 C 
ATOM     28  C   UNL     1       5.730  41.481  50.834  1.00  0.00     0.000 C 
ENDBRANCH  22  23
ENDBRANCH  21  22
ENDBRANCH   3  21
TORSDOF 6
ENDMDL
MODEL 9
REMARK VINA RESULT:    -8.312      3.771      6.258
REMARK INTER + INTRA:         -11.959
REMARK INTER:                 -11.489
REMARK INTRA:                  -0.470
REMARK UNBOUND:                -0.732
REMARK SMILES CSc1cccc(Nc2nc(OCC3CCCCC3)c3[nH]cnc3n2)c1
REMARK SMILES IDX 9 1 10 2 11 3 20 4 21 5 22 6 23 7 24 8 25 9 8 11 7 13 3 14
REMARK SMILES IDX 4 15 26 16 5 17 6 18 2 19 1 20 12 21 13 22 14 23 15 24 19 25
REMARK SMILES IDX 16 26 18 27 17 28
REMARK H PARENT 21 10 8 12
ROOT
ATOM      1  C   UNL     1       5.709  42.754  50.051  1.00  0.00     0.232 A 
ATOM      2  N   UNL     1       6.551  43.804  49.953  1.00  0.00    -0.175 NA
ATOM      3  C   UNL     1       6.428  44.836  50.808  1.00  0.00     0.245 A 
ATOM      4  C   UNL     1       5.441  44.772  51.755  1.00  0.00     0.148 A 
ATOM      5  N   UNL     1       5.011  45.584  52.761  1.00  0.00    -0.339 N 
ATOM      6  C   UNL     1       3.961  44.951  53.370  1.00  0.00     0.199 A 
ATOM      7  N   UNL     1       3.701  43.789  52.810  1.00  0.00    -0.217 NA
ATOM      8  C   UNL     1       4.620  43.669  51.801  1.00  0.00     0.186 A 
ATOM      9  N   UNL     1       4.728  42.632  50.956  1.00  0.00    -0.191 NA
ATOM     10  H   UNL     1       5.399  46.485  53.008  1.00  0.00     0.168 HD
ENDROOT
BRANCH   1  11
ATOM     11  N   UNL     1       5.813  41.668  49.182  1.00  0.00    -0.324 N 
ATOM     12  H   UNL     1       6.578  41.083  49.491  1.00  0.00     0.170 HD
BRANCH  11  13
ATOM     13  C   UNL     1       5.073  41.212  48.084  1.00  0.00     0.042 A 
ATOM     14  C   UNL     1       4.753  41.235  45.654  1.00  0.00     0.009 A 
ATOM     15  C   UNL     1       3.651  40.393  45.787  1.00  0.00     0.015 A 
ATOM     16  C   UNL     1       5.458  41.629  46.799  1.00  0.00     0.041 A 
ATOM     17  C   UNL     1       3.247  39.972  47.052  1.00  0.00     0.003 A 
ATOM     18  C   UNL     1       3.951  40.385  48.188  1.00  0.00     0.026 A 
BRANCH  14  19
ATOM     19  S   UNL     1       5.310  41.793  44.053  1.00  0.00    -0.130 SA
ATOM     20  C   UNL     1       5.704  40.196  43.291  1.00  0.00     0.091 C 
ENDBRANCH  14  19
ENDBRANCH  11  13
ENDBRANCH   1  11
BRANCH   3  21
ATOM     21  O   UNL     1       7.263  45.930  50.746  1.00  0.00    -0.476 OA
BRANCH  21  22
ATOM     22  C   UNL     1       8.598  45.635  51.175  1.00  0.00     0.235 C 
BRANCH  22  23
ATOM     23  C   UNL     1       9.290  46.951  51.581  1.00  0.00     0.027 C 
ATOM     24  C   UNL     1       8.260  48.034  51.921  1.00  0.00     0.007 C 
ATOM     25  C   UNL     1      10.292  46.739  52.737  1.00  0.00     0.007 C 
ATOM     26  C   UNL     1       7.488  47.747  53.210  1.00  0.00     0.000 C 
ATOM     27  C   UNL     1       9.831  47.320  54.076  1.00  0.00     0.000 C 
ATOM     28  C   UNL     1       8.342  47.104  54.304  1.00  0.00     0.000 C 
ENDBRANCH  22  23
ENDBRANCH  21  22
ENDBRANCH   3  21
TORSDOF 6
ENDMDL
MODEL 10
REMARK VINA RESULT:    -8.159      2.534      7.578
REMARK INTER + INTRA:         -11.752
REMARK INTER:                 -10.963
REMARK INTRA:                  -0.789
REMARK UNBOUND:                -0.732
REMARK SMILES CSc1cccc(Nc2nc(OCC3CCCCC3)c3[nH]cnc3n2)c1
REMARK SMILES IDX 9 1 10 2 11 3 20 4 21 5 22 6 23 7 24 8 25 9 8 11 7 13 3 14
REMARK SMILES IDX 4 15 26 16 5 17 6 18 2 19 1 20 12 21 13 22 14 23 15 24 19 25
REMARK SMILES IDX 16 26 18 27 17 28
REMARK H PARENT 21 10 8 12
ROOT
ATOM      1  C   UNL     1       5.830  44.595  51.033  1.00  0.00     0.232 A 
ATOM      2  N   UNL     1       4.854  44.379  51.940  1.00  0.00    -0.175 NA
ATOM      3  C   UNL     1       4.110  43.261  51.862  1.00  0.00     0.245 A 
ATOM      4  C   UNL     1       4.382  42.378  50.853  1.00  0.00     0.148 A 
ATOM      5  N   UNL     1       3.872  41.179  50.451  1.00  0.00    -0.339 N 
ATOM      6  C   UNL     1       4.584  40.785  49.351  1.00  0.00     0.199 A 
ATOM      7  N   UNL     1       5.513  41.660  49.033  1.00  0.00    -0.217 NA
ATOM      8  C   UNL     1       5.394  42.658  49.964  1.00  0.00     0.186 A 
ATOM      9  N   UNL     1       6.146  43.767  50.027  1.00  0.00    -0.191 NA
ATOM     10  H   UNL     1       3.109  40.679  50.888  1.00  0.00     0.168 HD
ENDROOT
BRANCH   1  11
ATOM     11  N   UNL     1       6.621  45.743  51.089  1.00  0.00    -0.324 N 
ATOM     12  H   UNL     1       6.105  46.507  50.676  1.00  0.00     0.170 HD
BRANCH  11  13
ATOM     13  C   UNL     1       7.874  46.047  51.634  1.00  0.00     0.042 A 
ATOM     14  C   UNL     1       9.140  47.146  53.424  1.00  0.00     0.009 A 
ATOM     15  C   UNL     1      10.335  46.755  52.824  1.00  0.00     0.015 A 
ATOM     16  C   UNL     1       7.923  46.782  52.831  1.00  0.00     0.041 A 
ATOM     17  C   UNL     1      10.311  46.032  51.634  1.00  0.00     0.003 A 
ATOM     18  C   UNL     1       9.090  45.689  51.045  1.00  0.00     0.026 A 
BRANCH  14  19
ATOM     19  S   UNL     1       9.122  48.067  54.952  1.00  0.00    -0.130 SA
ATOM     20  C   UNL     1      10.657  47.454  55.698  1.00  0.00     0.091 C 
ENDBRANCH  14  19
ENDBRANCH  11  13
ENDBRANCH   1  11
BRANCH   3  21
ATOM     21  O   UNL     1       3.102  42.999  52.764  1.00  0.00    -0.476 OA
BRANCH  21  22
ATOM     22  C   UNL     1       2.559  44.187  53.352  1.00  0.00     0.235 C 
BRANCH  22  23
ATOM     23  C   UNL     1       1.153  43.872  53.898  1.00  0.00     0.027 C 
ATOM     24  C   UNL     1       0.132  44.913  53.425  1.00  0.00     0.007 C 
ATOM     25  C   UNL     1       0.707  42.437  53.540  1.00  0.00     0.007 C 
ATOM     26  C   UNL     1      -0.157  44.835  51.926  1.00  0.00     0.000 C 
ATOM     27  C   UNL     1      -0.394  42.373  52.478  1.00  0.00     0.000 C 
ATOM     28  C   UNL     1      -0.183  43.406  51.381  1.00  0.00     0.000 C 
ENDBRANCH  22  23
ENDBRANCH  21  22
ENDBRANCH   3  21
TORSDOF 6
ENDMDL
