MODEL 1
REMARK VINA RESULT:    -9.436      0.000      0.000
REMARK INTER + INTRA:         -12.682
REMARK INTER:                 -11.918
REMARK INTRA:                  -0.764
REMARK UNBOUND:                -0.764
REMARK SMILES Nc1nc(OCC2CCCCC2)c2[nH]c(-c3ccccc3)nc2n1
REMARK SMILES IDX 2 1 3 2 4 3 13 4 14 5 15 6 22 7 23 8 24 9 1 11 5 14 6 15
REMARK SMILES IDX 7 16 8 17 12 18 9 19 11 20 10 21 16 22 17 23 21 24 18 25
REMARK SMILES IDX 20 26 19 27
REMARK H PARENT 14 10 1 12 1 13
ROOT
ATOM      1  C   UNL     1       2.187  45.314  55.333  1.00  0.00     0.225 A 
ATOM      2  N   UNL     1       3.400  45.736  55.731  1.00  0.00    -0.176 NA
ATOM      3  C   UNL     1       4.470  45.428  54.977  1.00  0.00     0.245 A 
ATOM      4  C   UNL     1       4.265  44.666  53.855  1.00  0.00     0.148 A 
ATOM      5  N   UNL     1       5.063  44.150  52.880  1.00  0.00    -0.332 N 
ATOM      6  C   UNL     1       4.269  43.447  51.997  1.00  0.00     0.140 A 
ATOM      7  N   UNL     1       3.003  43.508  52.388  1.00  0.00    -0.208 NA
ATOM      8  C   UNL     1       2.993  44.259  53.530  1.00  0.00     0.187 A 
ATOM      9  N   UNL     1       1.911  44.568  54.263  1.00  0.00    -0.191 NA
ATOM     10  H   UNL     1       6.063  44.269  52.821  1.00  0.00     0.168 HD
ENDROOT
BRANCH   1  11
ATOM     11  N   UNL     1       1.123  45.653  56.149  1.00  0.00    -0.368 N 
ATOM     12  H   UNL     1       1.236  46.597  56.489  1.00  0.00     0.159 HD
ATOM     13  H   UNL     1       0.977  44.924  56.834  1.00  0.00     0.159 HD
ENDBRANCH   1  11
BRANCH   3  14
ATOM     14  O   UNL     1       5.743  45.815  55.322  1.00  0.00    -0.476 OA
BRANCH  14  15
ATOM     15  C   UNL     1       6.258  46.950  54.623  1.00  0.00     0.235 C 
BRANCH  15  16
ATOM     16  C   UNL     1       7.449  46.574  53.725  1.00  0.00     0.027 C 
ATOM     17  C   UNL     1       8.776  47.135  54.277  1.00  0.00     0.007 C 
ATOM     18  C   UNL     1       7.253  47.002  52.267  1.00  0.00     0.007 C 
ATOM     19  C   UNL     1       9.875  47.270  53.220  1.00  0.00     0.000 C 
ATOM     20  C   UNL     1       8.366  46.465  51.362  1.00  0.00     0.000 C 
ATOM     21  C   UNL     1       9.702  46.275  52.081  1.00  0.00     0.000 C 
ENDBRANCH  15  16
ENDBRANCH  14  15
ENDBRANCH   3  14
BRANCH   6  22
ATOM     22  C   UNL     1       4.765  42.743  50.808  1.00  0.00     0.017 A 
ATOM     23  C   UNL     1       5.900  43.239  50.148  1.00  0.00     0.012 A 
ATOM     24  C   UNL     1       4.153  41.588  50.297  1.00  0.00     0.012 A 
ATOM     25  C   UNL     1       6.411  42.603  49.013  1.00  0.00     0.001 A 
ATOM     26  C   UNL     1       4.664  40.951  49.161  1.00  0.00     0.001 A 
ATOM     27  C   UNL     1       5.792  41.458  48.520  1.00  0.00     0.000 A 
ENDBRANCH   6  22
TORSDOF 5
ENDMDL
MODEL 2
REMARK VINA RESULT:    -9.402      2.056      5.352
REMARK INTER + INTRA:         -12.639
REMARK INTER:                 -12.044
REMARK INTRA:                  -0.595
REMARK UNBOUND:                -0.764
REMARK SMILES Nc1nc(OCC2CCCCC2)c2[nH]c(-c3ccccc3)nc2n1
REMARK SMILES IDX 2 1 3 2 4 3 13 4 14 5 15 6 22 7 23 8 24 9 1 11 5 14 6 15
REMARK SMILES IDX 7 16 8 17 12 18 9 19 11 20 10 21 16 22 17 23 21 24 18 25
REMARK SMILES IDX 20 26 19 27
REMARK H PARENT 14 10 1 12 1 13
ROOT
ATOM      1  C   UNL     1       5.661  42.127  49.795  1.00  0.00     0.225 A 
ATOM      2  N   UNL     1       6.233  43.342  49.736  1.00  0.00    -0.176 NA
ATOM      3  C   UNL     1       5.778  44.310  50.550  1.00  0.00     0.245 A 
ATOM      4  C   UNL     1       4.726  44.009  51.377  1.00  0.00     0.148 A 
ATOM      5  N   UNL     1       3.996  44.696  52.300  1.00  0.00    -0.332 N 
ATOM      6  C   UNL     1       3.039  43.845  52.815  1.00  0.00     0.140 A 
ATOM      7  N   UNL     1       3.147  42.653  52.245  1.00  0.00    -0.208 NA
ATOM      8  C   UNL     1       4.186  42.745  51.361  1.00  0.00     0.187 A 
ATOM      9  N   UNL     1       4.635  41.763  50.564  1.00  0.00    -0.191 NA
ATOM     10  H   UNL     1       4.140  45.661  52.556  1.00  0.00     0.168 HD
ENDROOT
BRANCH   1  11
ATOM     11  N   UNL     1       6.165  41.171  48.931  1.00  0.00    -0.368 N 
ATOM     12  H   UNL     1       5.418  40.781  48.375  1.00  0.00     0.159 HD
ATOM     13  H   UNL     1       6.751  40.527  49.444  1.00  0.00     0.159 HD
ENDBRANCH   1  11
BRANCH   3  14
ATOM     14  O   UNL     1       6.304  45.581  50.542  1.00  0.00    -0.476 OA
BRANCH  14  15
ATOM     15  C   UNL     1       7.728  45.663  50.639  1.00  0.00     0.235 C 
BRANCH  15  16
ATOM     16  C   UNL     1       8.167  46.513  51.844  1.00  0.00     0.027 C 
ATOM     17  C   UNL     1       9.690  46.422  52.077  1.00  0.00     0.007 C 
ATOM     18  C   UNL     1       7.408  46.162  53.128  1.00  0.00     0.007 C 
ATOM     19  C   UNL     1      10.117  46.776  53.504  1.00  0.00     0.000 C 
ATOM     20  C   UNL     1       7.735  47.134  54.265  1.00  0.00     0.000 C 
ATOM     21  C   UNL     1       9.140  47.732  54.176  1.00  0.00     0.000 C 
ENDBRANCH  15  16
ENDBRANCH  14  15
ENDBRANCH   3  14
BRANCH   6  22
ATOM     22  C   UNL     1       2.055  44.219  53.839  1.00  0.00     0.017 A 
ATOM     23  C   UNL     1       0.715  43.842  53.665  1.00  0.00     0.012 A 
ATOM     24  C   UNL     1       2.397  44.942  54.993  1.00  0.00     0.012 A 
ATOM     25  C   UNL     1      -0.258  44.174  54.613  1.00  0.00     0.001 A 
ATOM     26  C   UNL     1       1.423  45.274  55.941  1.00  0.00     0.001 A 
ATOM     27  C   UNL     1       0.098  44.891  55.752  1.00  0.00     0.000 A 
ENDBRANCH   6  22
TORSDOF 5
ENDMDL
MODEL 3
REMARK VINA RESULT:    -9.256      2.075      5.378
REMARK INTER + INTRA:         -12.455
REMARK INTER:                 -11.884
REMARK INTRA:                  -0.571
REMARK UNBOUND:                -0.764
REMARK SMILES Nc1nc(OCC2CCCCC2)c2[nH]c(-c3ccccc3)nc2n1
REMARK SMILES IDX 2 1 3 2 4 3 13 4 14 5 15 6 22 7 23 8 24 9 1 11 5 14 6 15
REMARK SMILES IDX 7 16 8 17 12 18 9 19 11 20 10 21 16 22 17 23 21 24 18 25
REMARK SMILES IDX 20 26 19 27
REMARK H PARENT 14 10 1 12 1 13
ROOT
ATOM      1  C   UNL     1       5.673  42.127  49.821  1.00  0.00     0.225 A 
ATOM      2  N   UNL     1       6.251  43.339  49.752  1.00  0.00    -0.176 NA
ATOM      3  C   UNL     1       5.805  44.313  50.564  1.00  0.00     0.245 A 
ATOM      4  C   UNL     1       4.756  44.022  51.398  1.00  0.00     0.148 A 
ATOM      5  N   UNL     1       4.035  44.717  52.321  1.00  0.00    -0.332 N 
ATOM      6  C   UNL     1       3.077  43.874  52.847  1.00  0.00     0.140 A 
ATOM      7  N   UNL     1       3.176  42.678  52.282  1.00  0.00    -0.208 NA
ATOM      8  C   UNL     1       4.210  42.761  51.392  1.00  0.00     0.187 A 
ATOM      9  N   UNL     1       4.649  41.772  50.597  1.00  0.00    -0.191 NA
ATOM     10  H   UNL     1       4.186  45.682  52.572  1.00  0.00     0.168 HD
ENDROOT
BRANCH   1  11
ATOM     11  N   UNL     1       6.166  41.164  48.958  1.00  0.00    -0.368 N 
ATOM     12  H   UNL     1       6.065  40.247  49.370  1.00  0.00     0.159 HD
ATOM     13  H   UNL     1       7.087  41.434  48.641  1.00  0.00     0.159 HD
ENDBRANCH   1  11
BRANCH   3  14
ATOM     14  O   UNL     1       6.338  45.581  50.546  1.00  0.00    -0.476 OA
BRANCH  14  15
ATOM     15  C   UNL     1       7.766  45.654  50.561  1.00  0.00     0.235 C 
BRANCH  15  16
ATOM     16  C   UNL     1       8.292  46.209  51.895  1.00  0.00     0.027 C 
ATOM     17  C   UNL     1       7.583  47.524  52.283  1.00  0.00     0.007 C 
ATOM     18  C   UNL     1       9.812  46.401  51.901  1.00  0.00     0.007 C 
ATOM     19  C   UNL     1       8.380  48.389  53.262  1.00  0.00     0.000 C 
ATOM     20  C   UNL     1      10.332  46.787  53.289  1.00  0.00     0.000 C 
ATOM     21  C   UNL     1       9.316  47.561  54.130  1.00  0.00     0.000 C 
ENDBRANCH  15  16
ENDBRANCH  14  15
ENDBRANCH   3  14
BRANCH   6  22
ATOM     22  C   UNL     1       2.102  44.258  53.874  1.00  0.00     0.017 A 
ATOM     23  C   UNL     1       0.761  43.874  53.718  1.00  0.00     0.012 A 
ATOM     24  C   UNL     1       2.450  44.998  55.015  1.00  0.00     0.012 A 
ATOM     25  C   UNL     1      -0.204  44.214  54.670  1.00  0.00     0.001 A 
ATOM     26  C   UNL     1       1.485  45.340  55.968  1.00  0.00     0.001 A 
ATOM     27  C   UNL     1       0.159  44.948  55.795  1.00  0.00     0.000 A 
ENDBRANCH   6  22
TORSDOF 5
ENDMDL
MODEL 4
REMARK VINA RESULT:    -8.841      1.305      5.249
REMARK INTER + INTRA:         -11.931
REMARK INTER:                 -11.635
REMARK INTRA:                  -0.296
REMARK UNBOUND:                -0.764
REMARK SMILES Nc1nc(OCC2CCCCC2)c2[nH]c(-c3ccccc3)nc2n1
REMARK SMILES IDX 2 1 3 2 4 3 13 4 14 5 15 6 22 7 23 8 24 9 1 11 5 14 6 15
REMARK SMILES IDX 7 16 8 17 12 18 9 19 11 20 10 21 16 22 17 23 21 24 18 25
REMARK SMILES IDX 20 26 19 27
REMARK H PARENT 14 10 1 12 1 13
ROOT
ATOM      1  C   UNL     1       1.900  45.264  55.336  1.00  0.00     0.225 A 
ATOM      2  N   UNL     1       1.737  44.549  54.210  1.00  0.00    -0.176 NA
ATOM      3  C   UNL     1       2.769  44.446  53.355  1.00  0.00     0.245 A 
ATOM      4  C   UNL     1       3.928  45.110  53.668  1.00  0.00     0.148 A 
ATOM      5  N   UNL     1       5.144  45.261  53.074  1.00  0.00    -0.332 N 
ATOM      6  C   UNL     1       5.922  46.069  53.878  1.00  0.00     0.140 A 
ATOM      7  N   UNL     1       5.233  46.426  54.953  1.00  0.00    -0.208 NA
ATOM      8  C   UNL     1       4.005  45.836  54.832  1.00  0.00     0.187 A 
ATOM      9  N   UNL     1       2.989  45.940  55.703  1.00  0.00    -0.191 NA
ATOM     10  H   UNL     1       5.420  44.847  52.196  1.00  0.00     0.168 HD
ENDROOT
BRANCH   1  11
ATOM     11  N   UNL     1       0.804  45.343  56.176  1.00  0.00    -0.368 N 
ATOM     12  H   UNL     1       1.090  45.192  57.133  1.00  0.00     0.159 HD
ATOM     13  H   UNL     1       0.059  44.762  55.815  1.00  0.00     0.159 HD
ENDBRANCH   1  11
BRANCH   3  14
ATOM     14  O   UNL     1       2.677  43.740  52.179  1.00  0.00    -0.476 OA
BRANCH  14  15
ATOM     15  C   UNL     1       3.554  42.617  52.059  1.00  0.00     0.235 C 
BRANCH  15  16
ATOM     16  C   UNL     1       4.381  42.676  50.764  1.00  0.00     0.027 C 
ATOM     17  C   UNL     1       4.522  41.283  50.116  1.00  0.00     0.007 C 
ATOM     18  C   UNL     1       5.759  43.313  50.967  1.00  0.00     0.007 C 
ATOM     19  C   UNL     1       5.721  41.161  49.172  1.00  0.00     0.000 C 
ATOM     20  C   UNL     1       6.492  43.520  49.638  1.00  0.00     0.000 C 
ATOM     21  C   UNL     1       6.112  42.500  48.564  1.00  0.00     0.000 C 
ENDBRANCH  15  16
ENDBRANCH  14  15
ENDBRANCH   3  14
BRANCH   6  22
ATOM     22  C   UNL     1       7.303  46.465  53.575  1.00  0.00     0.017 A 
ATOM     23  C   UNL     1       7.826  46.192  52.302  1.00  0.00     0.012 A 
ATOM     24  C   UNL     1       8.131  47.109  54.508  1.00  0.00     0.012 A 
ATOM     25  C   UNL     1       9.134  46.550  51.966  1.00  0.00     0.001 A 
ATOM     26  C   UNL     1       9.441  47.468  54.172  1.00  0.00     0.001 A 
ATOM     27  C   UNL     1       9.942  47.189  52.902  1.00  0.00     0.000 A 
ENDBRANCH   6  22
TORSDOF 5
ENDMDL
MODEL 5
REMARK VINA RESULT:    -8.577      2.083      5.416
REMARK INTER + INTRA:         -11.598
REMARK INTER:                 -11.102
REMARK INTRA:                  -0.495
REMARK UNBOUND:                -0.764
REMARK SMILES Nc1nc(OCC2CCCCC2)c2[nH]c(-c3ccccc3)nc2n1
REMARK SMILES IDX 2 1 3 2 4 3 13 4 14 5 15 6 22 7 23 8 24 9 1 11 5 14 6 15
REMARK SMILES IDX 7 16 8 17 12 18 9 19 11 20 10 21 16 22 17 23 21 24 18 25
REMARK SMILES IDX 20 26 19 27
REMARK H PARENT 14 10 1 12 1 13
ROOT
ATOM      1  C   UNL     1       4.664  42.659  50.971  1.00  0.00     0.225 A 
ATOM      2  N   UNL     1       5.289  43.819  51.237  1.00  0.00    -0.176 NA
ATOM      3  C   UNL     1       4.751  44.647  52.150  1.00  0.00     0.245 A 
ATOM      4  C   UNL     1       3.570  44.272  52.738  1.00  0.00     0.148 A 
ATOM      5  N   UNL     1       2.733  44.823  53.661  1.00  0.00    -0.332 N 
ATOM      6  C   UNL     1       1.672  43.961  53.852  1.00  0.00     0.140 A 
ATOM      7  N   UNL     1       1.819  42.893  53.081  1.00  0.00    -0.208 NA
ATOM      8  C   UNL     1       2.987  43.076  52.394  1.00  0.00     0.187 A 
ATOM      9  N   UNL     1       3.515  42.231  51.495  1.00  0.00    -0.191 NA
ATOM     10  H   UNL     1       2.875  45.709  54.121  1.00  0.00     0.168 HD
ENDROOT
BRANCH   1  11
ATOM     11  N   UNL     1       5.257  41.849  50.019  1.00  0.00    -0.368 N 
ATOM     12  H   UNL     1       4.683  41.035  49.852  1.00  0.00     0.159 HD
ATOM     13  H   UNL     1       6.226  41.696  50.262  1.00  0.00     0.159 HD
ENDBRANCH   1  11
BRANCH   3  14
ATOM     14  O   UNL     1       5.325  45.855  52.470  1.00  0.00    -0.476 OA
BRANCH  14  15
ATOM     15  C   UNL     1       6.404  46.271  51.629  1.00  0.00     0.235 C 
BRANCH  15  16
ATOM     16  C   UNL     1       7.737  46.314  52.394  1.00  0.00     0.027 C 
ATOM     17  C   UNL     1       7.675  47.287  53.590  1.00  0.00     0.007 C 
ATOM     18  C   UNL     1       8.929  46.652  51.492  1.00  0.00     0.007 C 
ATOM     19  C   UNL     1       9.047  47.781  54.055  1.00  0.00     0.000 C 
ATOM     20  C   UNL     1      10.261  46.518  52.236  1.00  0.00     0.000 C 
ATOM     21  C   UNL     1      10.154  46.786  53.738  1.00  0.00     0.000 C 
ENDBRANCH  15  16
ENDBRANCH  14  15
ENDBRANCH   3  14
BRANCH   6  22
ATOM     22  C   UNL     1       0.556  44.206  54.775  1.00  0.00     0.017 A 
ATOM     23  C   UNL     1      -0.697  43.639  54.492  1.00  0.00     0.012 A 
ATOM     24  C   UNL     1       0.685  44.985  55.935  1.00  0.00     0.012 A 
ATOM     25  C   UNL     1      -1.789  43.842  55.340  1.00  0.00     0.001 A 
ATOM     26  C   UNL     1      -0.408  45.188  56.784  1.00  0.00     0.001 A 
ATOM     27  C   UNL     1      -1.643  44.617  56.487  1.00  0.00     0.000 A 
ENDBRANCH   6  22
TORSDOF 5
ENDMDL
MODEL 6
REMARK VINA RESULT:    -8.440      2.748      5.025
REMARK INTER + INTRA:         -11.424
REMARK INTER:                 -10.903
REMARK INTRA:                  -0.521
REMARK UNBOUND:                -0.764
REMARK SMILES Nc1nc(OCC2CCCCC2)c2[nH]c(-c3ccccc3)nc2n1
REMARK SMILES IDX 2 1 3 2 4 3 13 4 14 5 15 6 22 7 23 8 24 9 1 11 5 14 6 15
REMARK SMILES IDX 7 16 8 17 12 18 9 19 11 20 10 21 16 22 17 23 21 24 18 25
REMARK SMILES IDX 20 26 19 27
REMARK H PARENT 14 10 1 12 1 13
ROOT
ATOM      1  C   UNL     1       6.048  42.048  50.315  1.00  0.00     0.225 A 
ATOM      2  N   UNL     1       6.422  43.338  50.372  1.00  0.00    -0.176 NA
ATOM      3  C   UNL     1       5.513  44.258  50.742  1.00  0.00     0.245 A 
ATOM      4  C   UNL     1       4.239  43.827  51.008  1.00  0.00     0.148 A 
ATOM      5  N   UNL     1       3.074  44.428  51.381  1.00  0.00    -0.332 N 
ATOM      6  C   UNL     1       2.101  43.456  51.493  1.00  0.00     0.140 A 
ATOM      7  N   UNL     1       2.618  42.270  51.203  1.00  0.00    -0.208 NA
ATOM      8  C   UNL     1       3.935  42.490  50.907  1.00  0.00     0.187 A 
ATOM      9  N   UNL     1       4.831  41.557  50.552  1.00  0.00    -0.191 NA
ATOM     10  H   UNL     1       2.956  45.417  51.546  1.00  0.00     0.168 HD
ENDROOT
BRANCH   1  11
ATOM     11  N   UNL     1       7.021  41.146  49.922  1.00  0.00    -0.368 N 
ATOM     12  H   UNL     1       7.833  41.234  50.516  1.00  0.00     0.159 HD
ATOM     13  H   UNL     1       7.162  41.215  48.924  1.00  0.00     0.159 HD
ENDBRANCH   1  11
BRANCH   3  14
ATOM     14  O   UNL     1       5.816  45.597  50.815  1.00  0.00    -0.476 OA
BRANCH  14  15
ATOM     15  C   UNL     1       5.928  46.136  52.134  1.00  0.00     0.235 C 
BRANCH  15  16
ATOM     16  C   UNL     1       7.394  46.226  52.590  1.00  0.00     0.027 C 
ATOM     17  C   UNL     1       7.523  46.940  53.952  1.00  0.00     0.007 C 
ATOM     18  C   UNL     1       8.300  46.893  51.549  1.00  0.00     0.007 C 
ATOM     19  C   UNL     1       8.912  47.529  54.209  1.00  0.00     0.000 C 
ATOM     20  C   UNL     1       9.777  46.814  51.947  1.00  0.00     0.000 C 
ATOM     21  C   UNL     1      10.003  46.779  53.460  1.00  0.00     0.000 C 
ENDBRANCH  15  16
ENDBRANCH  14  15
ENDBRANCH   3  14
BRANCH   6  22
ATOM     22  C   UNL     1       0.707  43.713  51.875  1.00  0.00     0.017 A 
ATOM     23  C   UNL     1       0.294  45.036  52.094  1.00  0.00     0.012 A 
ATOM     24  C   UNL     1      -0.239  42.688  52.033  1.00  0.00     0.012 A 
ATOM     25  C   UNL     1      -1.023  45.331  52.459  1.00  0.00     0.001 A 
ATOM     26  C   UNL     1      -1.557  42.983  52.398  1.00  0.00     0.001 A 
ATOM     27  C   UNL     1      -1.948  44.303  52.611  1.00  0.00     0.000 A 
ENDBRANCH   6  22
TORSDOF 5
ENDMDL
MODEL 7
REMARK VINA RESULT:    -8.105      2.644      6.859
REMARK INTER + INTRA:         -11.002
REMARK INTER:                 -10.241
REMARK INTRA:                  -0.760
REMARK UNBOUND:                -0.764
REMARK SMILES Nc1nc(OCC2CCCCC2)c2[nH]c(-c3ccccc3)nc2n1
REMARK SMILES IDX 2 1 3 2 4 3 13 4 14 5 15 6 22 7 23 8 24 9 1 11 5 14 6 15
REMARK SMILES IDX 7 16 8 17 12 18 9 19 11 20 10 21 16 22 17 23 21 24 18 25
REMARK SMILES IDX 20 26 19 27
REMARK H PARENT 14 10 1 12 1 13
ROOT
ATOM      1  C   UNL     1       5.700  41.912  48.392  1.00  0.00     0.225 A 
ATOM      2  N   UNL     1       4.793  41.510  49.299  1.00  0.00    -0.176 NA
ATOM      3  C   UNL     1       4.716  42.169  50.469  1.00  0.00     0.245 A 
ATOM      4  C   UNL     1       5.596  43.199  50.683  1.00  0.00     0.148 A 
ATOM      5  N   UNL     1       5.837  44.065  51.706  1.00  0.00    -0.332 N 
ATOM      6  C   UNL     1       6.877  44.894  51.336  1.00  0.00     0.140 A 
ATOM      7  N   UNL     1       7.292  44.574  50.118  1.00  0.00    -0.208 NA
ATOM      8  C   UNL     1       6.505  43.533  49.708  1.00  0.00     0.187 A 
ATOM      9  N   UNL     1       6.589  42.895  48.530  1.00  0.00    -0.191 NA
ATOM     10  H   UNL     1       5.335  44.090  52.580  1.00  0.00     0.168 HD
ENDROOT
BRANCH   1  11
ATOM     11  N   UNL     1       5.740  41.195  47.209  1.00  0.00    -0.368 N 
ATOM     12  H   UNL     1       6.446  41.578  46.596  1.00  0.00     0.159 HD
ATOM     13  H   UNL     1       4.804  41.098  46.840  1.00  0.00     0.159 HD
ENDBRANCH   1  11
BRANCH   3  14
ATOM     14  O   UNL     1       3.822  41.812  51.452  1.00  0.00    -0.476 OA
BRANCH  14  15
ATOM     15  C   UNL     1       2.597  42.548  51.472  1.00  0.00     0.235 C 
BRANCH  15  16
ATOM     16  C   UNL     1       2.427  43.336  52.782  1.00  0.00     0.027 C 
ATOM     17  C   UNL     1       1.127  42.944  53.516  1.00  0.00     0.007 C 
ATOM     18  C   UNL     1       2.489  44.852  52.577  1.00  0.00     0.007 C 
ATOM     19  C   UNL     1       0.628  44.009  54.496  1.00  0.00     0.000 C 
ATOM     20  C   UNL     1       2.494  45.607  53.909  1.00  0.00     0.000 C 
ATOM     21  C   UNL     1       1.761  44.872  55.033  1.00  0.00     0.000 C 
ENDBRANCH  15  16
ENDBRANCH  14  15
ENDBRANCH   3  14
BRANCH   6  22
ATOM     22  C   UNL     1       7.431  45.964  52.176  1.00  0.00     0.017 A 
ATOM     23  C   UNL     1       8.254  46.935  51.585  1.00  0.00     0.012 A 
ATOM     24  C   UNL     1       7.172  46.061  53.551  1.00  0.00     0.012 A 
ATOM     25  C   UNL     1       8.803  47.973  52.343  1.00  0.00     0.001 A 
ATOM     26  C   UNL     1       7.722  47.100  54.310  1.00  0.00     0.001 A 
ATOM     27  C   UNL     1       8.536  48.055  53.706  1.00  0.00     0.000 A 
ENDBRANCH   6  22
TORSDOF 5
ENDMDL
MODEL 8
REMARK VINA RESULT:    -8.105      2.293      6.049
REMARK INTER + INTRA:         -11.001
REMARK INTER:                 -10.413
REMARK INTRA:                  -0.589
REMARK UNBOUND:                -0.764
REMARK SMILES Nc1nc(OCC2CCCCC2)c2[nH]c(-c3ccccc3)nc2n1
REMARK SMILES IDX 2 1 3 2 4 3 13 4 14 5 15 6 22 7 23 8 24 9 1 11 5 14 6 15
REMARK SMILES IDX 7 16 8 17 12 18 9 19 11 20 10 21 16 22 17 23 21 24 18 25
REMARK SMILES IDX 20 26 19 27
REMARK H PARENT 14 10 1 12 1 13
ROOT
ATOM      1  C   UNL     1       8.282  47.178  53.983  1.00  0.00     0.225 A 
ATOM      2  N   UNL     1       8.121  46.969  52.665  1.00  0.00    -0.176 NA
ATOM      3  C   UNL     1       6.910  46.598  52.214  1.00  0.00     0.245 A 
ATOM      4  C   UNL     1       5.910  46.420  53.136  1.00  0.00     0.148 A 
ATOM      5  N   UNL     1       4.602  46.045  53.081  1.00  0.00    -0.332 N 
ATOM      6  C   UNL     1       4.098  46.040  54.366  1.00  0.00     0.140 A 
ATOM      7  N   UNL     1       5.048  46.398  55.219  1.00  0.00    -0.208 NA
ATOM      8  C   UNL     1       6.165  46.637  54.469  1.00  0.00     0.187 A 
ATOM      9  N   UNL     1       7.364  47.019  54.936  1.00  0.00    -0.191 NA
ATOM     10  H   UNL     1       4.096  45.815  52.238  1.00  0.00     0.168 HD
ENDROOT
BRANCH   1  11
ATOM     11  N   UNL     1       9.550  47.551  54.393  1.00  0.00    -0.368 N 
ATOM     12  H   UNL     1      10.145  47.694  53.589  1.00  0.00     0.159 HD
ATOM     13  H   UNL     1       9.875  46.915  55.108  1.00  0.00     0.159 HD
ENDBRANCH   1  11
BRANCH   3  14
ATOM     14  O   UNL     1       6.668  46.356  50.882  1.00  0.00    -0.476 OA
BRANCH  14  15
ATOM     15  C   UNL     1       7.399  45.270  50.306  1.00  0.00     0.235 C 
BRANCH  15  16
ATOM     16  C   UNL     1       6.666  43.931  50.488  1.00  0.00     0.027 C 
ATOM     17  C   UNL     1       7.096  42.899  49.424  1.00  0.00     0.007 C 
ATOM     18  C   UNL     1       5.141  44.084  50.497  1.00  0.00     0.007 C 
ATOM     19  C   UNL     1       6.075  41.780  49.202  1.00  0.00     0.000 C 
ATOM     20  C   UNL     1       4.440  42.770  50.853  1.00  0.00     0.000 C 
ATOM     21  C   UNL     1       5.224  41.524  50.438  1.00  0.00     0.000 C 
ENDBRANCH  15  16
ENDBRANCH  14  15
ENDBRANCH   3  14
BRANCH   6  22
ATOM     22  C   UNL     1       2.717  45.687  54.718  1.00  0.00     0.017 A 
ATOM     23  C   UNL     1       1.827  45.320  53.697  1.00  0.00     0.012 A 
ATOM     24  C   UNL     1       2.242  45.701  56.039  1.00  0.00     0.012 A 
ATOM     25  C   UNL     1       0.503  44.975  53.983  1.00  0.00     0.001 A 
ATOM     26  C   UNL     1       0.917  45.356  56.325  1.00  0.00     0.001 A 
ATOM     27  C   UNL     1       0.049  44.993  55.298  1.00  0.00     0.000 A 
ENDBRANCH   6  22
TORSDOF 5
ENDMDL
MODEL 9
REMARK VINA RESULT:    -8.081      2.127      3.457
REMARK INTER + INTRA:         -10.971
REMARK INTER:                 -10.392
REMARK INTRA:                  -0.579
REMARK UNBOUND:                -0.764
REMARK SMILES Nc1nc(OCC2CCCCC2)c2[nH]c(-c3ccccc3)nc2n1
REMARK SMILES IDX 2 1 3 2 4 3 13 4 14 5 15 6 22 7 23 8 24 9 1 11 5 14 6 15
REMARK SMILES IDX 7 16 8 17 12 18 9 19 11 20 10 21 16 22 17 23 21 24 18 25
REMARK SMILES IDX 20 26 19 27
REMARK H PARENT 14 10 1 12 1 13
ROOT
ATOM      1  C   UNL     1       0.492  42.831  52.610  1.00  0.00     0.225 A 
ATOM      2  N   UNL     1       0.597  43.949  53.349  1.00  0.00    -0.176 NA
ATOM      3  C   UNL     1       1.713  44.691  53.240  1.00  0.00     0.245 A 
ATOM      4  C   UNL     1       2.700  44.245  52.399  1.00  0.00     0.148 A 
ATOM      5  N   UNL     1       3.938  44.688  52.042  1.00  0.00    -0.332 N 
ATOM      6  C   UNL     1       4.476  43.791  51.141  1.00  0.00     0.140 A 
ATOM      7  N   UNL     1       3.616  42.805  50.925  1.00  0.00    -0.208 NA
ATOM      8  C   UNL     1       2.519  43.079  51.693  1.00  0.00     0.187 A 
ATOM      9  N   UNL     1       1.408  42.331  51.780  1.00  0.00    -0.191 NA
ATOM     10  H   UNL     1       4.376  45.530  52.383  1.00  0.00     0.168 HD
ENDROOT
BRANCH   1  11
ATOM     11  N   UNL     1      -0.673  42.101  52.766  1.00  0.00    -0.368 N 
ATOM     12  H   UNL     1      -0.653  41.285  52.171  1.00  0.00     0.159 HD
ATOM     13  H   UNL     1      -1.471  42.717  52.686  1.00  0.00     0.159 HD
ENDBRANCH   1  11
BRANCH   3  14
ATOM     14  O   UNL     1       1.899  45.842  53.970  1.00  0.00    -0.476 OA
BRANCH  14  15
ATOM     15  C   UNL     1       2.561  45.679  55.227  1.00  0.00     0.235 C 
BRANCH  15  16
ATOM     16  C   UNL     1       4.029  46.131  55.160  1.00  0.00     0.027 C 
ATOM     17  C   UNL     1       4.234  47.239  54.106  1.00  0.00     0.007 C 
ATOM     18  C   UNL     1       4.998  44.971  54.911  1.00  0.00     0.007 C 
ATOM     19  C   UNL     1       5.678  47.359  53.610  1.00  0.00     0.000 C 
ATOM     20  C   UNL     1       6.459  45.417  55.022  1.00  0.00     0.000 C 
ATOM     21  C   UNL     1       6.683  46.883  54.649  1.00  0.00     0.000 C 
ENDBRANCH  15  16
ENDBRANCH  14  15
ENDBRANCH   3  14
BRANCH   6  22
ATOM     22  C   UNL     1       5.801  43.923  50.525  1.00  0.00     0.017 A 
ATOM     23  C   UNL     1       6.537  45.100  50.737  1.00  0.00     0.012 A 
ATOM     24  C   UNL     1       6.372  42.920  49.727  1.00  0.00     0.012 A 
ATOM     25  C   UNL     1       7.804  45.272  50.173  1.00  0.00     0.001 A 
ATOM     26  C   UNL     1       7.641  43.092  49.162  1.00  0.00     0.001 A 
ATOM     27  C   UNL     1       8.355  44.266  49.385  1.00  0.00     0.000 A 
ENDBRANCH   6  22
TORSDOF 5
ENDMDL
MODEL 10
REMARK VINA RESULT:    -8.011      2.315      6.699
REMARK INTER + INTRA:         -10.883
REMARK INTER:                 -10.411
REMARK INTRA:                  -0.472
REMARK UNBOUND:                -0.764
REMARK SMILES Nc1nc(OCC2CCCCC2)c2[nH]c(-c3ccccc3)nc2n1
REMARK SMILES IDX 2 1 3 2 4 3 13 4 14 5 15 6 22 7 23 8 24 9 1 11 5 14 6 15
REMARK SMILES IDX 7 16 8 17 12 18 9 19 11 20 10 21 16 22 17 23 21 24 18 25
REMARK SMILES IDX 20 26 19 27
REMARK H PARENT 14 10 1 12 1 13
ROOT
ATOM      1  C   UNL     1       2.358  43.189  52.244  1.00  0.00     0.225 A 
ATOM      2  N   UNL     1       1.923  43.765  53.378  1.00  0.00    -0.176 NA
ATOM      3  C   UNL     1       2.735  44.623  54.019  1.00  0.00     0.245 A 
ATOM      4  C   UNL     1       3.983  44.838  53.492  1.00  0.00     0.148 A 
ATOM      5  N   UNL     1       5.063  45.592  53.843  1.00  0.00    -0.332 N 
ATOM      6  C   UNL     1       6.056  45.388  52.906  1.00  0.00     0.140 A 
ATOM      7  N   UNL     1       5.633  44.534  51.985  1.00  0.00    -0.208 NA
ATOM      8  C   UNL     1       4.357  44.193  52.337  1.00  0.00     0.187 A 
ATOM      9  N   UNL     1       3.555  43.343  51.677  1.00  0.00    -0.191 NA
ATOM     10  H   UNL     1       5.115  46.194  54.650  1.00  0.00     0.168 HD
ENDROOT
BRANCH   1  11
ATOM     11  N   UNL     1       1.484  42.309  51.630  1.00  0.00    -0.368 N 
ATOM     12  H   UNL     1       0.900  41.863  52.323  1.00  0.00     0.159 HD
ATOM     13  H   UNL     1       1.997  41.711  50.996  1.00  0.00     0.159 HD
ENDBRANCH   1  11
BRANCH   3  14
ATOM     14  O   UNL     1       2.367  45.244  55.189  1.00  0.00    -0.476 OA
BRANCH  14  15
ATOM     15  C   UNL     1       1.265  44.654  55.884  1.00  0.00     0.235 C 
BRANCH  15  16
ATOM     16  C   UNL     1       0.291  45.719  56.416  1.00  0.00     0.027 C 
ATOM     17  C   UNL     1       0.891  46.492  57.609  1.00  0.00     0.007 C 
ATOM     18  C   UNL     1      -1.077  45.140  56.788  1.00  0.00     0.007 C 
ATOM     19  C   UNL     1      -0.159  47.159  58.501  1.00  0.00     0.000 C 
ATOM     20  C   UNL     1      -2.081  46.240  57.146  1.00  0.00     0.000 C 
ATOM     21  C   UNL     1      -1.433  47.492  57.739  1.00  0.00     0.000 C 
ENDBRANCH  15  16
ENDBRANCH  14  15
ENDBRANCH   3  14
BRANCH   6  22
ATOM     22  C   UNL     1       7.377  46.028  52.940  1.00  0.00     0.017 A 
ATOM     23  C   UNL     1       7.824  46.603  54.139  1.00  0.00     0.012 A 
ATOM     24  C   UNL     1       8.219  46.092  51.819  1.00  0.00     0.012 A 
ATOM     25  C   UNL     1       9.074  47.222  54.221  1.00  0.00     0.001 A 
ATOM     26  C   UNL     1       9.471  46.712  51.901  1.00  0.00     0.001 A 
ATOM     27  C   UNL     1       9.898  47.276  53.101  1.00  0.00     0.000 A 
ENDBRANCH   6  22
TORSDOF 5
ENDMDL
