MODEL 1
REMARK VINA RESULT:    -9.862      0.000      0.000
REMARK INTER + INTRA:         -14.507
REMARK INTER:                 -13.609
REMARK INTRA:                  -0.898
REMARK UNBOUND:                -0.898
REMARK SMILES CC1CCCCC1COc1nc(Nc2ccc(S(N)(=O)=O)cc2)nc2nc[nH]c12
REMARK SMILES IDX 10 1 11 2 12 3 24 4 25 5 26 6 27 7 28 8 29 9 9 11 8 12 7 13
REMARK SMILES IDX 2 14 3 15 4 16 6 17 5 18 1 19 13 20 14 22 15 23 23 24 16 25
REMARK SMILES IDX 22 26 17 27 18 28 20 29 21 30 19 31
REMARK H PARENT 28 10 13 21 19 32 19 33
ROOT
ATOM      1  C   UNL     1       7.391  46.273  52.431  1.00  0.00     0.245 A 
ATOM      2  N   UNL     1       6.139  46.355  52.906  1.00  0.00    -0.175 NA
ATOM      3  C   UNL     1       5.932  46.854  54.139  1.00  0.00     0.232 A 
ATOM      4  N   UNL     1       6.890  47.304  54.960  1.00  0.00    -0.191 NA
ATOM      5  C   UNL     1       8.138  47.181  54.481  1.00  0.00     0.186 A 
ATOM      6  N   UNL     1       9.290  47.525  55.142  1.00  0.00    -0.217 NA
ATOM      7  C   UNL     1      10.264  47.215  54.312  1.00  0.00     0.199 A 
ATOM      8  N   UNL     1       9.785  46.677  53.146  1.00  0.00    -0.339 N 
ATOM      9  C   UNL     1       8.425  46.668  53.237  1.00  0.00     0.148 A 
ATOM     10  H   UNL     1      10.335  46.353  52.363  1.00  0.00     0.168 HD
ENDROOT
BRANCH   1  11
ATOM     11  O   UNL     1       7.593  45.686  51.208  1.00  0.00    -0.476 OA
BRANCH  11  12
ATOM     12  C   UNL     1       6.331  45.427  50.584  1.00  0.00     0.235 C 
BRANCH  12  13
ATOM     13  C   UNL     1       5.953  43.944  50.761  1.00  0.00     0.030 C 
ATOM     14  C   UNL     1       6.222  43.068  49.513  1.00  0.00    -0.008 C 
ATOM     15  C   UNL     1       5.941  41.579  49.811  1.00  0.00     0.004 C 
ATOM     16  C   UNL     1       4.860  41.342  50.866  1.00  0.00     0.000 C 
ATOM     17  C   UNL     1       4.477  43.813  51.209  1.00  0.00     0.007 C 
ATOM     18  C   UNL     1       3.837  42.463  50.881  1.00  0.00     0.000 C 
ATOM     19  C   UNL     1       7.650  43.203  48.969  1.00  0.00     0.008 C 
ENDBRANCH  12  13
ENDBRANCH  11  12
ENDBRANCH   1  11
BRANCH   3  20
ATOM     20  N   UNL     1       4.643  46.946  54.668  1.00  0.00    -0.324 N 
ATOM     21  H   UNL     1       4.696  47.422  55.558  1.00  0.00     0.170 HD
BRANCH  20  22
ATOM     22  C   UNL     1       3.418  46.350  54.343  1.00  0.00     0.041 A 
ATOM     23  C   UNL     1       2.839  46.650  53.094  1.00  0.00     0.027 A 
ATOM     24  C   UNL     1       2.756  45.431  55.162  1.00  0.00     0.027 A 
ATOM     25  C   UNL     1       1.627  46.075  52.695  1.00  0.00     0.024 A 
ATOM     26  C   UNL     1       1.546  44.847  54.775  1.00  0.00     0.024 A 
ATOM     27  C   UNL     1       0.981  45.186  53.546  1.00  0.00     0.082 A 
BRANCH  27  28
ATOM     28  S   UNL     1      -0.565  44.457  53.075  1.00  0.00     0.238 S 
ATOM     29  O   UNL     1      -0.318  43.475  52.043  1.00  0.00    -0.207 OA
ATOM     30  O   UNL     1      -1.313  44.155  54.269  1.00  0.00    -0.207 OA
BRANCH  28  31
ATOM     31  N   UNL     1      -1.321  45.748  52.296  1.00  0.00    -0.225 NA
ATOM     32  H   UNL     1      -2.340  45.687  52.315  1.00  0.00     0.137 HD
ATOM     33  H   UNL     1      -0.990  46.622  52.710  1.00  0.00     0.137 HD
ENDBRANCH  28  31
ENDBRANCH  27  28
ENDBRANCH  20  22
ENDBRANCH   3  20
TORSDOF 7
ENDMDL
MODEL 2
REMARK VINA RESULT:    -9.638      0.665      1.462
REMARK INTER + INTRA:         -14.198
REMARK INTER:                 -12.985
REMARK INTRA:                  -1.213
REMARK UNBOUND:                -0.898
REMARK SMILES CC1CCCCC1COc1nc(Nc2ccc(S(N)(=O)=O)cc2)nc2nc[nH]c12
REMARK SMILES IDX 10 1 11 2 12 3 24 4 25 5 26 6 27 7 28 8 29 9 9 11 8 12 7 13
REMARK SMILES IDX 2 14 3 15 4 16 6 17 5 18 1 19 13 20 14 22 15 23 23 24 16 25
REMARK SMILES IDX 22 26 17 27 18 28 20 29 21 30 19 31
REMARK H PARENT 28 10 13 21 19 32 19 33
ROOT
ATOM      1  C   UNL     1       7.019  46.197  52.355  1.00  0.00     0.245 A 
ATOM      2  N   UNL     1       5.793  46.259  52.897  1.00  0.00    -0.175 NA
ATOM      3  C   UNL     1       5.648  46.736  54.147  1.00  0.00     0.232 A 
ATOM      4  N   UNL     1       6.645  47.183  54.924  1.00  0.00    -0.191 NA
ATOM      5  C   UNL     1       7.866  47.080  54.377  1.00  0.00     0.186 A 
ATOM      6  N   UNL     1       9.048  47.425  54.981  1.00  0.00    -0.217 NA
ATOM      7  C   UNL     1       9.980  47.138  54.095  1.00  0.00     0.199 A 
ATOM      8  N   UNL     1       9.445  46.613  52.947  1.00  0.00    -0.339 N 
ATOM      9  C   UNL     1       8.091  46.589  53.111  1.00  0.00     0.148 A 
ATOM     10  H   UNL     1       9.954  46.308  52.131  1.00  0.00     0.168 HD
ENDROOT
BRANCH   1  11
ATOM     11  O   UNL     1       7.161  45.631  51.113  1.00  0.00    -0.476 OA
BRANCH  11  12
ATOM     12  C   UNL     1       5.871  45.429  50.527  1.00  0.00     0.235 C 
BRANCH  12  13
ATOM     13  C   UNL     1       5.730  43.966  50.063  1.00  0.00     0.030 C 
ATOM     14  C   UNL     1       5.051  43.035  51.097  1.00  0.00    -0.008 C 
ATOM     15  C   UNL     1       4.831  41.624  50.509  1.00  0.00     0.004 C 
ATOM     16  C   UNL     1       5.864  41.211  49.461  1.00  0.00     0.000 C 
ATOM     17  C   UNL     1       7.107  43.399  49.642  1.00  0.00     0.007 C 
ATOM     18  C   UNL     1       7.207  41.874  49.706  1.00  0.00     0.000 C 
ATOM     19  C   UNL     1       3.710  43.571  51.614  1.00  0.00     0.008 C 
ENDBRANCH  12  13
ENDBRANCH  11  12
ENDBRANCH   1  11
BRANCH   3  20
ATOM     20  N   UNL     1       4.389  46.806  54.746  1.00  0.00    -0.324 N 
ATOM     21  H   UNL     1       4.476  47.314  55.616  1.00  0.00     0.170 HD
BRANCH  20  22
ATOM     22  C   UNL     1       3.168  46.163  54.511  1.00  0.00     0.041 A 
ATOM     23  C   UNL     1       2.479  46.451  53.317  1.00  0.00     0.027 A 
ATOM     24  C   UNL     1       2.612  45.207  55.367  1.00  0.00     0.027 A 
ATOM     25  C   UNL     1       1.263  45.830  53.007  1.00  0.00     0.024 A 
ATOM     26  C   UNL     1       1.400  44.576  55.070  1.00  0.00     0.024 A 
ATOM     27  C   UNL     1       0.725  44.904  53.894  1.00  0.00     0.082 A 
BRANCH  27  28
ATOM     28  S   UNL     1      -0.822  44.116  53.537  1.00  0.00     0.238 S 
ATOM     29  O   UNL     1      -0.879  43.830  52.121  1.00  0.00    -0.207 OA
ATOM     30  O   UNL     1      -1.068  43.112  54.541  1.00  0.00    -0.207 OA
BRANCH  28  31
ATOM     31  N   UNL     1      -1.909  45.380  53.784  1.00  0.00    -0.225 NA
ATOM     32  H   UNL     1      -1.768  46.164  53.146  1.00  0.00     0.137 HD
ATOM     33  H   UNL     1      -2.861  45.013  53.722  1.00  0.00     0.137 HD
ENDBRANCH  28  31
ENDBRANCH  27  28
ENDBRANCH  20  22
ENDBRANCH   3  20
TORSDOF 7
ENDMDL
MODEL 3
REMARK VINA RESULT:    -9.322      3.056      5.311
REMARK INTER + INTRA:         -13.762
REMARK INTER:                 -12.953
REMARK INTRA:                  -0.809
REMARK UNBOUND:                -0.898
REMARK SMILES CC1CCCCC1COc1nc(Nc2ccc(S(N)(=O)=O)cc2)nc2nc[nH]c12
REMARK SMILES IDX 10 1 11 2 12 3 24 4 25 5 26 6 27 7 28 8 29 9 9 11 8 12 7 13
REMARK SMILES IDX 2 14 3 15 4 16 6 17 5 18 1 19 13 20 14 22 15 23 23 24 16 25
REMARK SMILES IDX 22 26 17 27 18 28 20 29 21 30 19 31
REMARK H PARENT 28 10 13 21 19 32 19 33
ROOT
ATOM      1  C   UNL     1       4.955  44.472  50.892  1.00  0.00     0.245 A 
ATOM      2  N   UNL     1       3.742  44.497  51.467  1.00  0.00    -0.175 NA
ATOM      3  C   UNL     1       3.088  43.341  51.678  1.00  0.00     0.232 A 
ATOM      4  N   UNL     1       3.555  42.122  51.371  1.00  0.00    -0.191 NA
ATOM      5  C   UNL     1       4.753  42.121  50.766  1.00  0.00     0.186 A 
ATOM      6  N   UNL     1       5.423  41.013  50.314  1.00  0.00    -0.217 NA
ATOM      7  C   UNL     1       6.531  41.481  49.777  1.00  0.00     0.199 A 
ATOM      8  N   UNL     1       6.597  42.847  49.858  1.00  0.00    -0.339 N 
ATOM      9  C   UNL     1       5.472  43.265  50.505  1.00  0.00     0.148 A 
ATOM     10  H   UNL     1       7.340  43.435  49.510  1.00  0.00     0.168 HD
ENDROOT
BRANCH   1  11
ATOM     11  O   UNL     1       5.573  45.663  50.607  1.00  0.00    -0.476 OA
BRANCH  11  12
ATOM     12  C   UNL     1       5.725  46.425  51.810  1.00  0.00     0.235 C 
BRANCH  12  13
ATOM     13  C   UNL     1       7.158  46.266  52.353  1.00  0.00     0.030 C 
ATOM     14  C   UNL     1       7.457  47.115  53.613  1.00  0.00    -0.008 C 
ATOM     15  C   UNL     1       8.864  46.802  54.168  1.00  0.00     0.004 C 
ATOM     16  C   UNL     1       9.877  46.370  53.109  1.00  0.00     0.000 C 
ATOM     17  C   UNL     1       8.193  46.563  51.240  1.00  0.00     0.007 C 
ATOM     18  C   UNL     1       9.569  46.984  51.755  1.00  0.00     0.000 C 
ATOM     19  C   UNL     1       6.429  46.925  54.735  1.00  0.00     0.008 C 
ENDBRANCH  12  13
ENDBRANCH  11  12
ENDBRANCH   1  11
BRANCH   3  20
ATOM     20  N   UNL     1       1.821  43.331  52.264  1.00  0.00    -0.324 N 
ATOM     21  H   UNL     1       1.166  42.937  51.603  1.00  0.00     0.170 HD
BRANCH  20  22
ATOM     22  C   UNL     1       1.281  43.923  53.412  1.00  0.00     0.041 A 
ATOM     23  C   UNL     1      -0.101  43.788  53.647  1.00  0.00     0.027 A 
ATOM     24  C   UNL     1       2.040  44.600  54.372  1.00  0.00     0.027 A 
ATOM     25  C   UNL     1      -0.706  44.337  54.784  1.00  0.00     0.024 A 
ATOM     26  C   UNL     1       1.450  45.152  55.514  1.00  0.00     0.024 A 
ATOM     27  C   UNL     1       0.074  45.028  55.705  1.00  0.00     0.082 A 
BRANCH  27  28
ATOM     28  S   UNL     1      -0.667  45.750  57.144  1.00  0.00     0.238 S 
ATOM     29  O   UNL     1      -1.698  44.859  57.629  1.00  0.00    -0.207 OA
ATOM     30  O   UNL     1       0.380  46.259  57.993  1.00  0.00    -0.207 OA
BRANCH  28  31
ATOM     31  N   UNL     1      -1.486  47.064  56.477  1.00  0.00    -0.225 NA
ATOM     32  H   UNL     1      -0.919  47.912  56.435  1.00  0.00     0.137 HD
ATOM     33  H   UNL     1      -1.835  46.801  55.553  1.00  0.00     0.137 HD
ENDBRANCH  28  31
ENDBRANCH  27  28
ENDBRANCH  20  22
ENDBRANCH   3  20
TORSDOF 7
ENDMDL
MODEL 4
REMARK VINA RESULT:    -9.067      2.793      5.427
REMARK INTER + INTRA:         -13.409
REMARK INTER:                 -12.593
REMARK INTRA:                  -0.816
REMARK UNBOUND:                -0.898
REMARK SMILES CC1CCCCC1COc1nc(Nc2ccc(S(N)(=O)=O)cc2)nc2nc[nH]c12
REMARK SMILES IDX 10 1 11 2 12 3 24 4 25 5 26 6 27 7 28 8 29 9 9 11 8 12 7 13
REMARK SMILES IDX 2 14 3 15 4 16 6 17 5 18 1 19 13 20 14 22 15 23 23 24 16 25
REMARK SMILES IDX 22 26 17 27 18 28 20 29 21 30 19 31
REMARK H PARENT 28 10 13 21 19 32 19 33
ROOT
ATOM      1  C   UNL     1       5.400  43.924  50.794  1.00  0.00     0.245 A 
ATOM      2  N   UNL     1       4.502  43.743  51.776  1.00  0.00    -0.175 NA
ATOM      3  C   UNL     1       3.845  42.572  51.861  1.00  0.00     0.232 A 
ATOM      4  N   UNL     1       4.017  41.528  51.037  1.00  0.00    -0.191 NA
ATOM      5  C   UNL     1       4.892  41.742  50.043  1.00  0.00     0.186 A 
ATOM      6  N   UNL     1       5.211  40.853  49.048  1.00  0.00    -0.217 NA
ATOM      7  C   UNL     1       6.083  41.486  48.291  1.00  0.00     0.199 A 
ATOM      8  N   UNL     1       6.333  42.751  48.755  1.00  0.00    -0.339 N 
ATOM      9  C   UNL     1       5.589  42.918  49.886  1.00  0.00     0.148 A 
ATOM     10  H   UNL     1       6.956  43.431  48.343  1.00  0.00     0.168 HD
ENDROOT
BRANCH   1  11
ATOM     11  O   UNL     1       6.000  45.151  50.671  1.00  0.00    -0.476 OA
BRANCH  11  12
ATOM     12  C   UNL     1       5.896  45.864  51.908  1.00  0.00     0.235 C 
BRANCH  12  13
ATOM     13  C   UNL     1       7.297  46.063  52.518  1.00  0.00     0.030 C 
ATOM     14  C   UNL     1       7.354  47.123  53.645  1.00  0.00    -0.008 C 
ATOM     15  C   UNL     1       8.757  47.170  54.289  1.00  0.00     0.004 C 
ATOM     16  C   UNL     1       9.897  46.796  53.342  1.00  0.00     0.000 C 
ATOM     17  C   UNL     1       8.326  46.394  51.409  1.00  0.00     0.007 C 
ATOM     18  C   UNL     1       9.565  47.141  51.901  1.00  0.00     0.000 C 
ATOM     19  C   UNL     1       6.311  46.898  54.748  1.00  0.00     0.008 C 
ENDBRANCH  12  13
ENDBRANCH  11  12
ENDBRANCH   1  11
BRANCH   3  20
ATOM     20  N   UNL     1       2.898  42.353  52.862  1.00  0.00    -0.324 N 
ATOM     21  H   UNL     1       3.116  41.480  53.324  1.00  0.00     0.170 HD
BRANCH  20  22
ATOM     22  C   UNL     1       1.667  42.942  53.177  1.00  0.00     0.041 A 
ATOM     23  C   UNL     1       0.495  42.364  52.654  1.00  0.00     0.027 A 
ATOM     24  C   UNL     1       1.525  44.043  54.028  1.00  0.00     0.027 A 
ATOM     25  C   UNL     1      -0.770  42.887  52.943  1.00  0.00     0.024 A 
ATOM     26  C   UNL     1       0.267  44.576  54.329  1.00  0.00     0.024 A 
ATOM     27  C   UNL     1      -0.874  44.001  53.771  1.00  0.00     0.082 A 
BRANCH  27  28
ATOM     28  S   UNL     1      -2.462  44.696  54.140  1.00  0.00     0.238 S 
ATOM     29  O   UNL     1      -2.889  45.498  53.016  1.00  0.00    -0.207 OA
ATOM     30  O   UNL     1      -3.290  43.668  54.717  1.00  0.00    -0.207 OA
BRANCH  28  31
ATOM     31  N   UNL     1      -2.072  45.797  55.356  1.00  0.00    -0.225 NA
ATOM     32  H   UNL     1      -2.565  45.620  56.232  1.00  0.00     0.137 HD
ATOM     33  H   UNL     1      -1.059  45.796  55.489  1.00  0.00     0.137 HD
ENDBRANCH  28  31
ENDBRANCH  27  28
ENDBRANCH  20  22
ENDBRANCH   3  20
TORSDOF 7
ENDMDL
MODEL 5
REMARK VINA RESULT:    -8.988      2.737      7.046
REMARK INTER + INTRA:         -13.302
REMARK INTER:                 -11.998
REMARK INTRA:                  -1.304
REMARK UNBOUND:                -0.898
REMARK SMILES CC1CCCCC1COc1nc(Nc2ccc(S(N)(=O)=O)cc2)nc2nc[nH]c12
REMARK SMILES IDX 10 1 11 2 12 3 24 4 25 5 26 6 27 7 28 8 29 9 9 11 8 12 7 13
REMARK SMILES IDX 2 14 3 15 4 16 6 17 5 18 1 19 13 20 14 22 15 23 23 24 16 25
REMARK SMILES IDX 22 26 17 27 18 28 20 29 21 30 19 31
REMARK H PARENT 28 10 13 21 19 32 19 33
ROOT
ATOM      1  C   UNL     1       0.847  43.323  53.376  1.00  0.00     0.245 A 
ATOM      2  N   UNL     1       1.960  43.798  53.958  1.00  0.00    -0.175 NA
ATOM      3  C   UNL     1       1.852  44.605  55.029  1.00  0.00     0.232 A 
ATOM      4  N   UNL     1       0.698  44.982  55.599  1.00  0.00    -0.191 NA
ATOM      5  C   UNL     1      -0.402  44.525  54.982  1.00  0.00     0.186 A 
ATOM      6  N   UNL     1      -1.697  44.802  55.341  1.00  0.00    -0.217 NA
ATOM      7  C   UNL     1      -2.439  44.169  54.455  1.00  0.00     0.199 A 
ATOM      8  N   UNL     1      -1.673  43.501  53.536  1.00  0.00    -0.339 N 
ATOM      9  C   UNL     1      -0.368  43.708  53.875  1.00  0.00     0.148 A 
ATOM     10  H   UNL     1      -2.008  42.954  52.756  1.00  0.00     0.168 HD
ENDROOT
BRANCH   1  11
ATOM     11  O   UNL     1       0.971  42.570  52.236  1.00  0.00    -0.476 OA
BRANCH  11  12
ATOM     12  C   UNL     1       1.503  43.379  51.182  1.00  0.00     0.235 C 
BRANCH  12  13
ATOM     13  C   UNL     1       3.008  43.619  51.414  1.00  0.00     0.030 C 
ATOM     14  C   UNL     1       3.525  44.976  50.878  1.00  0.00    -0.008 C 
ATOM     15  C   UNL     1       5.004  45.195  51.263  1.00  0.00     0.004 C 
ATOM     16  C   UNL     1       5.817  43.908  51.397  1.00  0.00     0.000 C 
ATOM     17  C   UNL     1       3.837  42.451  50.827  1.00  0.00     0.007 C 
ATOM     18  C   UNL     1       5.284  42.812  50.492  1.00  0.00     0.000 C 
ATOM     19  C   UNL     1       2.704  46.178  51.363  1.00  0.00     0.008 C 
ENDBRANCH  12  13
ENDBRANCH  11  12
ENDBRANCH   1  11
BRANCH   3  20
ATOM     20  N   UNL     1       2.988  45.125  55.652  1.00  0.00    -0.324 N 
ATOM     21  H   UNL     1       2.787  45.243  56.636  1.00  0.00     0.170 HD
BRANCH  20  22
ATOM     22  C   UNL     1       4.180  45.687  55.180  1.00  0.00     0.041 A 
ATOM     23  C   UNL     1       5.349  44.903  55.216  1.00  0.00     0.027 A 
ATOM     24  C   UNL     1       4.272  46.965  54.622  1.00  0.00     0.027 A 
ATOM     25  C   UNL     1       6.572  45.393  54.742  1.00  0.00     0.024 A 
ATOM     26  C   UNL     1       5.486  47.468  54.141  1.00  0.00     0.024 A 
ATOM     27  C   UNL     1       6.634  46.680  54.218  1.00  0.00     0.082 A 
BRANCH  27  28
ATOM     28  S   UNL     1       8.172  47.333  53.627  1.00  0.00     0.238 S 
ATOM     29  O   UNL     1       9.021  46.232  53.232  1.00  0.00    -0.207 OA
ATOM     30  O   UNL     1       7.893  48.448  52.758  1.00  0.00    -0.207 OA
BRANCH  28  31
ATOM     31  N   UNL     1       8.850  47.936  55.049  1.00  0.00    -0.225 NA
ATOM     32  H   UNL     1       8.959  47.227  55.775  1.00  0.00     0.137 HD
ATOM     33  H   UNL     1       9.742  48.382  54.825  1.00  0.00     0.137 HD
ENDBRANCH  28  31
ENDBRANCH  27  28
ENDBRANCH  20  22
ENDBRANCH   3  20
TORSDOF 7
ENDMDL
MODEL 6
REMARK VINA RESULT:    -8.952      2.722      5.164
REMARK INTER + INTRA:         -13.251
REMARK INTER:                 -12.795
REMARK INTRA:                  -0.456
REMARK UNBOUND:                -0.898
REMARK SMILES CC1CCCCC1COc1nc(Nc2ccc(S(N)(=O)=O)cc2)nc2nc[nH]c12
REMARK SMILES IDX 10 1 11 2 12 3 24 4 25 5 26 6 27 7 28 8 29 9 9 11 8 12 7 13
REMARK SMILES IDX 2 14 3 15 4 16 6 17 5 18 1 19 13 20 14 22 15 23 23 24 16 25
REMARK SMILES IDX 22 26 17 27 18 28 20 29 21 30 19 31
REMARK H PARENT 28 10 13 21 19 32 19 33
ROOT
ATOM      1  C   UNL     1       5.432  44.252  51.066  1.00  0.00     0.245 A 
ATOM      2  N   UNL     1       4.505  43.985  52.000  1.00  0.00    -0.175 NA
ATOM      3  C   UNL     1       3.920  42.773  52.022  1.00  0.00     0.232 A 
ATOM      4  N   UNL     1       4.195  41.768  51.178  1.00  0.00    -0.191 NA
ATOM      5  C   UNL     1       5.098  42.066  50.231  1.00  0.00     0.186 A 
ATOM      6  N   UNL     1       5.515  41.230  49.228  1.00  0.00    -0.217 NA
ATOM      7  C   UNL     1       6.378  41.939  48.530  1.00  0.00     0.199 A 
ATOM      8  N   UNL     1       6.527  43.203  49.040  1.00  0.00    -0.339 N 
ATOM      9  C   UNL     1       5.725  43.288  50.140  1.00  0.00     0.148 A 
ATOM     10  H   UNL     1       7.122  43.933  48.675  1.00  0.00     0.168 HD
ENDROOT
BRANCH   1  11
ATOM     11  O   UNL     1       5.957  45.517  51.005  1.00  0.00    -0.476 OA
BRANCH  11  12
ATOM     12  C   UNL     1       7.387  45.445  51.028  1.00  0.00     0.235 C 
BRANCH  12  13
ATOM     13  C   UNL     1       7.944  46.425  52.079  1.00  0.00     0.030 C 
ATOM     14  C   UNL     1       9.349  46.054  52.612  1.00  0.00    -0.008 C 
ATOM     15  C   UNL     1       9.888  47.149  53.558  1.00  0.00     0.004 C 
ATOM     16  C   UNL     1       8.805  47.910  54.321  1.00  0.00     0.000 C 
ATOM     17  C   UNL     1       6.943  46.586  53.250  1.00  0.00     0.007 C 
ATOM     18  C   UNL     1       7.578  47.049  54.562  1.00  0.00     0.000 C 
ATOM     19  C   UNL     1      10.378  45.810  51.500  1.00  0.00     0.008 C 
ENDBRANCH  12  13
ENDBRANCH  11  12
ENDBRANCH   1  11
BRANCH   3  20
ATOM     20  N   UNL     1       2.946  42.464  52.973  1.00  0.00    -0.324 N 
ATOM     21  H   UNL     1       3.217  41.610  53.442  1.00  0.00     0.170 HD
BRANCH  20  22
ATOM     22  C   UNL     1       1.655  42.942  53.226  1.00  0.00     0.041 A 
ATOM     23  C   UNL     1       1.500  43.996  54.147  1.00  0.00     0.027 A 
ATOM     24  C   UNL     1       0.508  42.470  52.579  1.00  0.00     0.027 A 
ATOM     25  C   UNL     1       0.241  44.536  54.433  1.00  0.00     0.024 A 
ATOM     26  C   UNL     1      -0.756  43.002  52.853  1.00  0.00     0.024 A 
ATOM     27  C   UNL     1      -0.883  44.025  53.792  1.00  0.00     0.082 A 
BRANCH  27  28
ATOM     28  S   UNL     1      -2.492  44.677  54.149  1.00  0.00     0.238 S 
ATOM     29  O   UNL     1      -2.933  45.463  53.019  1.00  0.00    -0.207 OA
ATOM     30  O   UNL     1      -3.295  43.628  54.724  1.00  0.00    -0.207 OA
BRANCH  28  31
ATOM     31  N   UNL     1      -2.141  45.792  55.364  1.00  0.00    -0.225 NA
ATOM     32  H   UNL     1      -2.784  45.741  56.155  1.00  0.00     0.137 HD
ATOM     33  H   UNL     1      -1.172  45.663  55.660  1.00  0.00     0.137 HD
ENDBRANCH  28  31
ENDBRANCH  27  28
ENDBRANCH  20  22
ENDBRANCH   3  20
TORSDOF 7
ENDMDL
MODEL 7
REMARK VINA RESULT:    -8.916      4.345      7.293
REMARK INTER + INTRA:         -13.201
REMARK INTER:                 -12.197
REMARK INTRA:                  -1.004
REMARK UNBOUND:                -0.898
REMARK SMILES CC1CCCCC1COc1nc(Nc2ccc(S(N)(=O)=O)cc2)nc2nc[nH]c12
REMARK SMILES IDX 10 1 11 2 12 3 24 4 25 5 26 6 27 7 28 8 29 9 9 11 8 12 7 13
REMARK SMILES IDX 2 14 3 15 4 16 6 17 5 18 1 19 13 20 14 22 15 23 23 24 16 25
REMARK SMILES IDX 22 26 17 27 18 28 20 29 21 30 19 31
REMARK H PARENT 28 10 13 21 19 32 19 33
ROOT
ATOM      1  C   UNL     1       4.478  44.584  52.706  1.00  0.00     0.245 A 
ATOM      2  N   UNL     1       5.040  43.690  51.877  1.00  0.00    -0.175 NA
ATOM      3  C   UNL     1       4.348  42.592  51.522  1.00  0.00     0.232 A 
ATOM      4  N   UNL     1       3.101  42.304  51.921  1.00  0.00    -0.191 NA
ATOM      5  C   UNL     1       2.570  43.191  52.776  1.00  0.00     0.186 A 
ATOM      6  N   UNL     1       1.332  43.102  53.361  1.00  0.00    -0.217 NA
ATOM      7  C   UNL     1       1.242  44.167  54.131  1.00  0.00     0.199 A 
ATOM      8  N   UNL     1       2.376  44.934  54.072  1.00  0.00    -0.339 N 
ATOM      9  C   UNL     1       3.225  44.328  53.193  1.00  0.00     0.148 A 
ATOM     10  H   UNL     1       2.550  45.790  54.578  1.00  0.00     0.168 HD
ENDROOT
BRANCH   1  11
ATOM     11  O   UNL     1       5.227  45.654  53.125  1.00  0.00    -0.476 OA
BRANCH  11  12
ATOM     12  C   UNL     1       5.670  46.405  51.988  1.00  0.00     0.235 C 
BRANCH  12  13
ATOM     13  C   UNL     1       7.162  46.758  52.143  1.00  0.00     0.030 C 
ATOM     14  C   UNL     1       8.128  45.689  51.578  1.00  0.00    -0.008 C 
ATOM     15  C   UNL     1       9.593  46.174  51.653  1.00  0.00     0.004 C 
ATOM     16  C   UNL     1       9.880  47.131  52.810  1.00  0.00     0.000 C 
ATOM     17  C   UNL     1       7.493  47.061  53.625  1.00  0.00     0.007 C 
ATOM     18  C   UNL     1       8.965  46.871  53.993  1.00  0.00     0.000 C 
ATOM     19  C   UNL     1       7.815  45.286  50.131  1.00  0.00     0.008 C 
ENDBRANCH  12  13
ENDBRANCH  11  12
ENDBRANCH   1  11
BRANCH   3  20
ATOM     20  N   UNL     1       4.905  41.638  50.670  1.00  0.00    -0.324 N 
ATOM     21  H   UNL     1       5.636  41.150  51.171  1.00  0.00     0.170 HD
BRANCH  20  22
ATOM     22  C   UNL     1       4.815  41.397  49.294  1.00  0.00     0.041 A 
ATOM     23  C   UNL     1       3.734  40.631  48.818  1.00  0.00     0.027 A 
ATOM     24  C   UNL     1       5.707  41.918  48.351  1.00  0.00     0.027 A 
ATOM     25  C   UNL     1       3.569  40.368  47.453  1.00  0.00     0.024 A 
ATOM     26  C   UNL     1       5.554  41.667  46.984  1.00  0.00     0.024 A 
ATOM     27  C   UNL     1       4.491  40.879  46.545  1.00  0.00     0.082 A 
BRANCH  27  28
ATOM     28  S   UNL     1       4.318  40.547  44.812  1.00  0.00     0.238 S 
ATOM     29  O   UNL     1       5.448  41.120  44.116  1.00  0.00    -0.207 OA
ATOM     30  O   UNL     1       3.922  39.171  44.646  1.00  0.00    -0.207 OA
BRANCH  28  31
ATOM     31  N   UNL     1       3.001  41.521  44.412  1.00  0.00    -0.225 NA
ATOM     32  H   UNL     1       3.062  41.913  43.472  1.00  0.00     0.137 HD
ATOM     33  H   UNL     1       2.142  40.983  44.539  1.00  0.00     0.137 HD
ENDBRANCH  28  31
ENDBRANCH  27  28
ENDBRANCH  20  22
ENDBRANCH   3  20
TORSDOF 7
ENDMDL
MODEL 8
REMARK VINA RESULT:    -8.769      4.740      7.605
REMARK INTER + INTRA:         -12.998
REMARK INTER:                 -12.277
REMARK INTRA:                  -0.721
REMARK UNBOUND:                -0.898
REMARK SMILES CC1CCCCC1COc1nc(Nc2ccc(S(N)(=O)=O)cc2)nc2nc[nH]c12
REMARK SMILES IDX 10 1 11 2 12 3 24 4 25 5 26 6 27 7 28 8 29 9 9 11 8 12 7 13
REMARK SMILES IDX 2 14 3 15 4 16 6 17 5 18 1 19 13 20 14 22 15 23 23 24 16 25
REMARK SMILES IDX 22 26 17 27 18 28 20 29 21 30 19 31
REMARK H PARENT 28 10 13 21 19 32 19 33
ROOT
ATOM      1  C   UNL     1       5.552  44.796  50.830  1.00  0.00     0.245 A 
ATOM      2  N   UNL     1       5.898  43.866  49.926  1.00  0.00    -0.175 NA
ATOM      3  C   UNL     1       5.291  42.665  49.949  1.00  0.00     0.232 A 
ATOM      4  N   UNL     1       4.332  42.301  50.812  1.00  0.00    -0.191 NA
ATOM      5  C   UNL     1       4.025  43.232  51.729  1.00  0.00     0.186 A 
ATOM      6  N   UNL     1       3.113  43.090  52.744  1.00  0.00    -0.217 NA
ATOM      7  C   UNL     1       3.156  44.230  53.402  1.00  0.00     0.199 A 
ATOM      8  N   UNL     1       4.066  45.097  52.856  1.00  0.00    -0.339 N 
ATOM      9  C   UNL     1       4.615  44.475  51.774  1.00  0.00     0.148 A 
ATOM     10  H   UNL     1       4.286  46.026  53.188  1.00  0.00     0.168 HD
ENDROOT
BRANCH   1  11
ATOM     11  O   UNL     1       6.238  45.984  50.846  1.00  0.00    -0.476 OA
BRANCH  11  12
ATOM     12  C   UNL     1       7.639  45.728  50.995  1.00  0.00     0.235 C 
BRANCH  12  13
ATOM     13  C   UNL     1       8.217  46.614  52.115  1.00  0.00     0.030 C 
ATOM     14  C   UNL     1       9.562  46.110  52.691  1.00  0.00    -0.008 C 
ATOM     15  C   UNL     1      10.137  47.116  53.713  1.00  0.00     0.004 C 
ATOM     16  C   UNL     1       9.080  47.926  54.462  1.00  0.00     0.000 C 
ATOM     17  C   UNL     1       7.176  46.800  53.247  1.00  0.00     0.007 C 
ATOM     18  C   UNL     1       7.781  47.154  54.606  1.00  0.00     0.000 C 
ATOM     19  C   UNL     1      10.623  45.836  51.617  1.00  0.00     0.008 C 
ENDBRANCH  12  13
ENDBRANCH  11  12
ENDBRANCH   1  11
BRANCH   3  20
ATOM     20  N   UNL     1       5.633  41.671  49.030  1.00  0.00    -0.324 N 
ATOM     21  H   UNL     1       6.567  41.348  49.241  1.00  0.00     0.170 HD
BRANCH  20  22
ATOM     22  C   UNL     1       5.070  41.231  47.826  1.00  0.00     0.041 A 
ATOM     23  C   UNL     1       3.954  40.373  47.884  1.00  0.00     0.027 A 
ATOM     24  C   UNL     1       5.515  41.634  46.564  1.00  0.00     0.027 A 
ATOM     25  C   UNL     1       3.328  39.910  46.721  1.00  0.00     0.024 A 
ATOM     26  C   UNL     1       4.898  41.182  45.393  1.00  0.00     0.024 A 
ATOM     27  C   UNL     1       3.814  40.309  45.480  1.00  0.00     0.082 A 
BRANCH  27  28
ATOM     28  S   UNL     1       3.053  39.724  43.990  1.00  0.00     0.238 S 
ATOM     29  O   UNL     1       4.039  39.729  42.933  1.00  0.00    -0.207 OA
ATOM     30  O   UNL     1       2.261  38.562  44.305  1.00  0.00    -0.207 OA
BRANCH  28  31
ATOM     31  N   UNL     1       2.001  40.991  43.629  1.00  0.00    -0.225 NA
ATOM     32  H   UNL     1       1.623  41.450  44.460  1.00  0.00     0.137 HD
ATOM     33  H   UNL     1       2.482  41.656  43.021  1.00  0.00     0.137 HD
ENDBRANCH  28  31
ENDBRANCH  27  28
ENDBRANCH  20  22
ENDBRANCH   3  20
TORSDOF 7
ENDMDL
MODEL 9
REMARK VINA RESULT:    -8.335      2.811      6.825
REMARK INTER + INTRA:         -12.400
REMARK INTER:                 -11.084
REMARK INTRA:                  -1.317
REMARK UNBOUND:                -0.898
REMARK SMILES CC1CCCCC1COc1nc(Nc2ccc(S(N)(=O)=O)cc2)nc2nc[nH]c12
REMARK SMILES IDX 10 1 11 2 12 3 24 4 25 5 26 6 27 7 28 8 29 9 9 11 8 12 7 13
REMARK SMILES IDX 2 14 3 15 4 16 6 17 5 18 1 19 13 20 14 22 15 23 23 24 16 25
REMARK SMILES IDX 22 26 17 27 18 28 20 29 21 30 19 31
REMARK H PARENT 28 10 13 21 19 32 19 33
ROOT
ATOM      1  C   UNL     1       1.572  43.433  51.512  1.00  0.00     0.245 A 
ATOM      2  N   UNL     1       2.343  44.159  52.336  1.00  0.00    -0.175 NA
ATOM      3  C   UNL     1       1.820  45.238  52.949  1.00  0.00     0.232 A 
ATOM      4  N   UNL     1       0.555  45.661  52.820  1.00  0.00    -0.191 NA
ATOM      5  C   UNL     1      -0.189  44.942  51.966  1.00  0.00     0.186 A 
ATOM      6  N   UNL     1      -1.494  45.195  51.628  1.00  0.00    -0.217 NA
ATOM      7  C   UNL     1      -1.807  44.261  50.754  1.00  0.00     0.199 A 
ATOM      8  N   UNL     1      -0.752  43.421  50.510  1.00  0.00    -0.339 N 
ATOM      9  C   UNL     1       0.283  43.838  51.294  1.00  0.00     0.148 A 
ATOM     10  H   UNL     1      -0.742  42.636  49.874  1.00  0.00     0.168 HD
ENDROOT
BRANCH   1  11
ATOM     11  O   UNL     1       2.141  42.387  50.831  1.00  0.00    -0.476 OA
BRANCH  11  12
ATOM     12  C   UNL     1       3.276  41.901  51.557  1.00  0.00     0.235 C 
BRANCH  12  13
ATOM     13  C   UNL     1       4.480  41.751  50.608  1.00  0.00     0.030 C 
ATOM     14  C   UNL     1       5.150  43.091  50.217  1.00  0.00    -0.008 C 
ATOM     15  C   UNL     1       6.421  42.847  49.373  1.00  0.00     0.004 C 
ATOM     16  C   UNL     1       6.379  41.577  48.526  1.00  0.00     0.000 C 
ATOM     17  C   UNL     1       4.074  40.957  49.342  1.00  0.00     0.007 C 
ATOM     18  C   UNL     1       4.961  41.216  48.124  1.00  0.00     0.000 C 
ATOM     19  C   UNL     1       5.517  43.965  51.423  1.00  0.00     0.008 C 
ENDBRANCH  12  13
ENDBRANCH  11  12
ENDBRANCH   1  11
BRANCH   3  20
ATOM     20  N   UNL     1       2.596  46.022  53.804  1.00  0.00    -0.324 N 
ATOM     21  H   UNL     1       1.979  46.622  54.335  1.00  0.00     0.170 HD
BRANCH  20  22
ATOM     22  C   UNL     1       3.968  46.284  53.900  1.00  0.00     0.041 A 
ATOM     23  C   UNL     1       4.535  47.216  53.010  1.00  0.00     0.027 A 
ATOM     24  C   UNL     1       4.805  45.715  54.864  1.00  0.00     0.027 A 
ATOM     25  C   UNL     1       5.895  47.542  53.061  1.00  0.00     0.024 A 
ATOM     26  C   UNL     1       6.166  46.033  54.930  1.00  0.00     0.024 A 
ATOM     27  C   UNL     1       6.705  46.937  54.016  1.00  0.00     0.082 A 
BRANCH  27  28
ATOM     28  S   UNL     1       8.435  47.316  54.093  1.00  0.00     0.238 S 
ATOM     29  O   UNL     1       8.685  48.098  55.283  1.00  0.00    -0.207 OA
ATOM     30  O   UNL     1       9.181  46.124  53.778  1.00  0.00    -0.207 OA
BRANCH  28  31
ATOM     31  N   UNL     1       8.601  48.392  52.805  1.00  0.00    -0.225 NA
ATOM     32  H   UNL     1       7.742  48.900  52.591  1.00  0.00     0.137 HD
ATOM     33  H   UNL     1       9.374  49.030  53.006  1.00  0.00     0.137 HD
ENDBRANCH  28  31
ENDBRANCH  27  28
ENDBRANCH  20  22
ENDBRANCH   3  20
TORSDOF 7
ENDMDL
MODEL 10
REMARK VINA RESULT:    -8.156      2.923      6.814
REMARK INTER + INTRA:         -12.152
REMARK INTER:                 -11.416
REMARK INTRA:                  -0.736
REMARK UNBOUND:                -0.898
REMARK SMILES CC1CCCCC1COc1nc(Nc2ccc(S(N)(=O)=O)cc2)nc2nc[nH]c12
REMARK SMILES IDX 10 1 11 2 12 3 24 4 25 5 26 6 27 7 28 8 29 9 9 11 8 12 7 13
REMARK SMILES IDX 2 14 3 15 4 16 6 17 5 18 1 19 13 20 14 22 15 23 23 24 16 25
REMARK SMILES IDX 22 26 17 27 18 28 20 29 21 30 19 31
REMARK H PARENT 28 10 13 21 19 32 19 33
ROOT
ATOM      1  C   UNL     1       2.067  42.838  52.205  1.00  0.00     0.245 A 
ATOM      2  N   UNL     1       2.822  43.688  52.918  1.00  0.00    -0.175 NA
ATOM      3  C   UNL     1       2.272  44.355  53.949  1.00  0.00     0.232 A 
ATOM      4  N   UNL     1       0.999  44.237  54.354  1.00  0.00    -0.191 NA
ATOM      5  C   UNL     1       0.252  43.410  53.607  1.00  0.00     0.186 A 
ATOM      6  N   UNL     1      -1.084  43.152  53.785  1.00  0.00    -0.217 NA
ATOM      7  C   UNL     1      -1.400  42.311  52.822  1.00  0.00     0.199 A 
ATOM      8  N   UNL     1      -0.322  42.022  52.026  1.00  0.00    -0.339 N 
ATOM      9  C   UNL     1       0.744  42.707  52.531  1.00  0.00     0.148 A 
ATOM     10  H   UNL     1      -0.315  41.413  51.220  1.00  0.00     0.168 HD
ENDROOT
BRANCH   1  11
ATOM     11  O   UNL     1       2.619  42.230  51.107  1.00  0.00    -0.476 OA
BRANCH  11  12
ATOM     12  C   UNL     1       3.990  41.913  51.372  1.00  0.00     0.235 C 
BRANCH  12  13
ATOM     13  C   UNL     1       4.909  42.929  50.667  1.00  0.00     0.030 C 
ATOM     14  C   UNL     1       6.131  42.295  49.959  1.00  0.00    -0.008 C 
ATOM     15  C   UNL     1       6.927  43.359  49.171  1.00  0.00     0.004 C 
ATOM     16  C   UNL     1       6.855  44.765  49.764  1.00  0.00     0.000 C 
ATOM     17  C   UNL     1       5.364  44.025  51.661  1.00  0.00     0.007 C 
ATOM     18  C   UNL     1       6.663  44.730  51.270  1.00  0.00     0.000 C 
ATOM     19  C   UNL     1       5.761  41.150  49.009  1.00  0.00     0.008 C 
ENDBRANCH  12  13
ENDBRANCH  11  12
ENDBRANCH   1  11
BRANCH   3  20
ATOM     20  N   UNL     1       3.026  45.253  54.706  1.00  0.00    -0.324 N 
ATOM     21  H   UNL     1       2.439  45.623  55.442  1.00  0.00     0.170 HD
BRANCH  20  22
ATOM     22  C   UNL     1       4.270  45.868  54.523  1.00  0.00     0.041 A 
ATOM     23  C   UNL     1       5.409  45.253  55.076  1.00  0.00     0.027 A 
ATOM     24  C   UNL     1       4.460  47.035  53.775  1.00  0.00     0.027 A 
ATOM     25  C   UNL     1       6.687  45.802  54.914  1.00  0.00     0.024 A 
ATOM     26  C   UNL     1       5.730  47.593  53.602  1.00  0.00     0.024 A 
ATOM     27  C   UNL     1       6.837  46.978  54.188  1.00  0.00     0.082 A 
BRANCH  27  28
ATOM     28  S   UNL     1       8.440  47.705  53.982  1.00  0.00     0.238 S 
ATOM     29  O   UNL     1       8.419  48.547  52.807  1.00  0.00    -0.207 OA
ATOM     30  O   UNL     1       8.898  48.176  55.265  1.00  0.00    -0.207 OA
BRANCH  28  31
ATOM     31  N   UNL     1       9.367  46.362  53.558  1.00  0.00    -0.225 NA
ATOM     32  H   UNL     1       9.088  45.946  52.668  1.00  0.00     0.137 HD
ATOM     33  H   UNL     1      10.353  46.631  53.552  1.00  0.00     0.137 HD
ENDBRANCH  28  31
ENDBRANCH  27  28
ENDBRANCH  20  22
ENDBRANCH   3  20
TORSDOF 7
ENDMDL
