MODEL 1
REMARK VINA RESULT:    -9.448      0.000      0.000
REMARK INTER + INTRA:         -11.405
REMARK INTER:                 -11.105
REMARK INTRA:                  -0.300
REMARK UNBOUND:                -0.300
REMARK SMILES Fc1ccc(Nc2nc(N3CCCCC3)c3nccnc3n2)cc1
REMARK SMILES IDX 6 1 5 3 2 4 3 5 24 6 4 7 23 8 1 9 7 10 8 11 22 12 9 13 21 14
REMARK SMILES IDX 16 15 20 16 17 17 19 18 18 19 10 20 11 21 15 22 12 23 14 24
REMARK SMILES IDX 13 25
REMARK H PARENT 6 2
ROOT
ATOM      1  N   UNL     1       6.947  46.140  51.425  1.00  0.00    -0.324 N 
ATOM      2  H   UNL     1       6.745  46.806  50.692  1.00  0.00     0.170 HD
ENDROOT
BRANCH   1   3
ATOM      3  C   UNL     1       7.964  46.477  52.324  1.00  0.00     0.041 A 
ATOM      4  C   UNL     1       9.909  47.201  54.219  1.00  0.00     0.123 A 
ATOM      5  C   UNL     1       8.566  47.312  54.542  1.00  0.00     0.041 A 
ATOM      6  C   UNL     1      10.301  46.738  52.972  1.00  0.00     0.041 A 
ATOM      7  C   UNL     1       7.601  46.953  53.598  1.00  0.00     0.029 A 
ATOM      8  C   UNL     1       9.329  46.381  52.030  1.00  0.00     0.029 A 
ATOM      9  F   UNL     1      10.838  47.543  55.120  1.00  0.00    -0.207 F 
ENDBRANCH   1   3
BRANCH   1  10
ATOM     10  C   UNL     1       6.075  45.062  51.301  1.00  0.00     0.231 A 
ATOM     11  N   UNL     1       5.008  44.917  52.083  1.00  0.00    -0.193 NA
ATOM     12  N   UNL     1       6.394  44.198  50.341  1.00  0.00    -0.191 NA
ATOM     13  C   UNL     1       4.201  43.850  51.898  1.00  0.00     0.162 A 
ATOM     14  C   UNL     1       5.616  43.140  50.163  1.00  0.00     0.185 A 
ATOM     15  C   UNL     1       4.463  42.879  50.918  1.00  0.00     0.150 A 
ATOM     16  N   UNL     1       5.992  42.296  49.194  1.00  0.00    -0.233 NA
ATOM     17  N   UNL     1       3.704  41.756  50.692  1.00  0.00    -0.247 NA
ATOM     18  C   UNL     1       5.240  41.194  48.981  1.00  0.00     0.133 A 
ATOM     19  C   UNL     1       4.114  40.926  49.718  1.00  0.00     0.132 A 
BRANCH  13  20
ATOM     20  N   UNL     1       3.068  43.728  52.741  1.00  0.00    -0.355 N 
ATOM     21  C   UNL     1       1.791  43.670  52.018  1.00  0.00     0.118 C 
ATOM     22  C   UNL     1       3.053  44.566  53.950  1.00  0.00     0.118 C 
ATOM     23  C   UNL     1       1.384  45.061  51.518  1.00  0.00     0.022 C 
ATOM     24  C   UNL     1       1.964  45.644  53.912  1.00  0.00     0.022 C 
ATOM     25  C   UNL     1       1.722  46.180  52.508  1.00  0.00     0.004 C 
ENDBRANCH  13  20
ENDBRANCH   1  10
TORSDOF 3
ENDMDL
MODEL 2
REMARK VINA RESULT:    -8.861      2.985      6.162
REMARK INTER + INTRA:         -10.715
REMARK INTER:                 -10.399
REMARK INTRA:                  -0.317
REMARK UNBOUND:                -0.300
REMARK SMILES Fc1ccc(Nc2nc(N3CCCCC3)c3nccnc3n2)cc1
REMARK SMILES IDX 6 1 5 3 2 4 3 5 24 6 4 7 23 8 1 9 7 10 8 11 22 12 9 13 21 14
REMARK SMILES IDX 16 15 20 16 17 17 19 18 18 19 10 20 11 21 15 22 12 23 14 24
REMARK SMILES IDX 13 25
REMARK H PARENT 6 2
ROOT
ATOM      1  N   UNL     1       7.025  44.651  50.115  1.00  0.00    -0.324 N 
ATOM      2  H   UNL     1       7.619  45.036  49.394  1.00  0.00     0.170 HD
ENDROOT
BRANCH   1   3
ATOM      3  C   UNL     1       6.302  43.498  49.791  1.00  0.00     0.041 A 
ATOM      4  C   UNL     1       4.789  41.189  49.265  1.00  0.00     0.123 A 
ATOM      5  C   UNL     1       4.567  41.900  50.434  1.00  0.00     0.041 A 
ATOM      6  C   UNL     1       5.751  41.605  48.356  1.00  0.00     0.041 A 
ATOM      7  C   UNL     1       5.321  43.048  50.694  1.00  0.00     0.029 A 
ATOM      8  C   UNL     1       6.503  42.754  48.623  1.00  0.00     0.029 A 
ATOM      9  F   UNL     1       4.069  40.090  49.011  1.00  0.00    -0.207 F 
ENDBRANCH   1   3
BRANCH   1  10
ATOM     10  C   UNL     1       7.156  45.427  51.263  1.00  0.00     0.231 A 
ATOM     11  N   UNL     1       6.104  45.927  51.907  1.00  0.00    -0.193 NA
ATOM     12  N   UNL     1       8.410  45.624  51.661  1.00  0.00    -0.191 NA
ATOM     13  C   UNL     1       6.308  46.664  53.021  1.00  0.00     0.162 A 
ATOM     14  C   UNL     1       8.620  46.359  52.743  1.00  0.00     0.185 A 
ATOM     15  C   UNL     1       7.596  46.935  53.509  1.00  0.00     0.150 A 
ATOM     16  N   UNL     1       9.901  46.537  53.088  1.00  0.00    -0.233 NA
ATOM     17  N   UNL     1       7.879  47.698  54.617  1.00  0.00    -0.247 NA
ATOM     18  C   UNL     1      10.169  47.290  54.177  1.00  0.00     0.133 A 
ATOM     19  C   UNL     1       9.176  47.864  54.930  1.00  0.00     0.132 A 
BRANCH  13  20
ATOM     20  N   UNL     1       5.167  47.175  53.689  1.00  0.00    -0.355 N 
ATOM     21  C   UNL     1       4.935  46.581  55.011  1.00  0.00     0.118 C 
ATOM     22  C   UNL     1       3.954  47.360  52.876  1.00  0.00     0.118 C 
ATOM     23  C   UNL     1       4.342  45.173  54.880  1.00  0.00     0.022 C 
ATOM     24  C   UNL     1       2.822  46.407  53.274  1.00  0.00     0.022 C 
ATOM     25  C   UNL     1       3.337  45.049  53.731  1.00  0.00     0.004 C 
ENDBRANCH  13  20
ENDBRANCH   1  10
TORSDOF 3
ENDMDL
MODEL 3
REMARK VINA RESULT:    -8.746      0.783      1.243
REMARK INTER + INTRA:         -10.580
REMARK INTER:                 -10.815
REMARK INTRA:                   0.235
REMARK UNBOUND:                -0.300
REMARK SMILES Fc1ccc(Nc2nc(N3CCCCC3)c3nccnc3n2)cc1
REMARK SMILES IDX 6 1 5 3 2 4 3 5 24 6 4 7 23 8 1 9 7 10 8 11 22 12 9 13 21 14
REMARK SMILES IDX 16 15 20 16 17 17 19 18 18 19 10 20 11 21 15 22 12 23 14 24
REMARK SMILES IDX 13 25
REMARK H PARENT 6 2
ROOT
ATOM      1  N   UNL     1       6.964  46.326  51.369  1.00  0.00    -0.324 N 
ATOM      2  H   UNL     1       6.896  46.943  50.571  1.00  0.00     0.170 HD
ENDROOT
BRANCH   1   3
ATOM      3  C   UNL     1       7.968  46.606  52.302  1.00  0.00     0.041 A 
ATOM      4  C   UNL     1       9.886  47.219  54.263  1.00  0.00     0.123 A 
ATOM      5  C   UNL     1       8.539  47.377  54.551  1.00  0.00     0.041 A 
ATOM      6  C   UNL     1      10.294  46.763  53.018  1.00  0.00     0.041 A 
ATOM      7  C   UNL     1       7.588  47.073  53.574  1.00  0.00     0.029 A 
ATOM      8  C   UNL     1       9.336  46.461  52.044  1.00  0.00     0.029 A 
ATOM      9  F   UNL     1      10.802  47.507  55.195  1.00  0.00    -0.207 F 
ENDBRANCH   1   3
BRANCH   1  10
ATOM     10  C   UNL     1       5.960  45.366  51.278  1.00  0.00     0.231 A 
ATOM     11  N   UNL     1       4.754  45.547  51.811  1.00  0.00    -0.193 NA
ATOM     12  N   UNL     1       6.303  44.264  50.617  1.00  0.00    -0.191 NA
ATOM     13  C   UNL     1       3.826  44.575  51.675  1.00  0.00     0.162 A 
ATOM     14  C   UNL     1       5.404  43.300  50.492  1.00  0.00     0.185 A 
ATOM     15  C   UNL     1       4.100  43.373  51.004  1.00  0.00     0.150 A 
ATOM     16  N   UNL     1       5.807  42.208  49.831  1.00  0.00    -0.233 NA
ATOM     17  N   UNL     1       3.216  42.331  50.851  1.00  0.00    -0.247 NA
ATOM     18  C   UNL     1       4.932  41.189  49.688  1.00  0.00     0.133 A 
ATOM     19  C   UNL     1       3.657  41.247  50.190  1.00  0.00     0.132 A 
BRANCH  13  20
ATOM     20  N   UNL     1       2.549  44.801  52.246  1.00  0.00    -0.355 N 
ATOM     21  C   UNL     1       2.326  46.185  52.681  1.00  0.00     0.118 C 
ATOM     22  C   UNL     1       2.053  43.776  53.178  1.00  0.00     0.118 C 
ATOM     23  C   UNL     1       3.065  46.469  53.994  1.00  0.00     0.022 C 
ATOM     24  C   UNL     1       1.950  44.285  54.619  1.00  0.00     0.022 C 
ATOM     25  C   UNL     1       3.044  45.286  54.965  1.00  0.00     0.004 C 
ENDBRANCH  13  20
ENDBRANCH   1  10
TORSDOF 3
ENDMDL
MODEL 4
REMARK VINA RESULT:    -8.606      2.831      5.667
REMARK INTER + INTRA:         -10.415
REMARK INTER:                 -10.163
REMARK INTRA:                  -0.252
REMARK UNBOUND:                -0.300
REMARK SMILES Fc1ccc(Nc2nc(N3CCCCC3)c3nccnc3n2)cc1
REMARK SMILES IDX 6 1 5 3 2 4 3 5 24 6 4 7 23 8 1 9 7 10 8 11 22 12 9 13 21 14
REMARK SMILES IDX 16 15 20 16 17 17 19 18 18 19 10 20 11 21 15 22 12 23 14 24
REMARK SMILES IDX 13 25
REMARK H PARENT 6 2
ROOT
ATOM      1  N   UNL     1       3.780  42.684  51.583  1.00  0.00    -0.324 N 
ATOM      2  H   UNL     1       3.165  41.914  51.353  1.00  0.00     0.170 HD
ENDROOT
BRANCH   1   3
ATOM      3  C   UNL     1       4.940  42.818  50.814  1.00  0.00     0.041 A 
ATOM      4  C   UNL     1       7.271  43.223  49.297  1.00  0.00     0.123 A 
ATOM      5  C   UNL     1       6.728  44.280  50.011  1.00  0.00     0.041 A 
ATOM      6  C   UNL     1       6.675  41.971  49.323  1.00  0.00     0.041 A 
ATOM      7  C   UNL     1       5.569  44.076  50.763  1.00  0.00     0.029 A 
ATOM      8  C   UNL     1       5.514  41.774  50.078  1.00  0.00     0.029 A 
ATOM      9  F   UNL     1       8.382  43.412  48.574  1.00  0.00    -0.207 F 
ENDBRANCH   1   3
BRANCH   1  10
ATOM     10  C   UNL     1       3.216  43.408  52.629  1.00  0.00     0.231 A 
ATOM     11  N   UNL     1       3.924  44.263  53.364  1.00  0.00    -0.193 NA
ATOM     12  N   UNL     1       1.921  43.180  52.828  1.00  0.00    -0.191 NA
ATOM     13  C   UNL     1       3.307  44.939  54.358  1.00  0.00     0.162 A 
ATOM     14  C   UNL     1       1.312  43.827  53.811  1.00  0.00     0.185 A 
ATOM     15  C   UNL     1       1.946  44.754  54.650  1.00  0.00     0.150 A 
ATOM     16  N   UNL     1       0.013  43.548  53.976  1.00  0.00    -0.233 NA
ATOM     17  N   UNL     1       1.260  45.385  55.661  1.00  0.00    -0.247 NA
ATOM     18  C   UNL     1      -0.652  44.171  54.973  1.00  0.00     0.133 A 
ATOM     19  C   UNL     1      -0.039  45.075  55.805  1.00  0.00     0.132 A 
BRANCH  13  20
ATOM     20  N   UNL     1       4.085  45.847  55.117  1.00  0.00    -0.355 N 
ATOM     21  C   UNL     1       3.917  47.251  54.723  1.00  0.00     0.118 C 
ATOM     22  C   UNL     1       5.474  45.450  55.399  1.00  0.00     0.118 C 
ATOM     23  C   UNL     1       4.673  47.547  53.423  1.00  0.00     0.022 C 
ATOM     24  C   UNL     1       6.501  46.340  54.691  1.00  0.00     0.022 C 
ATOM     25  C   UNL     1       6.017  46.820  53.330  1.00  0.00     0.004 C 
ENDBRANCH  13  20
ENDBRANCH   1  10
TORSDOF 3
ENDMDL
MODEL 5
REMARK VINA RESULT:    -8.500      1.255      3.908
REMARK INTER + INTRA:         -10.291
REMARK INTER:                 -10.758
REMARK INTRA:                   0.466
REMARK UNBOUND:                -0.300
REMARK SMILES Fc1ccc(Nc2nc(N3CCCCC3)c3nccnc3n2)cc1
REMARK SMILES IDX 6 1 5 3 2 4 3 5 24 6 4 7 23 8 1 9 7 10 8 11 22 12 9 13 21 14
REMARK SMILES IDX 16 15 20 16 17 17 19 18 18 19 10 20 11 21 15 22 12 23 14 24
REMARK SMILES IDX 13 25
REMARK H PARENT 6 2
ROOT
ATOM      1  N   UNL     1       6.568  46.028  51.085  1.00  0.00    -0.324 N 
ATOM      2  H   UNL     1       6.598  46.489  50.186  1.00  0.00     0.170 HD
ENDROOT
BRANCH   1   3
ATOM      3  C   UNL     1       7.535  46.406  52.022  1.00  0.00     0.041 A 
ATOM      4  C   UNL     1       9.576  47.130  53.814  1.00  0.00     0.123 A 
ATOM      5  C   UNL     1       9.904  46.751  52.521  1.00  0.00     0.041 A 
ATOM      6  C   UNL     1       8.253  47.153  54.230  1.00  0.00     0.041 A 
ATOM      7  C   UNL     1       8.887  46.390  51.633  1.00  0.00     0.029 A 
ATOM      8  C   UNL     1       7.240  46.790  53.336  1.00  0.00     0.029 A 
ATOM      9  F   UNL     1      10.546  47.477  54.669  1.00  0.00    -0.207 F 
ENDBRANCH   1   3
BRANCH   1  10
ATOM     10  C   UNL     1       5.495  45.142  51.096  1.00  0.00     0.231 A 
ATOM     11  N   UNL     1       5.647  43.839  50.871  1.00  0.00    -0.193 NA
ATOM     12  N   UNL     1       4.315  45.701  51.352  1.00  0.00    -0.191 NA
ATOM     13  C   UNL     1       4.560  43.038  50.907  1.00  0.00     0.162 A 
ATOM     14  C   UNL     1       3.242  44.925  51.374  1.00  0.00     0.185 A 
ATOM     15  C   UNL     1       3.273  43.540  51.157  1.00  0.00     0.150 A 
ATOM     16  N   UNL     1       2.080  45.542  51.621  1.00  0.00    -0.233 NA
ATOM     17  N   UNL     1       2.121  42.790  51.182  1.00  0.00    -0.247 NA
ATOM     18  C   UNL     1       0.954  44.797  51.640  1.00  0.00     0.133 A 
ATOM     19  C   UNL     1       0.971  43.442  51.423  1.00  0.00     0.132 A 
BRANCH  13  20
ATOM     20  N   UNL     1       4.755  41.654  50.672  1.00  0.00    -0.355 N 
ATOM     21  C   UNL     1       6.077  41.323  50.124  1.00  0.00     0.118 C 
ATOM     22  C   UNL     1       3.634  40.925  50.058  1.00  0.00     0.118 C 
ATOM     23  C   UNL     1       6.155  41.681  48.636  1.00  0.00     0.022 C 
ATOM     24  C   UNL     1       3.950  40.438  48.639  1.00  0.00     0.022 C 
ATOM     25  C   UNL     1       4.854  41.399  47.879  1.00  0.00     0.004 C 
ENDBRANCH  13  20
ENDBRANCH   1  10
TORSDOF 3
ENDMDL
MODEL 6
REMARK VINA RESULT:    -8.347      3.282      6.238
REMARK INTER + INTRA:         -10.111
REMARK INTER:                  -9.842
REMARK INTRA:                  -0.269
REMARK UNBOUND:                -0.300
REMARK SMILES Fc1ccc(Nc2nc(N3CCCCC3)c3nccnc3n2)cc1
REMARK SMILES IDX 6 1 5 3 2 4 3 5 24 6 4 7 23 8 1 9 7 10 8 11 22 12 9 13 21 14
REMARK SMILES IDX 16 15 20 16 17 17 19 18 18 19 10 20 11 21 15 22 12 23 14 24
REMARK SMILES IDX 13 25
REMARK H PARENT 6 2
ROOT
ATOM      1  N   UNL     1       2.001  42.579  53.130  1.00  0.00    -0.324 N 
ATOM      2  H   UNL     1       1.977  41.570  53.187  1.00  0.00     0.170 HD
ENDROOT
BRANCH   1   3
ATOM      3  C   UNL     1       0.993  43.275  53.805  1.00  0.00     0.041 A 
ATOM      4  C   UNL     1      -0.934  44.735  55.236  1.00  0.00     0.123 A 
ATOM      5  C   UNL     1       0.412  44.983  55.455  1.00  0.00     0.041 A 
ATOM      6  C   UNL     1      -1.338  43.775  54.321  1.00  0.00     0.041 A 
ATOM      7  C   UNL     1       1.368  44.255  54.743  1.00  0.00     0.029 A 
ATOM      8  C   UNL     1      -0.375  43.048  53.612  1.00  0.00     0.029 A 
ATOM      9  F   UNL     1      -1.855  45.431  55.915  1.00  0.00    -0.207 F 
ENDBRANCH   1   3
BRANCH   1  10
ATOM     10  C   UNL     1       3.111  42.957  52.379  1.00  0.00     0.231 A 
ATOM     11  N   UNL     1       3.666  44.161  52.490  1.00  0.00    -0.193 NA
ATOM     12  N   UNL     1       3.566  42.021  51.551  1.00  0.00    -0.191 NA
ATOM     13  C   UNL     1       4.748  44.455  51.735  1.00  0.00     0.162 A 
ATOM     14  C   UNL     1       4.616  42.306  50.796  1.00  0.00     0.185 A 
ATOM     15  C   UNL     1       5.291  43.535  50.824  1.00  0.00     0.150 A 
ATOM     16  N   UNL     1       5.023  41.334  49.970  1.00  0.00    -0.233 NA
ATOM     17  N   UNL     1       6.370  43.774  50.005  1.00  0.00    -0.247 NA
ATOM     18  C   UNL     1       6.082  41.579  49.169  1.00  0.00     0.133 A 
ATOM     19  C   UNL     1       6.746  42.779  49.183  1.00  0.00     0.132 A 
BRANCH  13  20
ATOM     20  N   UNL     1       5.322  45.742  51.881  1.00  0.00    -0.355 N 
ATOM     21  C   UNL     1       6.620  45.741  52.567  1.00  0.00     0.118 C 
ATOM     22  C   UNL     1       4.414  46.827  52.284  1.00  0.00     0.118 C 
ATOM     23  C   UNL     1       6.438  45.549  54.078  1.00  0.00     0.022 C 
ATOM     24  C   UNL     1       4.717  47.364  53.688  1.00  0.00     0.022 C 
ATOM     25  C   UNL     1       5.212  46.278  54.633  1.00  0.00     0.004 C 
ENDBRANCH  13  20
ENDBRANCH   1  10
TORSDOF 3
ENDMDL
MODEL 7
REMARK VINA RESULT:    -8.305      3.111      6.857
REMARK INTER + INTRA:         -10.062
REMARK INTER:                 -10.928
REMARK INTRA:                   0.866
REMARK UNBOUND:                -0.300
REMARK SMILES Fc1ccc(Nc2nc(N3CCCCC3)c3nccnc3n2)cc1
REMARK SMILES IDX 6 1 5 3 2 4 3 5 24 6 4 7 23 8 1 9 7 10 8 11 22 12 9 13 21 14
REMARK SMILES IDX 16 15 20 16 17 17 19 18 18 19 10 20 11 21 15 22 12 23 14 24
REMARK SMILES IDX 13 25
REMARK H PARENT 6 2
ROOT
ATOM      1  N   UNL     1       6.395  43.637  50.460  1.00  0.00    -0.324 N 
ATOM      2  H   UNL     1       7.345  43.812  50.163  1.00  0.00     0.170 HD
ENDROOT
BRANCH   1   3
ATOM      3  C   UNL     1       5.696  42.630  49.787  1.00  0.00     0.041 A 
ATOM      4  C   UNL     1       4.220  40.583  48.551  1.00  0.00     0.123 A 
ATOM      5  C   UNL     1       3.899  40.972  49.842  1.00  0.00     0.041 A 
ATOM      6  C   UNL     1       5.261  41.192  47.866  1.00  0.00     0.041 A 
ATOM      7  C   UNL     1       4.635  41.990  50.455  1.00  0.00     0.029 A 
ATOM      8  C   UNL     1       5.994  42.209  48.485  1.00  0.00     0.029 A 
ATOM      9  F   UNL     1       3.517  39.609  47.959  1.00  0.00    -0.207 F 
ENDBRANCH   1   3
BRANCH   1  10
ATOM     10  C   UNL     1       6.095  44.489  51.519  1.00  0.00     0.231 A 
ATOM     11  N   UNL     1       6.874  45.519  51.845  1.00  0.00    -0.193 NA
ATOM     12  N   UNL     1       4.975  44.193  52.171  1.00  0.00    -0.191 NA
ATOM     13  C   UNL     1       6.515  46.309  52.880  1.00  0.00     0.162 A 
ATOM     14  C   UNL     1       4.624  44.953  53.198  1.00  0.00     0.185 A 
ATOM     15  C   UNL     1       5.356  46.067  53.634  1.00  0.00     0.150 A 
ATOM     16  N   UNL     1       3.496  44.601  53.827  1.00  0.00    -0.233 NA
ATOM     17  N   UNL     1       4.944  46.810  54.715  1.00  0.00    -0.247 NA
ATOM     18  C   UNL     1       3.100  45.336  54.888  1.00  0.00     0.133 A 
ATOM     19  C   UNL     1       3.812  46.423  55.328  1.00  0.00     0.132 A 
BRANCH  13  20
ATOM     20  N   UNL     1       7.359  47.402  53.196  1.00  0.00    -0.355 N 
ATOM     21  C   UNL     1       8.015  48.007  52.030  1.00  0.00     0.118 C 
ATOM     22  C   UNL     1       8.224  47.247  54.377  1.00  0.00     0.118 C 
ATOM     23  C   UNL     1       9.176  47.132  51.543  1.00  0.00     0.022 C 
ATOM     24  C   UNL     1       9.713  47.180  54.016  1.00  0.00     0.022 C 
ATOM     25  C   UNL     1       9.961  46.482  52.686  1.00  0.00     0.004 C 
ENDBRANCH  13  20
ENDBRANCH   1  10
TORSDOF 3
ENDMDL
MODEL 8
REMARK VINA RESULT:    -8.214      3.013      6.416
REMARK INTER + INTRA:          -9.954
REMARK INTER:                 -10.284
REMARK INTRA:                   0.330
REMARK UNBOUND:                -0.300
REMARK SMILES Fc1ccc(Nc2nc(N3CCCCC3)c3nccnc3n2)cc1
REMARK SMILES IDX 6 1 5 3 2 4 3 5 24 6 4 7 23 8 1 9 7 10 8 11 22 12 9 13 21 14
REMARK SMILES IDX 16 15 20 16 17 17 19 18 18 19 10 20 11 21 15 22 12 23 14 24
REMARK SMILES IDX 13 25
REMARK H PARENT 6 2
ROOT
ATOM      1  N   UNL     1       4.097  45.546  53.455  1.00  0.00    -0.324 N 
ATOM      2  H   UNL     1       4.273  46.334  54.063  1.00  0.00     0.170 HD
ENDROOT
BRANCH   1   3
ATOM      3  C   UNL     1       2.899  44.850  53.652  1.00  0.00     0.041 A 
ATOM      4  C   UNL     1       0.477  43.522  54.166  1.00  0.00     0.123 A 
ATOM      5  C   UNL     1       0.889  44.542  55.010  1.00  0.00     0.041 A 
ATOM      6  C   UNL     1       1.247  43.152  53.074  1.00  0.00     0.041 A 
ATOM      7  C   UNL     1       2.095  45.200  54.752  1.00  0.00     0.029 A 
ATOM      8  C   UNL     1       2.454  43.814  52.823  1.00  0.00     0.029 A 
ATOM      9  F   UNL     1      -0.678  42.889  54.407  1.00  0.00    -0.207 F 
ENDBRANCH   1   3
BRANCH   1  10
ATOM     10  C   UNL     1       5.154  45.429  52.557  1.00  0.00     0.231 A 
ATOM     11  N   UNL     1       6.152  46.310  52.517  1.00  0.00    -0.193 NA
ATOM     12  N   UNL     1       5.087  44.372  51.753  1.00  0.00    -0.191 NA
ATOM     13  C   UNL     1       7.150  46.128  51.625  1.00  0.00     0.162 A 
ATOM     14  C   UNL     1       6.053  44.195  50.865  1.00  0.00     0.185 A 
ATOM     15  C   UNL     1       7.158  45.048  50.727  1.00  0.00     0.150 A 
ATOM     16  N   UNL     1       5.927  43.124  50.071  1.00  0.00    -0.233 NA
ATOM     17  N   UNL     1       8.123  44.815  49.777  1.00  0.00    -0.247 NA
ATOM     18  C   UNL     1       6.880  42.905  49.139  1.00  0.00     0.133 A 
ATOM     19  C   UNL     1       7.961  43.737  48.991  1.00  0.00     0.132 A 
BRANCH  13  20
ATOM     20  N   UNL     1       8.201  47.077  51.611  1.00  0.00    -0.355 N 
ATOM     21  C   UNL     1       9.540  46.485  51.724  1.00  0.00     0.118 C 
ATOM     22  C   UNL     1       7.999  48.297  52.410  1.00  0.00     0.118 C 
ATOM     23  C   UNL     1       9.826  46.053  53.166  1.00  0.00     0.022 C 
ATOM     24  C   UNL     1       8.951  48.386  53.608  1.00  0.00     0.022 C 
ATOM     25  C   UNL     1       9.263  47.023  54.209  1.00  0.00     0.004 C 
ENDBRANCH  13  20
ENDBRANCH   1  10
TORSDOF 3
ENDMDL
MODEL 9
REMARK VINA RESULT:    -8.135      3.225      6.728
REMARK INTER + INTRA:          -9.862
REMARK INTER:                 -10.355
REMARK INTRA:                   0.493
REMARK UNBOUND:                -0.300
REMARK SMILES Fc1ccc(Nc2nc(N3CCCCC3)c3nccnc3n2)cc1
REMARK SMILES IDX 6 1 5 3 2 4 3 5 24 6 4 7 23 8 1 9 7 10 8 11 22 12 9 13 21 14
REMARK SMILES IDX 16 15 20 16 17 17 19 18 18 19 10 20 11 21 15 22 12 23 14 24
REMARK SMILES IDX 13 25
REMARK H PARENT 6 2
ROOT
ATOM      1  N   UNL     1       4.279  46.278  55.267  1.00  0.00    -0.324 N 
ATOM      2  H   UNL     1       4.466  46.813  56.105  1.00  0.00     0.170 HD
ENDROOT
BRANCH   1   3
ATOM      3  C   UNL     1       3.030  45.653  55.182  1.00  0.00     0.041 A 
ATOM      4  C   UNL     1       0.494  44.443  55.139  1.00  0.00     0.123 A 
ATOM      5  C   UNL     1       0.852  45.242  56.214  1.00  0.00     0.041 A 
ATOM      6  C   UNL     1       1.375  44.234  54.088  1.00  0.00     0.041 A 
ATOM      7  C   UNL     1       2.114  45.842  56.233  1.00  0.00     0.029 A 
ATOM      8  C   UNL     1       2.637  44.837  54.114  1.00  0.00     0.029 A 
ATOM      9  F   UNL     1      -0.714  43.867  55.115  1.00  0.00    -0.207 F 
ENDBRANCH   1   3
BRANCH   1  10
ATOM     10  C   UNL     1       5.379  46.374  54.421  1.00  0.00     0.231 A 
ATOM     11  N   UNL     1       5.299  46.109  53.119  1.00  0.00    -0.193 NA
ATOM     12  N   UNL     1       6.507  46.752  55.016  1.00  0.00    -0.191 NA
ATOM     13  C   UNL     1       6.408  46.232  52.356  1.00  0.00     0.162 A 
ATOM     14  C   UNL     1       7.602  46.860  54.279  1.00  0.00     0.185 A 
ATOM     15  C   UNL     1       7.645  46.614  52.899  1.00  0.00     0.150 A 
ATOM     16  N   UNL     1       8.711  47.229  54.932  1.00  0.00    -0.233 NA
ATOM     17  N   UNL     1       8.818  46.732  52.191  1.00  0.00    -0.247 NA
ATOM     18  C   UNL     1       9.858  47.341  54.228  1.00  0.00     0.133 A 
ATOM     19  C   UNL     1       9.914  47.096  52.879  1.00  0.00     0.132 A 
BRANCH  13  20
ATOM     20  N   UNL     1       6.289  45.951  50.973  1.00  0.00    -0.355 N 
ATOM     21  C   UNL     1       4.906  45.757  50.520  1.00  0.00     0.118 C 
ATOM     22  C   UNL     1       7.261  45.001  50.407  1.00  0.00     0.118 C 
ATOM     23  C   UNL     1       4.384  44.378  50.939  1.00  0.00     0.022 C 
ATOM     24  C   UNL     1       6.612  43.687  49.956  1.00  0.00     0.022 C 
ATOM     25  C   UNL     1       5.445  43.278  50.844  1.00  0.00     0.004 C 
ENDBRANCH  13  20
ENDBRANCH   1  10
TORSDOF 3
ENDMDL
MODEL 10
REMARK VINA RESULT:    -7.895      3.571      6.884
REMARK INTER + INTRA:          -9.580
REMARK INTER:                  -9.442
REMARK INTRA:                  -0.138
REMARK UNBOUND:                -0.300
REMARK SMILES Fc1ccc(Nc2nc(N3CCCCC3)c3nccnc3n2)cc1
REMARK SMILES IDX 6 1 5 3 2 4 3 5 24 6 4 7 23 8 1 9 7 10 8 11 22 12 9 13 21 14
REMARK SMILES IDX 16 15 20 16 17 17 19 18 18 19 10 20 11 21 15 22 12 23 14 24
REMARK SMILES IDX 13 25
REMARK H PARENT 6 2
ROOT
ATOM      1  N   UNL     1       3.175  45.748  56.046  1.00  0.00    -0.324 N 
ATOM      2  H   UNL     1       3.555  46.079  56.922  1.00  0.00     0.170 HD
ENDROOT
BRANCH   1   3
ATOM      3  C   UNL     1       1.815  45.421  56.030  1.00  0.00     0.041 A 
ATOM      4  C   UNL     1      -0.901  44.717  55.869  1.00  0.00     0.123 A 
ATOM      5  C   UNL     1      -0.048  44.391  54.826  1.00  0.00     0.041 A 
ATOM      6  C   UNL     1      -0.428  45.387  56.987  1.00  0.00     0.041 A 
ATOM      7  C   UNL     1       1.302  44.743  54.909  1.00  0.00     0.029 A 
ATOM      8  C   UNL     1       0.924  45.737  57.063  1.00  0.00     0.029 A 
ATOM      9  F   UNL     1      -2.195  44.382  55.795  1.00  0.00    -0.207 F 
ENDBRANCH   1   3
BRANCH   1  10
ATOM     10  C   UNL     1       4.185  45.756  55.089  1.00  0.00     0.231 A 
ATOM     11  N   UNL     1       4.066  45.123  53.924  1.00  0.00    -0.193 NA
ATOM     12  N   UNL     1       5.269  46.447  55.431  1.00  0.00    -0.191 NA
ATOM     13  C   UNL     1       5.085  45.183  53.039  1.00  0.00     0.162 A 
ATOM     14  C   UNL     1       6.279  46.498  54.576  1.00  0.00     0.185 A 
ATOM     15  C   UNL     1       6.272  45.878  53.318  1.00  0.00     0.150 A 
ATOM     16  N   UNL     1       7.350  47.194  54.978  1.00  0.00    -0.233 NA
ATOM     17  N   UNL     1       7.359  45.958  52.479  1.00  0.00    -0.247 NA
ATOM     18  C   UNL     1       8.412  47.265  54.147  1.00  0.00     0.133 A 
ATOM     19  C   UNL     1       8.420  46.657  52.918  1.00  0.00     0.132 A 
BRANCH  13  20
ATOM     20  N   UNL     1       4.925  44.505  51.805  1.00  0.00    -0.355 N 
ATOM     21  C   UNL     1       4.642  45.393  50.670  1.00  0.00     0.118 C 
ATOM     22  C   UNL     1       4.130  43.267  51.831  1.00  0.00     0.118 C 
ATOM     23  C   UNL     1       3.185  45.871  50.702  1.00  0.00     0.022 C 
ATOM     24  C   UNL     1       2.808  43.395  51.065  1.00  0.00     0.022 C 
ATOM     25  C   UNL     1       2.207  44.790  51.168  1.00  0.00     0.004 C 
ENDBRANCH  13  20
ENDBRANCH   1  10
TORSDOF 3
ENDMDL
