MODEL 1
REMARK VINA RESULT:   -10.003      0.000      0.000
REMARK INTER + INTRA:         -13.429
REMARK INTER:                 -12.927
REMARK INTRA:                  -0.502
REMARK UNBOUND:                -0.502
REMARK SMILES COc1ccccc1N1CCN(c2nc(Nc3ccccc3)c3nccnc3n2)CC1
REMARK SMILES IDX 9 1 10 2 11 3 12 4 30 5 31 6 8 7 3 8 4 9 5 10 7 11 6 12 2 13
REMARK SMILES IDX 1 14 13 15 14 16 29 17 15 18 28 19 23 20 27 21 24 22 26 23
REMARK SMILES IDX 25 24 16 25 17 27 18 28 22 29 19 30 21 31 20 32
REMARK H PARENT 16 26
ROOT
ATOM      1  N   UNL     1       6.623  46.857  54.194  1.00  0.00    -0.365 N 
ATOM      2  C   UNL     1       5.513  47.553  53.508  1.00  0.00     0.138 C 
ATOM      3  C   UNL     1       4.489  46.551  52.931  1.00  0.00     0.141 C 
ATOM      4  N   UNL     1       4.008  45.624  53.974  1.00  0.00    -0.337 N 
ATOM      5  C   UNL     1       5.092  44.921  54.697  1.00  0.00     0.141 C 
ATOM      6  C   UNL     1       6.162  45.905  55.221  1.00  0.00     0.138 C 
ENDROOT
BRANCH   1   7
ATOM      7  C   UNL     1       7.829  46.713  53.514  1.00  0.00     0.079 A 
ATOM      8  C   UNL     1       9.109  47.049  54.010  1.00  0.00     0.142 A 
ATOM      9  C   UNL     1      10.255  46.921  53.203  1.00  0.00     0.048 A 
ATOM     10  C   UNL     1      10.163  46.420  51.907  1.00  0.00     0.004 A 
ATOM     11  C   UNL     1       7.781  46.218  52.191  1.00  0.00     0.030 A 
ATOM     12  C   UNL     1       8.924  46.065  51.401  1.00  0.00     0.002 A 
BRANCH   8  13
ATOM     13  O   UNL     1       9.229  47.540  55.290  1.00  0.00    -0.495 OA
ATOM     14  C   UNL     1      10.568  47.554  55.779  1.00  0.00     0.278 C 
ENDBRANCH   8  13
ENDBRANCH   1   7
BRANCH   4  15
ATOM     15  C   UNL     1       2.977  44.785  53.546  1.00  0.00     0.229 A 
ATOM     16  N   UNL     1       3.267  43.782  52.712  1.00  0.00    -0.193 NA
ATOM     17  N   UNL     1       1.729  45.031  53.952  1.00  0.00    -0.191 NA
ATOM     18  C   UNL     1       2.270  42.992  52.273  1.00  0.00     0.164 A 
ATOM     19  C   UNL     1       0.747  44.248  53.528  1.00  0.00     0.185 A 
ATOM     20  C   UNL     1       0.947  43.170  52.661  1.00  0.00     0.150 A 
ATOM     21  N   UNL     1      -0.489  44.514  53.970  1.00  0.00    -0.233 NA
ATOM     22  N   UNL     1      -0.072  42.358  52.234  1.00  0.00    -0.247 NA
ATOM     23  C   UNL     1      -1.501  43.722  53.549  1.00  0.00     0.133 A 
ATOM     24  C   UNL     1      -1.299  42.661  52.697  1.00  0.00     0.132 A 
BRANCH  18  25
ATOM     25  N   UNL     1       2.532  41.912  51.388  1.00  0.00    -0.338 N 
ATOM     26  H   UNL     1       1.767  41.241  51.398  1.00  0.00     0.168 HD
BRANCH  25  27
ATOM     27  C   UNL     1       3.569  41.636  50.487  1.00  0.00     0.040 A 
ATOM     28  C   UNL     1       3.395  40.942  49.286  1.00  0.00     0.026 A 
ATOM     29  C   UNL     1       4.856  42.117  50.781  1.00  0.00     0.026 A 
ATOM     30  C   UNL     1       4.467  40.718  48.415  1.00  0.00     0.002 A 
ATOM     31  C   UNL     1       5.932  41.899  49.913  1.00  0.00     0.002 A 
ATOM     32  C   UNL     1       5.736  41.198  48.729  1.00  0.00     0.000 A 
ENDBRANCH  25  27
ENDBRANCH  18  25
ENDBRANCH   4  15
TORSDOF 5
ENDMDL
MODEL 2
REMARK VINA RESULT:    -9.884      3.129      7.787
REMARK INTER + INTRA:         -13.275
REMARK INTER:                 -12.646
REMARK INTRA:                  -0.629
REMARK UNBOUND:                -0.502
REMARK SMILES COc1ccccc1N1CCN(c2nc(Nc3ccccc3)c3nccnc3n2)CC1
REMARK SMILES IDX 9 1 10 2 11 3 12 4 30 5 31 6 8 7 3 8 4 9 5 10 7 11 6 12 2 13
REMARK SMILES IDX 1 14 13 15 14 16 29 17 15 18 28 19 23 20 27 21 24 22 26 23
REMARK SMILES IDX 25 24 16 25 17 27 18 28 22 29 19 30 21 31 20 32
REMARK H PARENT 16 26
ROOT
ATOM      1  N   UNL     1       4.678  40.712  48.655  1.00  0.00    -0.365 N 
ATOM      2  C   UNL     1       5.935  41.168  49.286  1.00  0.00     0.138 C 
ATOM      3  C   UNL     1       5.730  42.486  50.064  1.00  0.00     0.141 C 
ATOM      4  N   UNL     1       4.628  42.361  51.039  1.00  0.00    -0.337 N 
ATOM      5  C   UNL     1       3.356  41.888  50.448  1.00  0.00     0.141 C 
ATOM      6  C   UNL     1       3.557  40.607  49.607  1.00  0.00     0.138 C 
ENDROOT
BRANCH   1   7
ATOM      7  C   UNL     1       4.498  40.956  47.296  1.00  0.00     0.079 A 
ATOM      8  C   UNL     1       3.501  40.386  46.473  1.00  0.00     0.142 A 
ATOM      9  C   UNL     1       3.458  40.659  45.093  1.00  0.00     0.048 A 
ATOM     10  C   UNL     1       4.373  41.531  44.509  1.00  0.00     0.004 A 
ATOM     11  C   UNL     1       5.411  41.827  46.660  1.00  0.00     0.030 A 
ATOM     12  C   UNL     1       5.350  42.119  45.295  1.00  0.00     0.002 A 
BRANCH   8  13
ATOM     13  O   UNL     1       2.581  39.525  47.026  1.00  0.00    -0.495 OA
ATOM     14  C   UNL     1       2.838  38.150  46.748  1.00  0.00     0.278 C 
ENDBRANCH   8  13
ENDBRANCH   1   7
BRANCH   4  15
ATOM     15  C   UNL     1       4.486  43.474  51.870  1.00  0.00     0.229 A 
ATOM     16  N   UNL     1       5.348  44.488  51.742  1.00  0.00    -0.193 NA
ATOM     17  N   UNL     1       3.520  43.478  52.791  1.00  0.00    -0.191 NA
ATOM     18  C   UNL     1       5.232  45.548  52.563  1.00  0.00     0.164 A 
ATOM     19  C   UNL     1       3.398  44.525  53.594  1.00  0.00     0.185 A 
ATOM     20  C   UNL     1       4.243  45.637  53.536  1.00  0.00     0.150 A 
ATOM     21  N   UNL     1       2.406  44.501  54.493  1.00  0.00    -0.233 NA
ATOM     22  N   UNL     1       4.106  46.721  54.364  1.00  0.00    -0.247 NA
ATOM     23  C   UNL     1       2.267  45.564  55.318  1.00  0.00     0.133 A 
ATOM     24  C   UNL     1       3.101  46.657  55.256  1.00  0.00     0.132 A 
BRANCH  18  25
ATOM     25  N   UNL     1       6.124  46.649  52.461  1.00  0.00    -0.338 N 
ATOM     26  H   UNL     1       5.655  47.460  52.064  1.00  0.00     0.168 HD
BRANCH  25  27
ATOM     27  C   UNL     1       7.455  46.848  52.851  1.00  0.00     0.040 A 
ATOM     28  C   UNL     1       7.846  47.180  54.151  1.00  0.00     0.026 A 
ATOM     29  C   UNL     1       8.467  46.667  51.893  1.00  0.00     0.026 A 
ATOM     30  C   UNL     1       9.195  47.342  54.484  1.00  0.00     0.002 A 
ATOM     31  C   UNL     1       9.818  46.825  52.220  1.00  0.00     0.002 A 
ATOM     32  C   UNL     1      10.181  47.164  53.518  1.00  0.00     0.000 A 
ENDBRANCH  25  27
ENDBRANCH  18  25
ENDBRANCH   4  15
TORSDOF 5
ENDMDL
MODEL 3
REMARK VINA RESULT:    -9.822      2.958      8.329
REMARK INTER + INTRA:         -13.196
REMARK INTER:                 -12.250
REMARK INTRA:                  -0.945
REMARK UNBOUND:                -0.502
REMARK SMILES COc1ccccc1N1CCN(c2nc(Nc3ccccc3)c3nccnc3n2)CC1
REMARK SMILES IDX 9 1 10 2 11 3 12 4 30 5 31 6 8 7 3 8 4 9 5 10 7 11 6 12 2 13
REMARK SMILES IDX 1 14 13 15 14 16 29 17 15 18 28 19 23 20 27 21 24 22 26 23
REMARK SMILES IDX 25 24 16 25 17 27 18 28 22 29 19 30 21 31 20 32
REMARK H PARENT 16 26
ROOT
ATOM      1  N   UNL     1      -0.231  44.241  54.149  1.00  0.00    -0.365 N 
ATOM      2  C   UNL     1       0.339  42.894  53.927  1.00  0.00     0.138 C 
ATOM      3  C   UNL     1       1.482  42.930  52.889  1.00  0.00     0.141 C 
ATOM      4  N   UNL     1       2.511  43.917  53.266  1.00  0.00    -0.337 N 
ATOM      5  C   UNL     1       1.976  45.275  53.515  1.00  0.00     0.141 C 
ATOM      6  C   UNL     1       0.786  45.249  54.500  1.00  0.00     0.138 C 
ENDROOT
BRANCH   1   7
ATOM      7  C   UNL     1      -1.429  44.560  53.515  1.00  0.00     0.079 A 
ATOM      8  C   UNL     1      -2.722  44.172  53.933  1.00  0.00     0.142 A 
ATOM      9  C   UNL     1      -3.859  44.500  53.172  1.00  0.00     0.048 A 
ATOM     10  C   UNL     1      -3.744  45.253  52.007  1.00  0.00     0.004 A 
ATOM     11  C   UNL     1      -1.358  45.314  52.322  1.00  0.00     0.030 A 
ATOM     12  C   UNL     1      -2.491  45.664  51.582  1.00  0.00     0.002 A 
BRANCH   8  13
ATOM     13  O   UNL     1      -2.863  43.432  55.085  1.00  0.00    -0.495 OA
ATOM     14  C   UNL     1      -3.263  44.201  56.218  1.00  0.00     0.278 C 
ENDBRANCH   8  13
ENDBRANCH   1   7
BRANCH   4  15
ATOM     15  C   UNL     1       3.638  43.896  52.441  1.00  0.00     0.229 A 
ATOM     16  N   UNL     1       4.432  44.970  52.408  1.00  0.00    -0.193 NA
ATOM     17  N   UNL     1       3.868  42.821  51.684  1.00  0.00    -0.191 NA
ATOM     18  C   UNL     1       5.501  44.964  51.590  1.00  0.00     0.164 A 
ATOM     19  C   UNL     1       4.925  42.809  50.885  1.00  0.00     0.185 A 
ATOM     20  C   UNL     1       5.819  43.879  50.782  1.00  0.00     0.150 A 
ATOM     21  N   UNL     1       5.134  41.707  50.153  1.00  0.00    -0.233 NA
ATOM     22  N   UNL     1       6.917  43.856  49.960  1.00  0.00    -0.247 NA
ATOM     23  C   UNL     1       6.210  41.679  49.335  1.00  0.00     0.133 A 
ATOM     24  C   UNL     1       7.088  42.734  49.239  1.00  0.00     0.132 A 
BRANCH  18  25
ATOM     25  N   UNL     1       6.375  46.083  51.524  1.00  0.00    -0.338 N 
ATOM     26  H   UNL     1       6.079  46.731  50.798  1.00  0.00     0.168 HD
BRANCH  25  27
ATOM     27  C   UNL     1       7.483  46.483  52.281  1.00  0.00     0.040 A 
ATOM     28  C   UNL     1       7.416  46.853  53.627  1.00  0.00     0.026 A 
ATOM     29  C   UNL     1       8.749  46.477  51.669  1.00  0.00     0.026 A 
ATOM     30  C   UNL     1       8.565  47.222  54.336  1.00  0.00     0.002 A 
ATOM     31  C   UNL     1       9.901  46.841  52.374  1.00  0.00     0.002 A 
ATOM     32  C   UNL     1       9.808  47.215  53.709  1.00  0.00     0.000 A 
ENDBRANCH  25  27
ENDBRANCH  18  25
ENDBRANCH   4  15
TORSDOF 5
ENDMDL
MODEL 4
REMARK VINA RESULT:    -9.480      2.671      7.698
REMARK INTER + INTRA:         -12.753
REMARK INTER:                 -12.441
REMARK INTRA:                  -0.312
REMARK UNBOUND:                -0.502
REMARK SMILES COc1ccccc1N1CCN(c2nc(Nc3ccccc3)c3nccnc3n2)CC1
REMARK SMILES IDX 9 1 10 2 11 3 12 4 30 5 31 6 8 7 3 8 4 9 5 10 7 11 6 12 2 13
REMARK SMILES IDX 1 14 13 15 14 16 29 17 15 18 28 19 23 20 27 21 24 22 26 23
REMARK SMILES IDX 25 24 16 25 17 27 18 28 22 29 19 30 21 31 20 32
REMARK H PARENT 16 26
ROOT
ATOM      1  N   UNL     1       0.343  44.221  53.421  1.00  0.00    -0.365 N 
ATOM      2  C   UNL     1       0.514  45.211  52.336  1.00  0.00     0.138 C 
ATOM      3  C   UNL     1       2.006  45.465  52.033  1.00  0.00     0.141 C 
ATOM      4  N   UNL     1       2.714  44.201  51.753  1.00  0.00    -0.337 N 
ATOM      5  C   UNL     1       2.552  43.176  52.810  1.00  0.00     0.141 C 
ATOM      6  C   UNL     1       1.065  42.960  53.173  1.00  0.00     0.138 C 
ENDROOT
BRANCH   1   7
ATOM      7  C   UNL     1       0.054  44.691  54.700  1.00  0.00     0.079 A 
ATOM      8  C   UNL     1       0.995  44.966  55.717  1.00  0.00     0.142 A 
ATOM      9  C   UNL     1       0.578  45.376  56.997  1.00  0.00     0.048 A 
ATOM     10  C   UNL     1      -0.772  45.562  57.283  1.00  0.00     0.004 A 
ATOM     11  C   UNL     1      -1.305  44.884  55.035  1.00  0.00     0.030 A 
ATOM     12  C   UNL     1      -1.716  45.319  56.299  1.00  0.00     0.002 A 
BRANCH   8  13
ATOM     13  O   UNL     1       2.336  44.796  55.459  1.00  0.00    -0.495 OA
ATOM     14  C   UNL     1       3.100  45.995  55.568  1.00  0.00     0.278 C 
ENDBRANCH   8  13
ENDBRANCH   1   7
BRANCH   4  15
ATOM     15  C   UNL     1       4.035  44.378  51.336  1.00  0.00     0.229 A 
ATOM     16  N   UNL     1       4.711  45.444  51.773  1.00  0.00    -0.193 NA
ATOM     17  N   UNL     1       4.571  43.500  50.485  1.00  0.00    -0.191 NA
ATOM     18  C   UNL     1       5.974  45.634  51.348  1.00  0.00     0.164 A 
ATOM     19  C   UNL     1       5.817  43.680  50.073  1.00  0.00     0.185 A 
ATOM     20  C   UNL     1       6.609  44.758  50.476  1.00  0.00     0.150 A 
ATOM     21  N   UNL     1       6.327  42.768  49.233  1.00  0.00    -0.233 NA
ATOM     22  N   UNL     1       7.902  44.933  50.052  1.00  0.00    -0.247 NA
ATOM     23  C   UNL     1       7.599  42.937  48.805  1.00  0.00     0.133 A 
ATOM     24  C   UNL     1       8.375  43.999  49.207  1.00  0.00     0.132 A 
BRANCH  18  25
ATOM     25  N   UNL     1       6.731  46.752  51.789  1.00  0.00    -0.338 N 
ATOM     26  H   UNL     1       6.317  47.622  51.462  1.00  0.00     0.168 HD
BRANCH  25  27
ATOM     27  C   UNL     1       7.857  46.887  52.612  1.00  0.00     0.040 A 
ATOM     28  C   UNL     1       9.165  46.627  52.194  1.00  0.00     0.026 A 
ATOM     29  C   UNL     1       7.674  47.350  53.926  1.00  0.00     0.026 A 
ATOM     30  C   UNL     1      10.252  46.804  53.057  1.00  0.00     0.002 A 
ATOM     31  C   UNL     1       8.756  47.532  54.794  1.00  0.00     0.002 A 
ATOM     32  C   UNL     1      10.047  47.258  54.357  1.00  0.00     0.000 A 
ENDBRANCH  25  27
ENDBRANCH  18  25
ENDBRANCH   4  15
TORSDOF 5
ENDMDL
MODEL 5
REMARK VINA RESULT:    -9.292      3.184      7.976
REMARK INTER + INTRA:         -12.510
REMARK INTER:                 -11.641
REMARK INTRA:                  -0.869
REMARK UNBOUND:                -0.502
REMARK SMILES COc1ccccc1N1CCN(c2nc(Nc3ccccc3)c3nccnc3n2)CC1
REMARK SMILES IDX 9 1 10 2 11 3 12 4 30 5 31 6 8 7 3 8 4 9 5 10 7 11 6 12 2 13
REMARK SMILES IDX 1 14 13 15 14 16 29 17 15 18 28 19 23 20 27 21 24 22 26 23
REMARK SMILES IDX 25 24 16 25 17 27 18 28 22 29 19 30 21 31 20 32
REMARK H PARENT 16 26
ROOT
ATOM      1  N   UNL     1      -0.452  44.184  53.915  1.00  0.00    -0.365 N 
ATOM      2  C   UNL     1      -0.275  44.977  52.679  1.00  0.00     0.138 C 
ATOM      3  C   UNL     1       1.212  45.064  52.272  1.00  0.00     0.141 C 
ATOM      4  N   UNL     1       1.812  43.720  52.165  1.00  0.00    -0.337 N 
ATOM      5  C   UNL     1       1.640  42.888  53.377  1.00  0.00     0.141 C 
ATOM      6  C   UNL     1       0.165  42.847  53.838  1.00  0.00     0.138 C 
ENDROOT
BRANCH   1   7
ATOM      7  C   UNL     1      -0.634  44.868  55.114  1.00  0.00     0.079 A 
ATOM      8  C   UNL     1      -1.871  45.290  55.651  1.00  0.00     0.142 A 
ATOM      9  C   UNL     1      -1.927  46.034  56.844  1.00  0.00     0.048 A 
ATOM     10  C   UNL     1      -0.766  46.340  57.549  1.00  0.00     0.004 A 
ATOM     11  C   UNL     1       0.518  45.207  55.856  1.00  0.00     0.030 A 
ATOM     12  C   UNL     1       0.460  45.923  57.056  1.00  0.00     0.002 A 
BRANCH   8  13
ATOM     13  O   UNL     1      -3.035  44.995  54.977  1.00  0.00    -0.495 OA
ATOM     14  C   UNL     1      -3.655  46.130  54.376  1.00  0.00     0.278 C 
ENDBRANCH   8  13
ENDBRANCH   1   7
BRANCH   4  15
ATOM     15  C   UNL     1       3.117  43.726  51.665  1.00  0.00     0.229 A 
ATOM     16  N   UNL     1       3.823  44.859  51.725  1.00  0.00    -0.193 NA
ATOM     17  N   UNL     1       3.605  42.615  51.111  1.00  0.00    -0.191 NA
ATOM     18  C   UNL     1       5.069  44.877  51.216  1.00  0.00     0.164 A 
ATOM     19  C   UNL     1       4.835  42.627  50.617  1.00  0.00     0.185 A 
ATOM     20  C   UNL     1       5.657  43.758  50.636  1.00  0.00     0.150 A 
ATOM     21  N   UNL     1       5.298  41.489  50.084  1.00  0.00    -0.233 NA
ATOM     22  N   UNL     1       6.932  43.762  50.132  1.00  0.00    -0.247 NA
ATOM     23  C   UNL     1       6.552  41.485  49.579  1.00  0.00     0.133 A 
ATOM     24  C   UNL     1       7.358  42.601  49.602  1.00  0.00     0.132 A 
BRANCH  18  25
ATOM     25  N   UNL     1       5.858  46.058  51.259  1.00  0.00    -0.338 N 
ATOM     26  H   UNL     1       5.478  46.770  50.640  1.00  0.00     0.168 HD
BRANCH  25  27
ATOM     27  C   UNL     1       6.975  46.441  52.012  1.00  0.00     0.040 A 
ATOM     28  C   UNL     1       8.217  46.760  51.457  1.00  0.00     0.026 A 
ATOM     29  C   UNL     1       6.837  46.552  53.406  1.00  0.00     0.026 A 
ATOM     30  C   UNL     1       9.291  47.160  52.262  1.00  0.00     0.002 A 
ATOM     31  C   UNL     1       7.905  46.953  54.216  1.00  0.00     0.002 A 
ATOM     32  C   UNL     1       9.134  47.257  53.641  1.00  0.00     0.000 A 
ENDBRANCH  25  27
ENDBRANCH  18  25
ENDBRANCH   4  15
TORSDOF 5
ENDMDL
MODEL 6
REMARK VINA RESULT:    -9.044      2.469      4.138
REMARK INTER + INTRA:         -12.189
REMARK INTER:                 -11.224
REMARK INTRA:                  -0.966
REMARK UNBOUND:                -0.502
REMARK SMILES COc1ccccc1N1CCN(c2nc(Nc3ccccc3)c3nccnc3n2)CC1
REMARK SMILES IDX 9 1 10 2 11 3 12 4 30 5 31 6 8 7 3 8 4 9 5 10 7 11 6 12 2 13
REMARK SMILES IDX 1 14 13 15 14 16 29 17 15 18 28 19 23 20 27 21 24 22 26 23
REMARK SMILES IDX 25 24 16 25 17 27 18 28 22 29 19 30 21 31 20 32
REMARK H PARENT 16 26
ROOT
ATOM      1  N   UNL     1       5.437  46.759  53.737  1.00  0.00    -0.365 N 
ATOM      2  C   UNL     1       4.265  47.616  53.456  1.00  0.00     0.138 C 
ATOM      3  C   UNL     1       2.958  46.795  53.434  1.00  0.00     0.141 C 
ATOM      4  N   UNL     1       2.797  46.019  54.679  1.00  0.00    -0.337 N 
ATOM      5  C   UNL     1       3.959  45.161  55.005  1.00  0.00     0.141 C 
ATOM      6  C   UNL     1       5.285  45.955  54.963  1.00  0.00     0.138 C 
ENDROOT
BRANCH   1   7
ATOM      7  C   UNL     1       6.237  46.367  52.667  1.00  0.00     0.079 A 
ATOM      8  C   UNL     1       7.479  46.935  52.304  1.00  0.00     0.142 A 
ATOM      9  C   UNL     1       8.168  46.498  51.158  1.00  0.00     0.048 A 
ATOM     10  C   UNL     1       7.665  45.463  50.374  1.00  0.00     0.004 A 
ATOM     11  C   UNL     1       5.759  45.327  51.838  1.00  0.00     0.030 A 
ATOM     12  C   UNL     1       6.459  44.874  50.716  1.00  0.00     0.002 A 
BRANCH   8  13
ATOM     13  O   UNL     1       8.002  47.955  53.066  1.00  0.00    -0.495 OA
ATOM     14  C   UNL     1       9.218  47.614  53.728  1.00  0.00     0.278 C 
ENDBRANCH   8  13
ENDBRANCH   1   7
BRANCH   4  15
ATOM     15  C   UNL     1       1.567  45.365  54.777  1.00  0.00     0.229 A 
ATOM     16  N   UNL     1       1.082  44.739  53.701  1.00  0.00    -0.193 NA
ATOM     17  N   UNL     1       0.895  45.416  55.929  1.00  0.00    -0.191 NA
ATOM     18  C   UNL     1      -0.117  44.135  53.784  1.00  0.00     0.164 A 
ATOM     19  C   UNL     1      -0.282  44.813  56.016  1.00  0.00     0.185 A 
ATOM     20  C   UNL     1      -0.872  44.127  54.951  1.00  0.00     0.150 A 
ATOM     21  N   UNL     1      -0.919  44.870  57.194  1.00  0.00    -0.233 NA
ATOM     22  N   UNL     1      -2.087  43.498  55.051  1.00  0.00    -0.247 NA
ATOM     23  C   UNL     1      -2.120  44.258  57.299  1.00  0.00     0.133 A 
ATOM     24  C   UNL     1      -2.696  43.582  56.247  1.00  0.00     0.132 A 
BRANCH  18  25
ATOM     25  N   UNL     1      -0.671  43.455  52.666  1.00  0.00    -0.338 N 
ATOM     26  H   UNL     1      -0.505  42.453  52.733  1.00  0.00     0.168 HD
BRANCH  25  27
ATOM     27  C   UNL     1      -1.429  43.872  51.565  1.00  0.00     0.040 A 
ATOM     28  C   UNL     1      -1.687  43.074  50.447  1.00  0.00     0.026 A 
ATOM     29  C   UNL     1      -2.004  45.154  51.596  1.00  0.00     0.026 A 
ATOM     30  C   UNL     1      -2.474  43.540  49.388  1.00  0.00     0.002 A 
ATOM     31  C   UNL     1      -2.795  45.625  50.542  1.00  0.00     0.002 A 
ATOM     32  C   UNL     1      -3.028  44.816  49.436  1.00  0.00     0.000 A 
ENDBRANCH  25  27
ENDBRANCH  18  25
ENDBRANCH   4  15
TORSDOF 5
ENDMDL
MODEL 7
REMARK VINA RESULT:    -8.893      2.610      4.976
REMARK INTER + INTRA:         -11.995
REMARK INTER:                 -11.065
REMARK INTRA:                  -0.930
REMARK UNBOUND:                -0.502
REMARK SMILES COc1ccccc1N1CCN(c2nc(Nc3ccccc3)c3nccnc3n2)CC1
REMARK SMILES IDX 9 1 10 2 11 3 12 4 30 5 31 6 8 7 3 8 4 9 5 10 7 11 6 12 2 13
REMARK SMILES IDX 1 14 13 15 14 16 29 17 15 18 28 19 23 20 27 21 24 22 26 23
REMARK SMILES IDX 25 24 16 25 17 27 18 28 22 29 19 30 21 31 20 32
REMARK H PARENT 16 26
ROOT
ATOM      1  N   UNL     1       5.806  45.361  51.081  1.00  0.00    -0.365 N 
ATOM      2  C   UNL     1       5.446  44.029  51.612  1.00  0.00     0.138 C 
ATOM      3  C   UNL     1       4.280  44.120  52.621  1.00  0.00     0.141 C 
ATOM      4  N   UNL     1       3.121  44.819  52.032  1.00  0.00    -0.337 N 
ATOM      5  C   UNL     1       3.446  46.150  51.473  1.00  0.00     0.141 C 
ATOM      6  C   UNL     1       4.655  46.088  50.512  1.00  0.00     0.138 C 
ENDROOT
BRANCH   1   7
ATOM      7  C   UNL     1       6.919  46.003  51.616  1.00  0.00     0.079 A 
ATOM      8  C   UNL     1       6.910  46.942  52.673  1.00  0.00     0.142 A 
ATOM      9  C   UNL     1       8.096  47.577  53.087  1.00  0.00     0.048 A 
ATOM     10  C   UNL     1       9.316  47.267  52.494  1.00  0.00     0.004 A 
ATOM     11  C   UNL     1       8.177  45.726  51.036  1.00  0.00     0.030 A 
ATOM     12  C   UNL     1       9.358  46.337  51.468  1.00  0.00     0.002 A 
BRANCH   8  13
ATOM     13  O   UNL     1       5.718  47.261  53.280  1.00  0.00    -0.495 OA
ATOM     14  C   UNL     1       5.631  46.835  54.639  1.00  0.00     0.278 C 
ENDBRANCH   8  13
ENDBRANCH   1   7
BRANCH   4  15
ATOM     15  C   UNL     1       1.987  44.809  52.848  1.00  0.00     0.229 A 
ATOM     16  N   UNL     1       0.786  44.675  52.279  1.00  0.00    -0.193 NA
ATOM     17  N   UNL     1       2.134  44.971  54.165  1.00  0.00    -0.191 NA
ATOM     18  C   UNL     1      -0.310  44.696  53.059  1.00  0.00     0.164 A 
ATOM     19  C   UNL     1       1.056  44.983  54.936  1.00  0.00     0.185 A 
ATOM     20  C   UNL     1      -0.243  44.844  54.440  1.00  0.00     0.150 A 
ATOM     21  N   UNL     1       1.243  45.131  56.255  1.00  0.00    -0.233 NA
ATOM     22  N   UNL     1      -1.353  44.849  55.245  1.00  0.00    -0.247 NA
ATOM     23  C   UNL     1       0.153  45.142  57.055  1.00  0.00     0.133 A 
ATOM     24  C   UNL     1      -1.124  45.003  56.562  1.00  0.00     0.132 A 
BRANCH  18  25
ATOM     25  N   UNL     1      -1.608  44.554  52.498  1.00  0.00    -0.338 N 
ATOM     26  H   UNL     1      -2.122  43.808  52.960  1.00  0.00     0.168 HD
BRANCH  25  27
ATOM     27  C   UNL     1      -2.314  45.261  51.516  1.00  0.00     0.040 A 
ATOM     28  C   UNL     1      -2.431  44.843  50.188  1.00  0.00     0.026 A 
ATOM     29  C   UNL     1      -2.981  46.440  51.889  1.00  0.00     0.026 A 
ATOM     30  C   UNL     1      -3.172  45.581  49.257  1.00  0.00     0.002 A 
ATOM     31  C   UNL     1      -3.726  47.181  50.966  1.00  0.00     0.002 A 
ATOM     32  C   UNL     1      -3.820  46.750  49.647  1.00  0.00     0.000 A 
ENDBRANCH  25  27
ENDBRANCH  18  25
ENDBRANCH   4  15
TORSDOF 5
ENDMDL
MODEL 8
REMARK VINA RESULT:    -8.852      2.557      5.747
REMARK INTER + INTRA:         -11.942
REMARK INTER:                 -11.152
REMARK INTRA:                  -0.790
REMARK UNBOUND:                -0.502
REMARK SMILES COc1ccccc1N1CCN(c2nc(Nc3ccccc3)c3nccnc3n2)CC1
REMARK SMILES IDX 9 1 10 2 11 3 12 4 30 5 31 6 8 7 3 8 4 9 5 10 7 11 6 12 2 13
REMARK SMILES IDX 1 14 13 15 14 16 29 17 15 18 28 19 23 20 27 21 24 22 26 23
REMARK SMILES IDX 25 24 16 25 17 27 18 28 22 29 19 30 21 31 20 32
REMARK H PARENT 16 26
ROOT
ATOM      1  N   UNL     1       6.310  46.473  54.554  1.00  0.00    -0.365 N 
ATOM      2  C   UNL     1       5.205  47.456  54.591  1.00  0.00     0.138 C 
ATOM      3  C   UNL     1       3.908  46.870  53.993  1.00  0.00     0.141 C 
ATOM      4  N   UNL     1       3.547  45.598  54.650  1.00  0.00    -0.337 N 
ATOM      5  C   UNL     1       4.635  44.594  54.649  1.00  0.00     0.141 C 
ATOM      6  C   UNL     1       5.960  45.185  55.182  1.00  0.00     0.138 C 
ENDROOT
BRANCH   1   7
ATOM      7  C   UNL     1       7.261  46.591  53.544  1.00  0.00     0.079 A 
ATOM      8  C   UNL     1       7.068  46.280  52.179  1.00  0.00     0.142 A 
ATOM      9  C   UNL     1       8.127  46.378  51.258  1.00  0.00     0.048 A 
ATOM     10  C   UNL     1       9.383  46.824  51.659  1.00  0.00     0.004 A 
ATOM     11  C   UNL     1       8.553  47.030  53.909  1.00  0.00     0.030 A 
ATOM     12  C   UNL     1       9.597  47.154  52.987  1.00  0.00     0.002 A 
BRANCH   8  13
ATOM     13  O   UNL     1       5.834  45.843  51.755  1.00  0.00    -0.495 OA
ATOM     14  C   UNL     1       5.870  44.595  51.066  1.00  0.00     0.278 C 
ENDBRANCH   8  13
ENDBRANCH   1   7
BRANCH   4  15
ATOM     15  C   UNL     1       2.309  45.091  54.249  1.00  0.00     0.229 A 
ATOM     16  N   UNL     1       1.355  44.919  55.168  1.00  0.00    -0.193 NA
ATOM     17  N   UNL     1       2.127  44.761  52.968  1.00  0.00    -0.191 NA
ATOM     18  C   UNL     1       0.172  44.402  54.789  1.00  0.00     0.164 A 
ATOM     19  C   UNL     1       0.959  44.260  52.591  1.00  0.00     0.185 A 
ATOM     20  C   UNL     1      -0.103  44.047  53.474  1.00  0.00     0.150 A 
ATOM     21  N   UNL     1       0.808  43.956  51.295  1.00  0.00    -0.233 NA
ATOM     22  N   UNL     1      -1.312  43.536  53.075  1.00  0.00    -0.247 NA
ATOM     23  C   UNL     1      -0.379  43.447  50.895  1.00  0.00     0.133 A 
ATOM     24  C   UNL     1      -1.423  43.240  51.767  1.00  0.00     0.132 A 
BRANCH  18  25
ATOM     25  N   UNL     1      -0.873  44.203  55.732  1.00  0.00    -0.338 N 
ATOM     26  H   UNL     1      -1.128  43.220  55.787  1.00  0.00     0.168 HD
BRANCH  25  27
ATOM     27  C   UNL     1      -1.546  45.056  56.616  1.00  0.00     0.040 A 
ATOM     28  C   UNL     1      -1.127  46.355  56.917  1.00  0.00     0.026 A 
ATOM     29  C   UNL     1      -2.736  44.602  57.209  1.00  0.00     0.026 A 
ATOM     30  C   UNL     1      -1.856  47.168  57.792  1.00  0.00     0.002 A 
ATOM     31  C   UNL     1      -3.472  45.411  58.081  1.00  0.00     0.002 A 
ATOM     32  C   UNL     1      -3.030  46.696  58.373  1.00  0.00     0.000 A 
ENDBRANCH  25  27
ENDBRANCH  18  25
ENDBRANCH   4  15
TORSDOF 5
ENDMDL
MODEL 9
REMARK VINA RESULT:    -8.765      2.399      5.218
REMARK INTER + INTRA:         -11.829
REMARK INTER:                 -10.815
REMARK INTRA:                  -1.015
REMARK UNBOUND:                -0.502
REMARK SMILES COc1ccccc1N1CCN(c2nc(Nc3ccccc3)c3nccnc3n2)CC1
REMARK SMILES IDX 9 1 10 2 11 3 12 4 30 5 31 6 8 7 3 8 4 9 5 10 7 11 6 12 2 13
REMARK SMILES IDX 1 14 13 15 14 16 29 17 15 18 28 19 23 20 27 21 24 22 26 23
REMARK SMILES IDX 25 24 16 25 17 27 18 28 22 29 19 30 21 31 20 32
REMARK H PARENT 16 26
ROOT
ATOM      1  N   UNL     1       6.053  45.299  51.118  1.00  0.00    -0.365 N 
ATOM      2  C   UNL     1       5.771  43.851  51.226  1.00  0.00     0.138 C 
ATOM      3  C   UNL     1       4.407  43.591  51.901  1.00  0.00     0.141 C 
ATOM      4  N   UNL     1       3.325  44.321  51.212  1.00  0.00    -0.337 N 
ATOM      5  C   UNL     1       3.579  45.772  51.069  1.00  0.00     0.141 C 
ATOM      6  C   UNL     1       4.971  46.051  50.457  1.00  0.00     0.138 C 
ENDROOT
BRANCH   1   7
ATOM      7  C   UNL     1       6.916  45.871  52.049  1.00  0.00     0.079 A 
ATOM      8  C   UNL     1       6.591  46.226  53.377  1.00  0.00     0.142 A 
ATOM      9  C   UNL     1       7.532  46.861  54.208  1.00  0.00     0.048 A 
ATOM     10  C   UNL     1       8.824  47.119  53.757  1.00  0.00     0.004 A 
ATOM     11  C   UNL     1       8.234  46.160  51.629  1.00  0.00     0.030 A 
ATOM     12  C   UNL     1       9.177  46.765  52.465  1.00  0.00     0.002 A 
BRANCH   8  13
ATOM     13  O   UNL     1       5.323  45.976  53.851  1.00  0.00    -0.495 OA
ATOM     14  C   UNL     1       4.752  47.066  54.571  1.00  0.00     0.278 C 
ENDBRANCH   8  13
ENDBRANCH   1   7
BRANCH   4  15
ATOM     15  C   UNL     1       2.049  44.015  51.691  1.00  0.00     0.229 A 
ATOM     16  N   UNL     1       1.831  44.041  53.009  1.00  0.00    -0.193 NA
ATOM     17  N   UNL     1       1.095  43.671  50.822  1.00  0.00    -0.191 NA
ATOM     18  C   UNL     1       0.612  43.717  53.474  1.00  0.00     0.164 A 
ATOM     19  C   UNL     1      -0.110  43.360  51.278  1.00  0.00     0.185 A 
ATOM     20  C   UNL     1      -0.440  43.363  52.636  1.00  0.00     0.150 A 
ATOM     21  N   UNL     1      -1.046  43.037  50.376  1.00  0.00    -0.233 NA
ATOM     22  N   UNL     1      -1.692  43.049  53.100  1.00  0.00    -0.247 NA
ATOM     23  C   UNL     1      -2.281  42.720  50.825  1.00  0.00     0.133 A 
ATOM     24  C   UNL     1      -2.602  42.726  52.163  1.00  0.00     0.132 A 
BRANCH  18  25
ATOM     25  N   UNL     1       0.334  43.733  54.868  1.00  0.00    -0.338 N 
ATOM     26  H   UNL     1       0.465  42.810  55.274  1.00  0.00     0.168 HD
BRANCH  25  27
ATOM     27  C   UNL     1      -0.005  44.750  55.769  1.00  0.00     0.040 A 
ATOM     28  C   UNL     1      -1.299  45.257  55.922  1.00  0.00     0.026 A 
ATOM     29  C   UNL     1       1.000  45.270  56.602  1.00  0.00     0.026 A 
ATOM     30  C   UNL     1      -1.580  46.259  56.858  1.00  0.00     0.002 A 
ATOM     31  C   UNL     1       0.725  46.269  57.542  1.00  0.00     0.002 A 
ATOM     32  C   UNL     1      -0.567  46.764  57.669  1.00  0.00     0.000 A 
ENDBRANCH  25  27
ENDBRANCH  18  25
ENDBRANCH   4  15
TORSDOF 5
ENDMDL
MODEL 10
REMARK VINA RESULT:    -8.715      2.698      4.880
REMARK INTER + INTRA:         -11.765
REMARK INTER:                 -10.830
REMARK INTRA:                  -0.935
REMARK UNBOUND:                -0.502
REMARK SMILES COc1ccccc1N1CCN(c2nc(Nc3ccccc3)c3nccnc3n2)CC1
REMARK SMILES IDX 9 1 10 2 11 3 12 4 30 5 31 6 8 7 3 8 4 9 5 10 7 11 6 12 2 13
REMARK SMILES IDX 1 14 13 15 14 16 29 17 15 18 28 19 23 20 27 21 24 22 26 23
REMARK SMILES IDX 25 24 16 25 17 27 18 28 22 29 19 30 21 31 20 32
REMARK H PARENT 16 26
ROOT
ATOM      1  N   UNL     1       5.639  45.575  51.958  1.00  0.00    -0.365 N 
ATOM      2  C   UNL     1       4.473  46.393  51.562  1.00  0.00     0.138 C 
ATOM      3  C   UNL     1       3.144  45.698  51.929  1.00  0.00     0.141 C 
ATOM      4  N   UNL     1       3.112  45.336  53.360  1.00  0.00    -0.337 N 
ATOM      5  C   UNL     1       4.274  44.530  53.799  1.00  0.00     0.141 C 
ATOM      6  C   UNL     1       5.612  45.179  53.378  1.00  0.00     0.138 C 
ENDROOT
BRANCH   1   7
ATOM      7  C   UNL     1       6.283  44.829  50.974  1.00  0.00     0.079 A 
ATOM      8  C   UNL     1       5.842  43.596  50.443  1.00  0.00     0.142 A 
ATOM      9  C   UNL     1       6.613  42.899  49.494  1.00  0.00     0.048 A 
ATOM     10  C   UNL     1       7.812  43.426  49.023  1.00  0.00     0.004 A 
ATOM     11  C   UNL     1       7.509  45.322  50.475  1.00  0.00     0.030 A 
ATOM     12  C   UNL     1       8.260  44.642  49.512  1.00  0.00     0.002 A 
BRANCH   8  13
ATOM     13  O   UNL     1       4.656  43.056  50.886  1.00  0.00    -0.495 OA
ATOM     14  C   UNL     1       4.609  41.633  50.815  1.00  0.00     0.278 C 
ENDBRANCH   8  13
ENDBRANCH   1   7
BRANCH   4  15
ATOM     15  C   UNL     1       1.881  44.830  53.783  1.00  0.00     0.229 A 
ATOM     16  N   UNL     1       1.225  43.980  52.987  1.00  0.00    -0.193 NA
ATOM     17  N   UNL     1       1.379  45.237  54.951  1.00  0.00    -0.191 NA
ATOM     18  C   UNL     1       0.025  43.516  53.378  1.00  0.00     0.164 A 
ATOM     19  C   UNL     1       0.201  44.773  55.343  1.00  0.00     0.185 A 
ATOM     20  C   UNL     1      -0.560  43.878  54.586  1.00  0.00     0.150 A 
ATOM     21  N   UNL     1      -0.263  45.190  56.528  1.00  0.00    -0.233 NA
ATOM     22  N   UNL     1      -1.775  43.395  55.002  1.00  0.00    -0.247 NA
ATOM     23  C   UNL     1      -1.463  44.724  56.943  1.00  0.00     0.133 A 
ATOM     24  C   UNL     1      -2.207  43.841  56.195  1.00  0.00     0.132 A 
BRANCH  18  25
ATOM     25  N   UNL     1      -0.707  42.609  52.565  1.00  0.00    -0.338 N 
ATOM     26  H   UNL     1      -0.527  41.647  52.843  1.00  0.00     0.168 HD
BRANCH  25  27
ATOM     27  C   UNL     1      -1.644  42.779  51.538  1.00  0.00     0.040 A 
ATOM     28  C   UNL     1      -2.613  41.829  51.201  1.00  0.00     0.026 A 
ATOM     29  C   UNL     1      -1.644  43.990  50.825  1.00  0.00     0.026 A 
ATOM     30  C   UNL     1      -3.539  42.068  50.179  1.00  0.00     0.002 A 
ATOM     31  C   UNL     1      -2.568  44.236  49.804  1.00  0.00     0.002 A 
ATOM     32  C   UNL     1      -3.516  43.272  49.481  1.00  0.00     0.000 A 
ENDBRANCH  25  27
ENDBRANCH  18  25
ENDBRANCH   4  15
TORSDOF 5
ENDMDL
