MODEL 1
REMARK VINA RESULT:   -10.443      0.000      0.000
REMARK INTER + INTRA:         -13.544
REMARK INTER:                 -12.885
REMARK INTRA:                  -0.659
REMARK UNBOUND:                -0.659
REMARK SMILES Cc1ccc(Nc2nc(Nc3cccc(F)c3)nc3nccnc23)cc1C
REMARK SMILES IDX 7 1 8 2 9 3 18 4 19 5 20 6 21 7 22 8 23 9 24 10 6 11 5 13
REMARK SMILES IDX 2 14 3 15 26 16 4 17 25 18 1 19 27 20 10 21 11 23 12 24
REMARK SMILES IDX 17 25 13 26 15 27 14 28 16 29
REMARK H PARENT 6 12 10 22
ROOT
ATOM      1  C   UNL     1       4.738  44.545  51.718  1.00  0.00     0.164 A 
ATOM      2  N   UNL     1       3.703  44.408  52.569  1.00  0.00    -0.193 NA
ATOM      3  C   UNL     1       3.052  43.246  52.592  1.00  0.00     0.231 A 
ATOM      4  N   UNL     1       3.388  42.207  51.828  1.00  0.00    -0.191 NA
ATOM      5  C   UNL     1       4.403  42.347  50.986  1.00  0.00     0.185 A 
ATOM      6  N   UNL     1       4.707  41.293  50.218  1.00  0.00    -0.233 NA
ATOM      7  C   UNL     1       5.734  41.416  49.347  1.00  0.00     0.133 A 
ATOM      8  C   UNL     1       6.459  42.579  49.224  1.00  0.00     0.132 A 
ATOM      9  N   UNL     1       6.182  43.660  49.974  1.00  0.00    -0.247 NA
ATOM     10  C   UNL     1       5.149  43.524  50.866  1.00  0.00     0.150 A 
ENDROOT
BRANCH   1  11
ATOM     11  N   UNL     1       5.493  45.753  51.685  1.00  0.00    -0.338 N 
ATOM     12  H   UNL     1       4.927  46.504  51.298  1.00  0.00     0.168 HD
BRANCH  11  13
ATOM     13  C   UNL     1       6.588  46.179  52.455  1.00  0.00     0.040 A 
ATOM     14  C   UNL     1       8.873  46.990  53.934  1.00  0.00    -0.048 A 
ATOM     15  C   UNL     1       7.589  47.058  54.491  1.00  0.00     0.006 A 
ATOM     16  C   UNL     1       9.022  46.487  52.630  1.00  0.00    -0.046 A 
ATOM     17  C   UNL     1       6.468  46.649  53.762  1.00  0.00     0.026 A 
ATOM     18  C   UNL     1       7.879  46.087  51.911  1.00  0.00     0.029 A 
ATOM     19  C   UNL     1      10.055  47.439  54.747  1.00  0.00     0.044 C 
ATOM     20  C   UNL     1      10.375  46.378  51.981  1.00  0.00     0.044 C 
ENDBRANCH  11  13
ENDBRANCH   1  11
BRANCH   3  21
ATOM     21  N   UNL     1       1.980  43.023  53.451  1.00  0.00    -0.324 N 
ATOM     22  H   UNL     1       1.658  42.072  53.341  1.00  0.00     0.170 HD
BRANCH  21  23
ATOM     23  C   UNL     1       1.218  43.855  54.280  1.00  0.00     0.044 A 
ATOM     24  C   UNL     1      -0.179  43.874  54.107  1.00  0.00     0.026 A 
ATOM     25  C   UNL     1       1.753  44.626  55.315  1.00  0.00     0.065 A 
ATOM     26  C   UNL     1      -1.009  44.647  54.926  1.00  0.00     0.005 A 
ATOM     27  C   UNL     1       0.923  45.393  56.130  1.00  0.00     0.125 A 
ATOM     28  C   UNL     1      -0.453  45.413  55.944  1.00  0.00     0.039 A 
ATOM     29  F   UNL     1       1.461  46.127  57.114  1.00  0.00    -0.207 F 
ENDBRANCH  21  23
ENDBRANCH   3  21
TORSDOF 4
ENDMDL
MODEL 2
REMARK VINA RESULT:   -10.259      1.410      1.746
REMARK INTER + INTRA:         -13.317
REMARK INTER:                 -12.605
REMARK INTRA:                  -0.712
REMARK UNBOUND:                -0.659
REMARK SMILES Cc1ccc(Nc2nc(Nc3cccc(F)c3)nc3nccnc23)cc1C
REMARK SMILES IDX 7 1 8 2 9 3 18 4 19 5 20 6 21 7 22 8 23 9 24 10 6 11 5 13
REMARK SMILES IDX 2 14 3 15 26 16 4 17 25 18 1 19 27 20 10 21 11 23 12 24
REMARK SMILES IDX 17 25 13 26 15 27 14 28 16 29
REMARK H PARENT 6 12 10 22
ROOT
ATOM      1  C   UNL     1       4.772  44.355  51.588  1.00  0.00     0.164 A 
ATOM      2  N   UNL     1       3.784  44.094  52.466  1.00  0.00    -0.193 NA
ATOM      3  C   UNL     1       3.209  42.893  52.435  1.00  0.00     0.231 A 
ATOM      4  N   UNL     1       3.576  41.931  51.589  1.00  0.00    -0.191 NA
ATOM      5  C   UNL     1       4.544  42.192  50.720  1.00  0.00     0.185 A 
ATOM      6  N   UNL     1       4.881  41.214  49.870  1.00  0.00    -0.233 NA
ATOM      7  C   UNL     1       5.859  41.462  48.970  1.00  0.00     0.133 A 
ATOM      8  C   UNL     1       6.504  42.675  48.900  1.00  0.00     0.132 A 
ATOM      9  N   UNL     1       6.192  43.684  49.733  1.00  0.00    -0.247 NA
ATOM     10  C   UNL     1       5.208  43.422  50.653  1.00  0.00     0.150 A 
ENDROOT
BRANCH   1  11
ATOM     11  N   UNL     1       5.447  45.609  51.610  1.00  0.00    -0.338 N 
ATOM     12  H   UNL     1       4.825  46.342  51.279  1.00  0.00     0.168 HD
BRANCH  11  13
ATOM     13  C   UNL     1       6.531  46.061  52.379  1.00  0.00     0.040 A 
ATOM     14  C   UNL     1       8.796  46.928  53.857  1.00  0.00    -0.048 A 
ATOM     15  C   UNL     1       7.515  46.943  54.422  1.00  0.00     0.006 A 
ATOM     16  C   UNL     1       8.954  46.450  52.544  1.00  0.00    -0.046 A 
ATOM     17  C   UNL     1       6.403  46.507  53.694  1.00  0.00     0.026 A 
ATOM     18  C   UNL     1       7.821  46.022  51.826  1.00  0.00     0.029 A 
ATOM     19  C   UNL     1       9.967  47.405  54.669  1.00  0.00     0.044 C 
ATOM     20  C   UNL     1      10.306  46.398  51.886  1.00  0.00     0.044 C 
ENDBRANCH  11  13
ENDBRANCH   1  11
BRANCH   3  21
ATOM     21  N   UNL     1       2.191  42.543  53.317  1.00  0.00    -0.324 N 
ATOM     22  H   UNL     1       2.375  41.623  53.690  1.00  0.00     0.170 HD
BRANCH  21  23
ATOM     23  C   UNL     1       0.963  43.127  53.654  1.00  0.00     0.044 A 
ATOM     24  C   UNL     1       0.947  44.125  54.646  1.00  0.00     0.026 A 
ATOM     25  C   UNL     1      -0.245  42.822  53.021  1.00  0.00     0.065 A 
ATOM     26  C   UNL     1      -0.234  44.782  55.005  1.00  0.00     0.005 A 
ATOM     27  C   UNL     1      -1.419  43.481  53.380  1.00  0.00     0.125 A 
ATOM     28  C   UNL     1      -1.426  44.457  54.367  1.00  0.00     0.039 A 
ATOM     29  F   UNL     1      -2.566  43.168  52.761  1.00  0.00    -0.207 F 
ENDBRANCH  21  23
ENDBRANCH   3  21
TORSDOF 4
ENDMDL
MODEL 3
REMARK VINA RESULT:    -9.982      3.090      5.992
REMARK INTER + INTRA:         -12.975
REMARK INTER:                 -12.256
REMARK INTRA:                  -0.719
REMARK UNBOUND:                -0.659
REMARK SMILES Cc1ccc(Nc2nc(Nc3cccc(F)c3)nc3nccnc23)cc1C
REMARK SMILES IDX 7 1 8 2 9 3 18 4 19 5 20 6 21 7 22 8 23 9 24 10 6 11 5 13
REMARK SMILES IDX 2 14 3 15 26 16 4 17 25 18 1 19 27 20 10 21 11 23 12 24
REMARK SMILES IDX 17 25 13 26 15 27 14 28 16 29
REMARK H PARENT 6 12 10 22
ROOT
ATOM      1  C   UNL     1       4.948  44.519  51.501  1.00  0.00     0.164 A 
ATOM      2  N   UNL     1       5.444  43.652  50.598  1.00  0.00    -0.193 NA
ATOM      3  C   UNL     1       4.821  42.486  50.430  1.00  0.00     0.231 A 
ATOM      4  N   UNL     1       3.720  42.146  51.100  1.00  0.00    -0.191 NA
ATOM      5  C   UNL     1       3.237  42.999  51.994  1.00  0.00     0.185 A 
ATOM      6  N   UNL     1       2.140  42.623  52.663  1.00  0.00    -0.233 NA
ATOM      7  C   UNL     1       1.636  43.473  53.586  1.00  0.00     0.133 A 
ATOM      8  C   UNL     1       2.213  44.693  53.856  1.00  0.00     0.132 A 
ATOM      9  N   UNL     1       3.317  45.105  53.207  1.00  0.00    -0.247 NA
ATOM     10  C   UNL     1       3.816  44.243  52.263  1.00  0.00     0.150 A 
ENDROOT
BRANCH   1  11
ATOM     11  N   UNL     1       5.553  45.796  51.687  1.00  0.00    -0.338 N 
ATOM     12  H   UNL     1       4.861  46.529  51.552  1.00  0.00     0.168 HD
BRANCH  11  13
ATOM     13  C   UNL     1       6.683  46.183  52.425  1.00  0.00     0.040 A 
ATOM     14  C   UNL     1       9.037  46.913  53.837  1.00  0.00    -0.048 A 
ATOM     15  C   UNL     1       7.774  47.024  54.431  1.00  0.00     0.006 A 
ATOM     16  C   UNL     1       9.131  46.408  52.528  1.00  0.00    -0.046 A 
ATOM     17  C   UNL     1       6.618  46.655  53.735  1.00  0.00     0.026 A 
ATOM     18  C   UNL     1       7.954  46.048  51.843  1.00  0.00     0.029 A 
ATOM     19  C   UNL     1      10.257  47.320  54.614  1.00  0.00     0.044 C 
ATOM     20  C   UNL     1      10.459  46.254  51.840  1.00  0.00     0.044 C 
ENDBRANCH  11  13
ENDBRANCH   1  11
BRANCH   3  21
ATOM     21  N   UNL     1       5.266  41.543  49.509  1.00  0.00    -0.324 N 
ATOM     22  H   UNL     1       6.094  41.090  49.870  1.00  0.00     0.170 HD
BRANCH  21  23
ATOM     23  C   UNL     1       4.892  41.223  48.199  1.00  0.00     0.044 A 
ATOM     24  C   UNL     1       3.798  40.357  48.008  1.00  0.00     0.026 A 
ATOM     25  C   UNL     1       5.501  41.759  47.061  1.00  0.00     0.065 A 
ATOM     26  C   UNL     1       3.340  40.027  46.728  1.00  0.00     0.005 A 
ATOM     27  C   UNL     1       5.040  41.428  45.788  1.00  0.00     0.125 A 
ATOM     28  C   UNL     1       3.967  40.566  45.610  1.00  0.00     0.039 A 
ATOM     29  F   UNL     1       5.644  41.952  44.712  1.00  0.00    -0.207 F 
ENDBRANCH  21  23
ENDBRANCH   3  21
TORSDOF 4
ENDMDL
MODEL 4
REMARK VINA RESULT:    -9.915      2.351      7.204
REMARK INTER + INTRA:         -12.892
REMARK INTER:                 -12.309
REMARK INTRA:                  -0.583
REMARK UNBOUND:                -0.659
REMARK SMILES Cc1ccc(Nc2nc(Nc3cccc(F)c3)nc3nccnc23)cc1C
REMARK SMILES IDX 7 1 8 2 9 3 18 4 19 5 20 6 21 7 22 8 23 9 24 10 6 11 5 13
REMARK SMILES IDX 2 14 3 15 26 16 4 17 25 18 1 19 27 20 10 21 11 23 12 24
REMARK SMILES IDX 17 25 13 26 15 27 14 28 16 29
REMARK H PARENT 6 12 10 22
ROOT
ATOM      1  C   UNL     1       4.141  43.172  52.027  1.00  0.00     0.164 A 
ATOM      2  N   UNL     1       4.649  44.336  52.474  1.00  0.00    -0.193 NA
ATOM      3  C   UNL     1       5.639  44.902  51.785  1.00  0.00     0.231 A 
ATOM      4  N   UNL     1       6.137  44.381  50.664  1.00  0.00    -0.191 NA
ATOM      5  C   UNL     1       5.639  43.231  50.229  1.00  0.00     0.185 A 
ATOM      6  N   UNL     1       6.170  42.722  49.110  1.00  0.00    -0.233 NA
ATOM      7  C   UNL     1       5.684  41.546  48.653  1.00  0.00     0.133 A 
ATOM      8  C   UNL     1       4.678  40.864  49.300  1.00  0.00     0.132 A 
ATOM      9  N   UNL     1       4.122  41.341  50.428  1.00  0.00    -0.247 NA
ATOM     10  C   UNL     1       4.610  42.541  50.879  1.00  0.00     0.150 A 
ENDROOT
BRANCH   1  11
ATOM     11  N   UNL     1       3.054  42.548  52.704  1.00  0.00    -0.338 N 
ATOM     12  H   UNL     1       3.403  41.820  53.321  1.00  0.00     0.168 HD
BRANCH  11  13
ATOM     13  C   UNL     1       1.770  43.021  53.022  1.00  0.00     0.040 A 
ATOM     14  C   UNL     1      -0.785  44.013  53.767  1.00  0.00    -0.048 A 
ATOM     15  C   UNL     1      -0.634  43.152  52.672  1.00  0.00     0.006 A 
ATOM     16  C   UNL     1       0.352  44.365  54.516  1.00  0.00    -0.046 A 
ATOM     17  C   UNL     1       0.624  42.659  52.314  1.00  0.00     0.026 A 
ATOM     18  C   UNL     1       1.610  43.862  54.134  1.00  0.00     0.029 A 
ATOM     19  C   UNL     1      -2.153  44.524  54.121  1.00  0.00     0.044 C 
ATOM     20  C   UNL     1       0.254  45.276  55.709  1.00  0.00     0.044 C 
ENDBRANCH  11  13
ENDBRANCH   1  11
BRANCH   3  21
ATOM     21  N   UNL     1       6.208  46.110  52.177  1.00  0.00    -0.324 N 
ATOM     22  H   UNL     1       5.562  46.861  51.983  1.00  0.00     0.170 HD
BRANCH  21  23
ATOM     23  C   UNL     1       7.483  46.475  52.626  1.00  0.00     0.044 A 
ATOM     24  C   UNL     1       7.606  47.017  53.919  1.00  0.00     0.026 A 
ATOM     25  C   UNL     1       8.655  46.277  51.891  1.00  0.00     0.065 A 
ATOM     26  C   UNL     1       8.852  47.366  54.452  1.00  0.00     0.005 A 
ATOM     27  C   UNL     1       9.894  46.624  52.427  1.00  0.00     0.125 A 
ATOM     28  C   UNL     1      10.004  47.168  53.699  1.00  0.00     0.039 A 
ATOM     29  F   UNL     1      11.003  46.428  51.700  1.00  0.00    -0.207 F 
ENDBRANCH  21  23
ENDBRANCH   3  21
TORSDOF 4
ENDMDL
MODEL 5
REMARK VINA RESULT:    -9.765      2.397      5.655
REMARK INTER + INTRA:         -12.707
REMARK INTER:                 -12.263
REMARK INTRA:                  -0.445
REMARK UNBOUND:                -0.659
REMARK SMILES Cc1ccc(Nc2nc(Nc3cccc(F)c3)nc3nccnc23)cc1C
REMARK SMILES IDX 7 1 8 2 9 3 18 4 19 5 20 6 21 7 22 8 23 9 24 10 6 11 5 13
REMARK SMILES IDX 2 14 3 15 26 16 4 17 25 18 1 19 27 20 10 21 11 23 12 24
REMARK SMILES IDX 17 25 13 26 15 27 14 28 16 29
REMARK H PARENT 6 12 10 22
ROOT
ATOM      1  C   UNL     1       3.317  44.701  53.632  1.00  0.00     0.164 A 
ATOM      2  N   UNL     1       3.768  43.744  52.798  1.00  0.00    -0.193 NA
ATOM      3  C   UNL     1       2.955  42.731  52.498  1.00  0.00     0.231 A 
ATOM      4  N   UNL     1       1.712  42.630  52.968  1.00  0.00    -0.191 NA
ATOM      5  C   UNL     1       1.273  43.570  53.794  1.00  0.00     0.185 A 
ATOM      6  N   UNL     1       0.027  43.434  54.265  1.00  0.00    -0.233 NA
ATOM      7  C   UNL     1      -0.438  44.377  55.116  1.00  0.00     0.133 A 
ATOM      8  C   UNL     1       0.325  45.452  55.511  1.00  0.00     0.132 A 
ATOM      9  N   UNL     1       1.582  45.622  55.063  1.00  0.00    -0.247 NA
ATOM     10  C   UNL     1       2.043  44.670  54.190  1.00  0.00     0.150 A 
ENDROOT
BRANCH   1  11
ATOM     11  N   UNL     1       4.132  45.825  53.951  1.00  0.00    -0.338 N 
ATOM     12  H   UNL     1       3.771  46.289  54.780  1.00  0.00     0.168 HD
BRANCH  11  13
ATOM     13  C   UNL     1       5.478  46.103  53.660  1.00  0.00     0.040 A 
ATOM     14  C   UNL     1       8.187  46.604  52.974  1.00  0.00    -0.048 A 
ATOM     15  C   UNL     1       7.715  46.836  54.272  1.00  0.00     0.006 A 
ATOM     16  C   UNL     1       7.302  46.091  52.010  1.00  0.00    -0.046 A 
ATOM     17  C   UNL     1       6.382  46.579  54.608  1.00  0.00     0.026 A 
ATOM     18  C   UNL     1       5.962  45.846  52.368  1.00  0.00     0.029 A 
ATOM     19  C   UNL     1       9.626  46.892  52.649  1.00  0.00     0.044 C 
ATOM     20  C   UNL     1       7.751  45.810  50.602  1.00  0.00     0.044 C 
ENDBRANCH  11  13
ENDBRANCH   1  11
BRANCH   3  21
ATOM     21  N   UNL     1       3.343  41.710  51.635  1.00  0.00    -0.324 N 
ATOM     22  H   UNL     1       3.006  40.827  51.992  1.00  0.00     0.170 HD
BRANCH  21  23
ATOM     23  C   UNL     1       4.182  41.659  50.516  1.00  0.00     0.044 A 
ATOM     24  C   UNL     1       3.784  40.872  49.418  1.00  0.00     0.026 A 
ATOM     25  C   UNL     1       5.365  42.392  50.393  1.00  0.00     0.065 A 
ATOM     26  C   UNL     1       4.550  40.806  48.249  1.00  0.00     0.005 A 
ATOM     27  C   UNL     1       6.123  42.325  49.226  1.00  0.00     0.125 A 
ATOM     28  C   UNL     1       5.728  41.538  48.153  1.00  0.00     0.039 A 
ATOM     29  F   UNL     1       7.257  43.035  49.134  1.00  0.00    -0.207 F 
ENDBRANCH  21  23
ENDBRANCH   3  21
TORSDOF 4
ENDMDL
MODEL 6
REMARK VINA RESULT:    -9.696      2.304      7.076
REMARK INTER + INTRA:         -12.623
REMARK INTER:                 -12.442
REMARK INTRA:                  -0.181
REMARK UNBOUND:                -0.659
REMARK SMILES Cc1ccc(Nc2nc(Nc3cccc(F)c3)nc3nccnc23)cc1C
REMARK SMILES IDX 7 1 8 2 9 3 18 4 19 5 20 6 21 7 22 8 23 9 24 10 6 11 5 13
REMARK SMILES IDX 2 14 3 15 26 16 4 17 25 18 1 19 27 20 10 21 11 23 12 24
REMARK SMILES IDX 17 25 13 26 15 27 14 28 16 29
REMARK H PARENT 6 12 10 22
ROOT
ATOM      1  C   UNL     1       3.764  43.808  52.409  1.00  0.00     0.164 A 
ATOM      2  N   UNL     1       4.408  44.945  52.735  1.00  0.00    -0.193 NA
ATOM      3  C   UNL     1       5.524  45.253  52.075  1.00  0.00     0.231 A 
ATOM      4  N   UNL     1       6.022  44.500  51.095  1.00  0.00    -0.191 NA
ATOM      5  C   UNL     1       5.390  43.377  50.780  1.00  0.00     0.185 A 
ATOM      6  N   UNL     1       5.923  42.631  49.803  1.00  0.00    -0.233 NA
ATOM      7  C   UNL     1       5.300  41.478  49.472  1.00  0.00     0.133 A 
ATOM      8  C   UNL     1       4.154  41.052  50.105  1.00  0.00     0.132 A 
ATOM      9  N   UNL     1       3.591  41.771  51.093  1.00  0.00    -0.247 NA
ATOM     10  C   UNL     1       4.220  42.947  51.415  1.00  0.00     0.150 A 
ENDROOT
BRANCH   1  11
ATOM     11  N   UNL     1       2.545  43.455  53.056  1.00  0.00    -0.338 N 
ATOM     12  H   UNL     1       2.399  42.450  52.994  1.00  0.00     0.168 HD
BRANCH  11  13
ATOM     13  C   UNL     1       1.825  44.092  54.080  1.00  0.00     0.040 A 
ATOM     14  C   UNL     1       0.270  45.355  56.093  1.00  0.00    -0.048 A 
ATOM     15  C   UNL     1       1.658  45.537  56.030  1.00  0.00     0.006 A 
ATOM     16  C   UNL     1      -0.354  44.551  55.124  1.00  0.00    -0.046 A 
ATOM     17  C   UNL     1       2.418  44.921  55.031  1.00  0.00     0.026 A 
ATOM     18  C   UNL     1       0.431  43.934  54.131  1.00  0.00     0.029 A 
ATOM     19  C   UNL     1      -0.514  46.033  57.181  1.00  0.00     0.044 C 
ATOM     20  C   UNL     1      -1.842  44.326  55.131  1.00  0.00     0.044 C 
ENDBRANCH  11  13
ENDBRANCH   1  11
BRANCH   3  21
ATOM     21  N   UNL     1       6.239  46.416  52.346  1.00  0.00    -0.324 N 
ATOM     22  H   UNL     1       5.682  47.217  52.086  1.00  0.00     0.170 HD
BRANCH  21  23
ATOM     23  C   UNL     1       7.556  46.667  52.749  1.00  0.00     0.044 A 
ATOM     24  C   UNL     1       7.772  47.185  54.041  1.00  0.00     0.026 A 
ATOM     25  C   UNL     1       8.679  46.376  51.971  1.00  0.00     0.065 A 
ATOM     26  C   UNL     1       9.062  47.421  54.528  1.00  0.00     0.005 A 
ATOM     27  C   UNL     1       9.962  46.611  52.462  1.00  0.00     0.125 A 
ATOM     28  C   UNL     1      10.164  47.132  53.733  1.00  0.00     0.039 A 
ATOM     29  F   UNL     1      11.023  46.327  51.694  1.00  0.00    -0.207 F 
ENDBRANCH  21  23
ENDBRANCH   3  21
TORSDOF 4
ENDMDL
MODEL 7
REMARK VINA RESULT:    -9.609      2.314      6.932
REMARK INTER + INTRA:         -12.515
REMARK INTER:                 -12.058
REMARK INTRA:                  -0.457
REMARK UNBOUND:                -0.659
REMARK SMILES Cc1ccc(Nc2nc(Nc3cccc(F)c3)nc3nccnc23)cc1C
REMARK SMILES IDX 7 1 8 2 9 3 18 4 19 5 20 6 21 7 22 8 23 9 24 10 6 11 5 13
REMARK SMILES IDX 2 14 3 15 26 16 4 17 25 18 1 19 27 20 10 21 11 23 12 24
REMARK SMILES IDX 17 25 13 26 15 27 14 28 16 29
REMARK H PARENT 6 12 10 22
ROOT
ATOM      1  C   UNL     1       3.688  43.841  53.183  1.00  0.00     0.164 A 
ATOM      2  N   UNL     1       4.771  44.634  53.290  1.00  0.00    -0.193 NA
ATOM      3  C   UNL     1       4.661  45.768  53.980  1.00  0.00     0.231 A 
ATOM      4  N   UNL     1       3.535  46.146  54.585  1.00  0.00    -0.191 NA
ATOM      5  C   UNL     1       2.467  45.367  54.473  1.00  0.00     0.185 A 
ATOM      6  N   UNL     1       1.346  45.780  55.076  1.00  0.00    -0.233 NA
ATOM      7  C   UNL     1       0.243  45.006  54.967  1.00  0.00     0.133 A 
ATOM      8  C   UNL     1       0.239  43.826  54.259  1.00  0.00     0.132 A 
ATOM      9  N   UNL     1       1.345  43.379  53.636  1.00  0.00    -0.247 NA
ATOM     10  C   UNL     1       2.464  44.163  53.762  1.00  0.00     0.150 A 
ENDROOT
BRANCH   1  11
ATOM     11  N   UNL     1       3.766  42.598  52.492  1.00  0.00    -0.338 N 
ATOM     12  H   UNL     1       3.040  41.970  52.827  1.00  0.00     0.168 HD
BRANCH  11  13
ATOM     13  C   UNL     1       4.284  42.275  51.227  1.00  0.00     0.040 A 
ATOM     14  C   UNL     1       5.404  41.715  48.678  1.00  0.00    -0.048 A 
ATOM     15  C   UNL     1       4.220  41.097  49.099  1.00  0.00     0.006 A 
ATOM     16  C   UNL     1       6.025  42.645  49.529  1.00  0.00    -0.046 A 
ATOM     17  C   UNL     1       3.667  41.382  50.352  1.00  0.00     0.026 A 
ATOM     18  C   UNL     1       5.456  42.913  50.789  1.00  0.00     0.029 A 
ATOM     19  C   UNL     1       5.969  41.384  47.325  1.00  0.00     0.044 C 
ATOM     20  C   UNL     1       7.292  43.352  49.129  1.00  0.00     0.044 C 
ENDBRANCH  11  13
ENDBRANCH   1  11
BRANCH   3  21
ATOM     21  N   UNL     1       5.738  46.635  54.145  1.00  0.00    -0.324 N 
ATOM     22  H   UNL     1       5.471  47.382  54.770  1.00  0.00     0.170 HD
BRANCH  21  23
ATOM     23  C   UNL     1       6.993  46.741  53.536  1.00  0.00     0.044 A 
ATOM     24  C   UNL     1       7.067  46.637  52.133  1.00  0.00     0.026 A 
ATOM     25  C   UNL     1       8.177  47.006  54.229  1.00  0.00     0.065 A 
ATOM     26  C   UNL     1       8.281  46.775  51.452  1.00  0.00     0.005 A 
ATOM     27  C   UNL     1       9.383  47.145  53.546  1.00  0.00     0.125 A 
ATOM     28  C   UNL     1       9.447  47.031  52.164  1.00  0.00     0.039 A 
ATOM     29  F   UNL     1      10.506  47.394  54.234  1.00  0.00    -0.207 F 
ENDBRANCH  21  23
ENDBRANCH   3  21
TORSDOF 4
ENDMDL
MODEL 8
REMARK VINA RESULT:    -9.589      2.246      5.607
REMARK INTER + INTRA:         -12.490
REMARK INTER:                 -12.036
REMARK INTRA:                  -0.455
REMARK UNBOUND:                -0.659
REMARK SMILES Cc1ccc(Nc2nc(Nc3cccc(F)c3)nc3nccnc23)cc1C
REMARK SMILES IDX 7 1 8 2 9 3 18 4 19 5 20 6 21 7 22 8 23 9 24 10 6 11 5 13
REMARK SMILES IDX 2 14 3 15 26 16 4 17 25 18 1 19 27 20 10 21 11 23 12 24
REMARK SMILES IDX 17 25 13 26 15 27 14 28 16 29
REMARK H PARENT 6 12 10 22
ROOT
ATOM      1  C   UNL     1       6.933  46.078  52.259  1.00  0.00     0.164 A 
ATOM      2  N   UNL     1       5.659  46.202  52.677  1.00  0.00    -0.193 NA
ATOM      3  C   UNL     1       5.431  46.798  53.847  1.00  0.00     0.231 A 
ATOM      4  N   UNL     1       6.401  47.294  54.613  1.00  0.00    -0.191 NA
ATOM      5  C   UNL     1       7.656  47.165  54.203  1.00  0.00     0.185 A 
ATOM      6  N   UNL     1       8.612  47.657  55.001  1.00  0.00    -0.233 NA
ATOM      7  C   UNL     1       9.899  47.528  54.607  1.00  0.00     0.133 A 
ATOM      8  C   UNL     1      10.249  46.909  53.428  1.00  0.00     0.132 A 
ATOM      9  N   UNL     1       9.319  46.399  52.602  1.00  0.00    -0.247 NA
ATOM     10  C   UNL     1       8.014  46.545  53.001  1.00  0.00     0.150 A 
ENDROOT
BRANCH   1  11
ATOM     11  N   UNL     1       7.227  45.487  50.997  1.00  0.00    -0.338 N 
ATOM     12  H   UNL     1       8.172  45.733  50.711  1.00  0.00     0.168 HD
BRANCH  11  13
ATOM     13  C   UNL     1       6.699  44.349  50.365  1.00  0.00     0.040 A 
ATOM     14  C   UNL     1       5.571  42.026  49.184  1.00  0.00    -0.048 A 
ATOM     15  C   UNL     1       6.674  42.667  48.607  1.00  0.00     0.006 A 
ATOM     16  C   UNL     1       5.038  42.535  50.381  1.00  0.00    -0.046 A 
ATOM     17  C   UNL     1       7.233  43.806  49.197  1.00  0.00     0.026 A 
ATOM     18  C   UNL     1       5.611  43.687  50.954  1.00  0.00     0.029 A 
ATOM     19  C   UNL     1       4.998  40.805  48.522  1.00  0.00     0.044 C 
ATOM     20  C   UNL     1       3.861  41.885  51.055  1.00  0.00     0.044 C 
ENDBRANCH  11  13
ENDBRANCH   1  11
BRANCH   3  21
ATOM     21  N   UNL     1       4.142  46.974  54.341  1.00  0.00    -0.324 N 
ATOM     22  H   UNL     1       4.133  47.761  54.975  1.00  0.00     0.170 HD
BRANCH  21  23
ATOM     23  C   UNL     1       2.962  46.228  54.247  1.00  0.00     0.044 A 
ATOM     24  C   UNL     1       2.550  45.482  55.368  1.00  0.00     0.026 A 
ATOM     25  C   UNL     1       2.128  46.225  53.125  1.00  0.00     0.065 A 
ATOM     26  C   UNL     1       1.361  44.746  55.362  1.00  0.00     0.005 A 
ATOM     27  C   UNL     1       0.943  45.492  53.125  1.00  0.00     0.125 A 
ATOM     28  C   UNL     1       0.552  44.752  54.232  1.00  0.00     0.039 A 
ATOM     29  F   UNL     1       0.163  45.502  52.035  1.00  0.00    -0.207 F 
ENDBRANCH  21  23
ENDBRANCH   3  21
TORSDOF 4
ENDMDL
MODEL 9
REMARK VINA RESULT:    -9.300      2.650      7.630
REMARK INTER + INTRA:         -12.134
REMARK INTER:                 -11.546
REMARK INTRA:                  -0.588
REMARK UNBOUND:                -0.659
REMARK SMILES Cc1ccc(Nc2nc(Nc3cccc(F)c3)nc3nccnc23)cc1C
REMARK SMILES IDX 7 1 8 2 9 3 18 4 19 5 20 6 21 7 22 8 23 9 24 10 6 11 5 13
REMARK SMILES IDX 2 14 3 15 26 16 4 17 25 18 1 19 27 20 10 21 11 23 12 24
REMARK SMILES IDX 17 25 13 26 15 27 14 28 16 29
REMARK H PARENT 6 12 10 22
ROOT
ATOM      1  C   UNL     1       2.939  44.984  54.688  1.00  0.00     0.164 A 
ATOM      2  N   UNL     1       3.921  45.904  54.749  1.00  0.00    -0.193 NA
ATOM      3  C   UNL     1       4.613  46.166  53.641  1.00  0.00     0.231 A 
ATOM      4  N   UNL     1       4.368  45.575  52.472  1.00  0.00    -0.191 NA
ATOM      5  C   UNL     1       3.405  44.664  52.416  1.00  0.00     0.185 A 
ATOM      6  N   UNL     1       3.192  44.074  51.233  1.00  0.00    -0.233 NA
ATOM      7  C   UNL     1       2.221  43.136  51.156  1.00  0.00     0.133 A 
ATOM      8  C   UNL     1       1.461  42.772  52.245  1.00  0.00     0.132 A 
ATOM      9  N   UNL     1       1.647  43.339  53.450  1.00  0.00    -0.247 NA
ATOM     10  C   UNL     1       2.624  44.300  53.519  1.00  0.00     0.150 A 
ENDROOT
BRANCH   1  11
ATOM     11  N   UNL     1       2.143  44.700  55.835  1.00  0.00    -0.338 N 
ATOM     12  H   UNL     1       2.670  44.126  56.488  1.00  0.00     0.168 HD
BRANCH  11  13
ATOM     13  C   UNL     1       1.058  45.390  56.401  1.00  0.00     0.040 A 
ATOM     14  C   UNL     1      -1.069  46.806  57.641  1.00  0.00    -0.048 A 
ATOM     15  C   UNL     1      -1.292  46.010  56.510  1.00  0.00     0.006 A 
ATOM     16  C   UNL     1       0.229  46.877  58.176  1.00  0.00    -0.046 A 
ATOM     17  C   UNL     1      -0.243  45.307  55.908  1.00  0.00     0.026 A 
ATOM     18  C   UNL     1       1.272  46.166  57.551  1.00  0.00     0.029 A 
ATOM     19  C   UNL     1      -2.220  47.547  58.260  1.00  0.00     0.044 C 
ATOM     20  C   UNL     1       0.531  47.704  59.396  1.00  0.00     0.044 C 
ENDBRANCH  11  13
ENDBRANCH   1  11
BRANCH   3  21
ATOM     21  N   UNL     1       5.634  47.111  53.620  1.00  0.00    -0.324 N 
ATOM     22  H   UNL     1       5.238  48.033  53.736  1.00  0.00     0.170 HD
BRANCH  21  23
ATOM     23  C   UNL     1       7.004  47.045  53.341  1.00  0.00     0.044 A 
ATOM     24  C   UNL     1       7.407  46.888  52.000  1.00  0.00     0.026 A 
ATOM     25  C   UNL     1       8.005  47.187  54.306  1.00  0.00     0.065 A 
ATOM     26  C   UNL     1       8.759  46.857  51.641  1.00  0.00     0.005 A 
ATOM     27  C   UNL     1       9.350  47.157  53.943  1.00  0.00     0.125 A 
ATOM     28  C   UNL     1       9.737  46.992  52.620  1.00  0.00     0.039 A 
ATOM     29  F   UNL     1      10.290  47.291  54.888  1.00  0.00    -0.207 F 
ENDBRANCH  21  23
ENDBRANCH   3  21
TORSDOF 4
ENDMDL
MODEL 10
REMARK VINA RESULT:    -9.208      2.219      3.421
REMARK INTER + INTRA:         -12.020
REMARK INTER:                 -11.365
REMARK INTRA:                  -0.655
REMARK UNBOUND:                -0.659
REMARK SMILES Cc1ccc(Nc2nc(Nc3cccc(F)c3)nc3nccnc23)cc1C
REMARK SMILES IDX 7 1 8 2 9 3 18 4 19 5 20 6 21 7 22 8 23 9 24 10 6 11 5 13
REMARK SMILES IDX 2 14 3 15 26 16 4 17 25 18 1 19 27 20 10 21 11 23 12 24
REMARK SMILES IDX 17 25 13 26 15 27 14 28 16 29
REMARK H PARENT 6 12 10 22
ROOT
ATOM      1  C   UNL     1       3.311  45.848  53.399  1.00  0.00     0.164 A 
ATOM      2  N   UNL     1       3.044  46.081  54.699  1.00  0.00    -0.193 NA
ATOM      3  C   UNL     1       2.210  45.257  55.332  1.00  0.00     0.231 A 
ATOM      4  N   UNL     1       1.643  44.203  54.746  1.00  0.00    -0.191 NA
ATOM      5  C   UNL     1       1.902  43.979  53.464  1.00  0.00     0.185 A 
ATOM      6  N   UNL     1       1.304  42.924  52.896  1.00  0.00    -0.233 NA
ATOM      7  C   UNL     1       1.547  42.683  51.588  1.00  0.00     0.133 A 
ATOM      8  C   UNL     1       2.374  43.484  50.834  1.00  0.00     0.132 A 
ATOM      9  N   UNL     1       2.989  44.555  51.366  1.00  0.00    -0.247 NA
ATOM     10  C   UNL     1       2.749  44.786  52.697  1.00  0.00     0.150 A 
ENDROOT
BRANCH   1  11
ATOM     11  N   UNL     1       4.228  46.675  52.690  1.00  0.00    -0.338 N 
ATOM     12  H   UNL     1       3.869  47.625  52.639  1.00  0.00     0.168 HD
BRANCH  11  13
ATOM     13  C   UNL     1       5.614  46.559  52.492  1.00  0.00     0.040 A 
ATOM     14  C   UNL     1       8.432  46.399  52.180  1.00  0.00    -0.048 A 
ATOM     15  C   UNL     1       7.567  45.919  51.189  1.00  0.00     0.006 A 
ATOM     16  C   UNL     1       7.885  46.991  53.332  1.00  0.00    -0.046 A 
ATOM     17  C   UNL     1       6.180  46.008  51.343  1.00  0.00     0.026 A 
ATOM     18  C   UNL     1       6.486  47.064  53.470  1.00  0.00     0.029 A 
ATOM     19  C   UNL     1       9.918  46.286  51.981  1.00  0.00     0.044 C 
ATOM     20  C   UNL     1       8.762  47.536  54.426  1.00  0.00     0.044 C 
ENDBRANCH  11  13
ENDBRANCH   1  11
BRANCH   3  21
ATOM     21  N   UNL     1       1.893  45.423  56.677  1.00  0.00    -0.324 N 
ATOM     22  H   UNL     1       2.396  44.740  57.224  1.00  0.00     0.170 HD
BRANCH  21  23
ATOM     23  C   UNL     1       0.959  46.213  57.357  1.00  0.00     0.044 A 
ATOM     24  C   UNL     1      -0.350  46.292  56.845  1.00  0.00     0.026 A 
ATOM     25  C   UNL     1       1.228  46.883  58.554  1.00  0.00     0.065 A 
ATOM     26  C   UNL     1      -1.348  47.027  57.494  1.00  0.00     0.005 A 
ATOM     27  C   UNL     1       0.231  47.612  59.198  1.00  0.00     0.125 A 
ATOM     28  C   UNL     1      -1.054  47.692  58.679  1.00  0.00     0.039 A 
ATOM     29  F   UNL     1       0.515  48.249  60.342  1.00  0.00    -0.207 F 
ENDBRANCH  21  23
ENDBRANCH   3  21
TORSDOF 4
ENDMDL
