MODEL 1
REMARK VINA RESULT:   -10.583      0.000      0.000
REMARK INTER + INTRA:         -13.810
REMARK INTER:                 -13.058
REMARK INTRA:                  -0.752
REMARK UNBOUND:                -0.752
REMARK SMILES c1ccc(Nc2nc(N3CCN(c4ccccc4)CC3)nc3nccnc23)cc1
REMARK SMILES IDX 6 1 7 2 8 3 21 4 22 5 23 6 24 7 25 8 26 9 27 10 5 11 4 13
REMARK SMILES IDX 1 14 2 15 29 16 3 17 28 18 9 19 10 20 20 21 11 22 19 23
REMARK SMILES IDX 12 24 13 25 14 26 18 27 15 28 17 29 16 30
REMARK H PARENT 5 12
ROOT
ATOM      1  C   UNL     1       2.276  43.139  52.484  1.00  0.00     0.164 A 
ATOM      2  N   UNL     1       3.136  44.010  53.048  1.00  0.00    -0.193 NA
ATOM      3  C   UNL     1       2.647  45.028  53.759  1.00  0.00     0.229 A 
ATOM      4  N   UNL     1       1.339  45.203  53.945  1.00  0.00    -0.191 NA
ATOM      5  C   UNL     1       0.490  44.348  53.389  1.00  0.00     0.185 A 
ATOM      6  N   UNL     1      -0.817  44.565  53.584  1.00  0.00    -0.233 NA
ATOM      7  C   UNL     1      -1.696  43.708  53.016  1.00  0.00     0.133 A 
ATOM      8  C   UNL     1      -1.292  42.639  52.250  1.00  0.00     0.132 A 
ATOM      9  N   UNL     1       0.012  42.391  52.027  1.00  0.00    -0.247 NA
ATOM     10  C   UNL     1       0.897  43.256  52.617  1.00  0.00     0.150 A 
ENDROOT
BRANCH   1  11
ATOM     11  N   UNL     1       2.758  42.020  51.746  1.00  0.00    -0.338 N 
ATOM     12  H   UNL     1       2.042  41.298  51.708  1.00  0.00     0.168 HD
BRANCH  11  13
ATOM     13  C   UNL     1       3.768  41.904  50.778  1.00  0.00     0.040 A 
ATOM     14  C   UNL     1       5.758  41.545  48.807  1.00  0.00     0.000 A 
ATOM     15  C   UNL     1       4.588  40.793  48.763  1.00  0.00     0.002 A 
ATOM     16  C   UNL     1       5.946  42.462  49.837  1.00  0.00     0.002 A 
ATOM     17  C   UNL     1       3.607  40.969  49.744  1.00  0.00     0.026 A 
ATOM     18  C   UNL     1       4.960  42.634  50.815  1.00  0.00     0.026 A 
ENDBRANCH  11  13
ENDBRANCH   1  11
BRANCH   3  19
ATOM     19  N   UNL     1       3.526  45.916  54.354  1.00  0.00    -0.337 N 
ATOM     20  C   UNL     1       4.435  45.419  55.400  1.00  0.00     0.141 C 
ATOM     21  C   UNL     1       4.050  46.983  53.482  1.00  0.00     0.141 C 
ATOM     22  C   UNL     1       5.907  45.443  54.927  1.00  0.00     0.138 C 
ATOM     23  C   UNL     1       5.226  47.722  54.152  1.00  0.00     0.138 C 
ATOM     24  N   UNL     1       6.336  46.799  54.481  1.00  0.00    -0.368 N 
BRANCH  24  25
ATOM     25  C   UNL     1       7.492  46.779  53.689  1.00  0.00     0.037 A 
ATOM     26  C   UNL     1       8.722  47.166  54.252  1.00  0.00     0.026 A 
ATOM     27  C   UNL     1       7.505  46.392  52.342  1.00  0.00     0.026 A 
ATOM     28  C   UNL     1       9.907  47.163  53.510  1.00  0.00     0.002 A 
ATOM     29  C   UNL     1       8.689  46.385  51.592  1.00  0.00     0.002 A 
ATOM     30  C   UNL     1       9.890  46.771  52.177  1.00  0.00     0.000 A 
ENDBRANCH  24  25
ENDBRANCH   3  19
TORSDOF 4
ENDMDL
MODEL 2
REMARK VINA RESULT:    -9.737      1.665      6.958
REMARK INTER + INTRA:         -12.766
REMARK INTER:                 -12.082
REMARK INTRA:                  -0.684
REMARK UNBOUND:                -0.752
REMARK SMILES c1ccc(Nc2nc(N3CCN(c4ccccc4)CC3)nc3nccnc23)cc1
REMARK SMILES IDX 6 1 7 2 8 3 21 4 22 5 23 6 24 7 25 8 26 9 27 10 5 11 4 13
REMARK SMILES IDX 1 14 2 15 29 16 3 17 28 18 9 19 10 20 20 21 11 22 19 23
REMARK SMILES IDX 12 24 13 25 14 26 18 27 15 28 17 29 16 30
REMARK H PARENT 5 12
ROOT
ATOM      1  C   UNL     1       6.888  45.790  51.887  1.00  0.00     0.164 A 
ATOM      2  N   UNL     1       5.598  45.905  52.261  1.00  0.00    -0.193 NA
ATOM      3  C   UNL     1       5.309  46.570  53.380  1.00  0.00     0.229 A 
ATOM      4  N   UNL     1       6.251  47.139  54.133  1.00  0.00    -0.191 NA
ATOM      5  C   UNL     1       7.522  47.026  53.768  1.00  0.00     0.185 A 
ATOM      6  N   UNL     1       8.441  47.596  54.558  1.00  0.00    -0.233 NA
ATOM      7  C   UNL     1       9.742  47.481  54.207  1.00  0.00     0.133 A 
ATOM      8  C   UNL     1      10.142  46.799  53.081  1.00  0.00     0.132 A 
ATOM      9  N   UNL     1       9.250  46.208  52.265  1.00  0.00    -0.247 NA
ATOM     10  C   UNL     1       7.932  46.340  52.622  1.00  0.00     0.150 A 
ENDROOT
BRANCH   1  11
ATOM     11  N   UNL     1       7.236  45.116  50.681  1.00  0.00    -0.338 N 
ATOM     12  H   UNL     1       8.191  45.350  50.419  1.00  0.00     0.168 HD
BRANCH  11  13
ATOM     13  C   UNL     1       6.722  43.958  50.075  1.00  0.00     0.040 A 
ATOM     14  C   UNL     1       5.665  41.580  48.981  1.00  0.00     0.000 A 
ATOM     15  C   UNL     1       5.265  42.005  50.245  1.00  0.00     0.002 A 
ATOM     16  C   UNL     1       6.599  42.327  48.269  1.00  0.00     0.002 A 
ATOM     17  C   UNL     1       5.795  43.180  50.786  1.00  0.00     0.026 A 
ATOM     18  C   UNL     1       7.125  43.502  48.817  1.00  0.00     0.026 A 
ENDBRANCH  11  13
ENDBRANCH   1  11
BRANCH   3  19
ATOM     19  N   UNL     1       3.986  46.706  53.759  1.00  0.00    -0.337 N 
ATOM     20  C   UNL     1       3.027  47.272  52.795  1.00  0.00     0.141 C 
ATOM     21  C   UNL     1       3.467  45.667  54.667  1.00  0.00     0.141 C 
ATOM     22  C   UNL     1       2.004  46.211  52.328  1.00  0.00     0.138 C 
ATOM     23  C   UNL     1       1.932  45.747  54.785  1.00  0.00     0.138 C 
ATOM     24  N   UNL     1       1.273  45.589  53.468  1.00  0.00    -0.368 N 
BRANCH  24  25
ATOM     25  C   UNL     1       0.654  44.378  53.131  1.00  0.00     0.037 A 
ATOM     26  C   UNL     1      -0.176  44.318  51.997  1.00  0.00     0.026 A 
ATOM     27  C   UNL     1       0.809  43.194  53.867  1.00  0.00     0.026 A 
ATOM     28  C   UNL     1      -0.817  43.136  51.612  1.00  0.00     0.002 A 
ATOM     29  C   UNL     1       0.172  42.006  53.487  1.00  0.00     0.002 A 
ATOM     30  C   UNL     1      -0.642  41.977  52.360  1.00  0.00     0.000 A 
ENDBRANCH  24  25
ENDBRANCH   3  19
TORSDOF 4
ENDMDL
MODEL 3
REMARK VINA RESULT:    -9.489      1.805      7.855
REMARK INTER + INTRA:         -12.460
REMARK INTER:                 -11.561
REMARK INTRA:                  -0.899
REMARK UNBOUND:                -0.752
REMARK SMILES c1ccc(Nc2nc(N3CCN(c4ccccc4)CC3)nc3nccnc23)cc1
REMARK SMILES IDX 6 1 7 2 8 3 21 4 22 5 23 6 24 7 25 8 26 9 27 10 5 11 4 13
REMARK SMILES IDX 1 14 2 15 29 16 3 17 28 18 9 19 10 20 20 21 11 22 19 23
REMARK SMILES IDX 12 24 13 25 14 26 18 27 15 28 17 29 16 30
REMARK H PARENT 5 12
ROOT
ATOM      1  C   UNL     1       5.448  45.067  51.435  1.00  0.00     0.164 A 
ATOM      2  N   UNL     1       4.332  45.182  52.181  1.00  0.00    -0.193 NA
ATOM      3  C   UNL     1       3.506  44.138  52.269  1.00  0.00     0.229 A 
ATOM      4  N   UNL     1       3.756  42.979  51.658  1.00  0.00    -0.191 NA
ATOM      5  C   UNL     1       4.853  42.865  50.921  1.00  0.00     0.185 A 
ATOM      6  N   UNL     1       5.062  41.692  50.308  1.00  0.00    -0.233 NA
ATOM      7  C   UNL     1       6.170  41.561  49.545  1.00  0.00     0.133 A 
ATOM      8  C   UNL     1       7.073  42.585  49.377  1.00  0.00     0.132 A 
ATOM      9  N   UNL     1       6.896  43.780  49.971  1.00  0.00    -0.247 NA
ATOM     10  C   UNL     1       5.776  43.900  50.754  1.00  0.00     0.150 A 
ENDROOT
BRANCH   1  11
ATOM     11  N   UNL     1       6.372  46.147  51.343  1.00  0.00    -0.338 N 
ATOM     12  H   UNL     1       5.960  46.908  50.808  1.00  0.00     0.168 HD
BRANCH  11  13
ATOM     13  C   UNL     1       7.469  46.509  52.141  1.00  0.00     0.040 A 
ATOM     14  C   UNL     1       9.752  47.161  53.669  1.00  0.00     0.000 A 
ATOM     15  C   UNL     1       9.888  46.786  52.336  1.00  0.00     0.002 A 
ATOM     16  C   UNL     1       8.486  47.198  54.246  1.00  0.00     0.002 A 
ATOM     17  C   UNL     1       8.756  46.458  51.584  1.00  0.00     0.026 A 
ATOM     18  C   UNL     1       7.357  46.868  53.488  1.00  0.00     0.026 A 
ENDBRANCH  11  13
ENDBRANCH   1  11
BRANCH   3  19
ATOM     19  N   UNL     1       2.367  44.244  53.047  1.00  0.00    -0.337 N 
ATOM     20  C   UNL     1       1.589  45.493  52.998  1.00  0.00     0.141 C 
ATOM     21  C   UNL     1       1.599  43.000  53.237  1.00  0.00     0.141 C 
ATOM     22  C   UNL     1       0.209  45.273  52.337  1.00  0.00     0.138 C 
ATOM     23  C   UNL     1       0.218  43.288  53.859  1.00  0.00     0.138 C 
ATOM     24  N   UNL     1      -0.581  44.208  53.017  1.00  0.00    -0.368 N 
BRANCH  24  25
ATOM     25  C   UNL     1      -1.628  43.711  52.230  1.00  0.00     0.037 A 
ATOM     26  C   UNL     1      -1.404  43.455  50.865  1.00  0.00     0.026 A 
ATOM     27  C   UNL     1      -2.914  43.447  52.722  1.00  0.00     0.026 A 
ATOM     28  C   UNL     1      -2.411  42.956  50.032  1.00  0.00     0.002 A 
ATOM     29  C   UNL     1      -3.928  42.946  51.895  1.00  0.00     0.002 A 
ATOM     30  C   UNL     1      -3.676  42.701  50.550  1.00  0.00     0.000 A 
ENDBRANCH  24  25
ENDBRANCH   3  19
TORSDOF 4
ENDMDL
MODEL 4
REMARK VINA RESULT:    -9.154      2.050      7.108
REMARK INTER + INTRA:         -12.047
REMARK INTER:                 -11.149
REMARK INTRA:                  -0.897
REMARK UNBOUND:                -0.752
REMARK SMILES c1ccc(Nc2nc(N3CCN(c4ccccc4)CC3)nc3nccnc23)cc1
REMARK SMILES IDX 6 1 7 2 8 3 21 4 22 5 23 6 24 7 25 8 26 9 27 10 5 11 4 13
REMARK SMILES IDX 1 14 2 15 29 16 3 17 28 18 9 19 10 20 20 21 11 22 19 23
REMARK SMILES IDX 12 24 13 25 14 26 18 27 15 28 17 29 16 30
REMARK H PARENT 5 12
ROOT
ATOM      1  C   UNL     1       5.122  45.432  52.471  1.00  0.00     0.164 A 
ATOM      2  N   UNL     1       5.504  44.349  51.766  1.00  0.00    -0.193 NA
ATOM      3  C   UNL     1       4.714  43.273  51.760  1.00  0.00     0.229 A 
ATOM      4  N   UNL     1       3.553  43.240  52.414  1.00  0.00    -0.191 NA
ATOM      5  C   UNL     1       3.176  44.305  53.111  1.00  0.00     0.185 A 
ATOM      6  N   UNL     1       2.011  44.229  53.768  1.00  0.00    -0.233 NA
ATOM      7  C   UNL     1       1.617  45.301  54.491  1.00  0.00     0.133 A 
ATOM      8  C   UNL     1       2.370  46.449  54.575  1.00  0.00     0.132 A 
ATOM      9  N   UNL     1       3.548  46.563  53.933  1.00  0.00    -0.247 NA
ATOM     10  C   UNL     1       3.935  45.475  53.192  1.00  0.00     0.150 A 
ENDROOT
BRANCH   1  11
ATOM     11  N   UNL     1       5.921  46.612  52.475  1.00  0.00    -0.338 N 
ATOM     12  H   UNL     1       5.323  47.432  52.543  1.00  0.00     0.168 HD
BRANCH  11  13
ATOM     13  C   UNL     1       7.265  46.829  52.816  1.00  0.00     0.040 A 
ATOM     14  C   UNL     1      10.004  47.184  53.400  1.00  0.00     0.000 A 
ATOM     15  C   UNL     1       9.605  46.828  52.115  1.00  0.00     0.002 A 
ATOM     16  C   UNL     1       9.046  47.348  54.396  1.00  0.00     0.002 A 
ATOM     17  C   UNL     1       8.248  46.648  51.830  1.00  0.00     0.026 A 
ATOM     18  C   UNL     1       7.690  47.166  54.104  1.00  0.00     0.026 A 
ENDBRANCH  11  13
ENDBRANCH   1  11
BRANCH   3  19
ATOM     19  N   UNL     1       5.092  42.165  51.025  1.00  0.00    -0.337 N 
ATOM     20  C   UNL     1       4.123  41.072  50.839  1.00  0.00     0.141 C 
ATOM     21  C   UNL     1       6.013  42.422  49.902  1.00  0.00     0.141 C 
ATOM     22  C   UNL     1       3.669  40.964  49.365  1.00  0.00     0.138 C 
ATOM     23  C   UNL     1       6.132  41.188  48.986  1.00  0.00     0.138 C 
ATOM     24  N   UNL     1       4.817  40.790  48.431  1.00  0.00    -0.368 N 
BRANCH  24  25
ATOM     25  C   UNL     1       4.496  41.088  47.100  1.00  0.00     0.037 A 
ATOM     26  C   UNL     1       3.259  40.668  46.578  1.00  0.00     0.026 A 
ATOM     27  C   UNL     1       5.344  41.792  46.234  1.00  0.00     0.026 A 
ATOM     28  C   UNL     1       2.884  40.940  45.258  1.00  0.00     0.002 A 
ATOM     29  C   UNL     1       4.975  42.070  44.911  1.00  0.00     0.002 A 
ATOM     30  C   UNL     1       3.744  41.643  44.423  1.00  0.00     0.000 A 
ENDBRANCH  24  25
ENDBRANCH   3  19
TORSDOF 4
ENDMDL
MODEL 5
REMARK VINA RESULT:    -9.085      2.347      7.021
REMARK INTER + INTRA:         -11.961
REMARK INTER:                 -11.152
REMARK INTRA:                  -0.809
REMARK UNBOUND:                -0.752
REMARK SMILES c1ccc(Nc2nc(N3CCN(c4ccccc4)CC3)nc3nccnc23)cc1
REMARK SMILES IDX 6 1 7 2 8 3 21 4 22 5 23 6 24 7 25 8 26 9 27 10 5 11 4 13
REMARK SMILES IDX 1 14 2 15 29 16 3 17 28 18 9 19 10 20 20 21 11 22 19 23
REMARK SMILES IDX 12 24 13 25 14 26 18 27 15 28 17 29 16 30
REMARK H PARENT 5 12
ROOT
ATOM      1  C   UNL     1       4.946  44.941  51.093  1.00  0.00     0.164 A 
ATOM      2  N   UNL     1       3.664  44.958  51.508  1.00  0.00    -0.193 NA
ATOM      3  C   UNL     1       2.960  43.825  51.472  1.00  0.00     0.229 A 
ATOM      4  N   UNL     1       3.487  42.673  51.055  1.00  0.00    -0.191 NA
ATOM      5  C   UNL     1       4.749  42.654  50.645  1.00  0.00     0.185 A 
ATOM      6  N   UNL     1       5.239  41.483  50.218  1.00  0.00    -0.233 NA
ATOM      7  C   UNL     1       6.520  41.448  49.786  1.00  0.00     0.133 A 
ATOM      8  C   UNL     1       7.321  42.566  49.767  1.00  0.00     0.132 A 
ATOM      9  N   UNL     1       6.864  43.762  50.183  1.00  0.00    -0.247 NA
ATOM     10  C   UNL     1       5.568  43.787  50.631  1.00  0.00     0.150 A 
ENDROOT
BRANCH   1  11
ATOM     11  N   UNL     1       5.741  46.121  51.148  1.00  0.00    -0.338 N 
ATOM     12  H   UNL     1       5.243  46.893  50.710  1.00  0.00     0.168 HD
BRANCH  11  13
ATOM     13  C   UNL     1       6.792  46.501  51.997  1.00  0.00     0.040 A 
ATOM     14  C   UNL     1       8.993  47.227  53.610  1.00  0.00     0.000 A 
ATOM     15  C   UNL     1       9.121  47.203  52.225  1.00  0.00     0.002 A 
ATOM     16  C   UNL     1       7.779  46.876  54.194  1.00  0.00     0.002 A 
ATOM     17  C   UNL     1       8.031  46.837  51.429  1.00  0.00     0.026 A 
ATOM     18  C   UNL     1       6.692  46.512  53.392  1.00  0.00     0.026 A 
ENDBRANCH  11  13
ENDBRANCH   1  11
BRANCH   3  19
ATOM     19  N   UNL     1       1.649  43.833  51.912  1.00  0.00    -0.337 N 
ATOM     20  C   UNL     1       1.186  42.738  52.781  1.00  0.00     0.141 C 
ATOM     21  C   UNL     1       1.065  45.163  52.166  1.00  0.00     0.141 C 
ATOM     22  C   UNL     1       0.882  43.240  54.210  1.00  0.00     0.138 C 
ATOM     23  C   UNL     1      -0.274  45.047  52.923  1.00  0.00     0.138 C 
ATOM     24  N   UNL     1      -0.111  44.352  54.221  1.00  0.00    -0.368 N 
BRANCH  24  25
ATOM     25  C   UNL     1      -0.106  45.085  55.415  1.00  0.00     0.037 A 
ATOM     26  C   UNL     1       1.114  45.322  56.075  1.00  0.00     0.026 A 
ATOM     27  C   UNL     1      -1.262  45.608  56.012  1.00  0.00     0.026 A 
ATOM     28  C   UNL     1       1.179  46.048  57.268  1.00  0.00     0.002 A 
ATOM     29  C   UNL     1      -1.205  46.338  57.206  1.00  0.00     0.002 A 
ATOM     30  C   UNL     1       0.016  46.557  57.835  1.00  0.00     0.000 A 
ENDBRANCH  24  25
ENDBRANCH   3  19
TORSDOF 4
ENDMDL
MODEL 6
REMARK VINA RESULT:    -8.658      2.312      4.925
REMARK INTER + INTRA:         -11.434
REMARK INTER:                 -10.533
REMARK INTRA:                  -0.901
REMARK UNBOUND:                -0.752
REMARK SMILES c1ccc(Nc2nc(N3CCN(c4ccccc4)CC3)nc3nccnc23)cc1
REMARK SMILES IDX 6 1 7 2 8 3 21 4 22 5 23 6 24 7 25 8 26 9 27 10 5 11 4 13
REMARK SMILES IDX 1 14 2 15 29 16 3 17 28 18 9 19 10 20 20 21 11 22 19 23
REMARK SMILES IDX 12 24 13 25 14 26 18 27 15 28 17 29 16 30
REMARK H PARENT 5 12
ROOT
ATOM      1  C   UNL     1       0.015  44.581  53.194  1.00  0.00     0.164 A 
ATOM      2  N   UNL     1       1.063  44.542  52.348  1.00  0.00    -0.193 NA
ATOM      3  C   UNL     1       2.291  44.735  52.834  1.00  0.00     0.229 A 
ATOM      4  N   UNL     1       2.517  44.947  54.131  1.00  0.00    -0.191 NA
ATOM      5  C   UNL     1       1.486  44.988  54.965  1.00  0.00     0.185 A 
ATOM      6  N   UNL     1       1.751  45.220  56.258  1.00  0.00    -0.233 NA
ATOM      7  C   UNL     1       0.711  45.275  57.121  1.00  0.00     0.133 A 
ATOM      8  C   UNL     1      -0.592  45.108  56.713  1.00  0.00     0.132 A 
ATOM      9  N   UNL     1      -0.899  44.878  55.423  1.00  0.00    -0.247 NA
ATOM     10  C   UNL     1       0.162  44.811  54.557  1.00  0.00     0.150 A 
ENDROOT
BRANCH   1  11
ATOM     11  N   UNL     1      -1.308  44.347  52.720  1.00  0.00    -0.338 N 
ATOM     12  H   UNL     1      -1.827  43.802  53.404  1.00  0.00     0.168 HD
BRANCH  11  13
ATOM     13  C   UNL     1      -2.098  45.029  51.781  1.00  0.00     0.040 A 
ATOM     14  C   UNL     1      -3.608  46.353  49.797  1.00  0.00     0.000 A 
ATOM     15  C   UNL     1      -2.868  45.221  49.471  1.00  0.00     0.002 A 
ATOM     16  C   UNL     1      -3.585  46.836  51.102  1.00  0.00     0.002 A 
ATOM     17  C   UNL     1      -2.117  44.570  50.455  1.00  0.00     0.026 A 
ATOM     18  C   UNL     1      -2.832  46.180  52.082  1.00  0.00     0.026 A 
ENDBRANCH  11  13
ENDBRANCH   1  11
BRANCH   3  19
ATOM     19  N   UNL     1       3.372  44.679  51.973  1.00  0.00    -0.337 N 
ATOM     20  C   UNL     1       3.638  45.829  51.093  1.00  0.00     0.141 C 
ATOM     21  C   UNL     1       4.552  43.946  52.470  1.00  0.00     0.141 C 
ATOM     22  C   UNL     1       4.945  46.552  51.488  1.00  0.00     0.138 C 
ATOM     23  C   UNL     1       5.780  44.195  51.571  1.00  0.00     0.138 C 
ATOM     24  N   UNL     1       6.120  45.635  51.495  1.00  0.00    -0.368 N 
BRANCH  24  25
ATOM     25  C   UNL     1       7.209  46.139  52.219  1.00  0.00     0.037 A 
ATOM     26  C   UNL     1       8.457  46.276  51.583  1.00  0.00     0.026 A 
ATOM     27  C   UNL     1       7.138  46.523  53.565  1.00  0.00     0.026 A 
ATOM     28  C   UNL     1       9.577  46.775  52.254  1.00  0.00     0.002 A 
ATOM     29  C   UNL     1       8.256  47.026  54.244  1.00  0.00     0.002 A 
ATOM     30  C   UNL     1       9.476  47.151  53.589  1.00  0.00     0.000 A 
ENDBRANCH  24  25
ENDBRANCH   3  19
TORSDOF 4
ENDMDL
MODEL 7
REMARK VINA RESULT:    -8.606      2.944      5.924
REMARK INTER + INTRA:         -11.370
REMARK INTER:                 -10.623
REMARK INTRA:                  -0.747
REMARK UNBOUND:                -0.752
REMARK SMILES c1ccc(Nc2nc(N3CCN(c4ccccc4)CC3)nc3nccnc23)cc1
REMARK SMILES IDX 6 1 7 2 8 3 21 4 22 5 23 6 24 7 25 8 26 9 27 10 5 11 4 13
REMARK SMILES IDX 1 14 2 15 29 16 3 17 28 18 9 19 10 20 20 21 11 22 19 23
REMARK SMILES IDX 12 24 13 25 14 26 18 27 15 28 17 29 16 30
REMARK H PARENT 5 12
ROOT
ATOM      1  C   UNL     1       0.215  45.212  54.865  1.00  0.00     0.164 A 
ATOM      2  N   UNL     1       1.495  45.613  54.742  1.00  0.00    -0.193 NA
ATOM      3  C   UNL     1       2.063  45.590  53.535  1.00  0.00     0.229 A 
ATOM      4  N   UNL     1       1.402  45.200  52.445  1.00  0.00    -0.191 NA
ATOM      5  C   UNL     1       0.142  44.803  52.564  1.00  0.00     0.185 A 
ATOM      6  N   UNL     1      -0.484  44.402  51.450  1.00  0.00    -0.233 NA
ATOM      7  C   UNL     1      -1.766  43.984  51.555  1.00  0.00     0.133 A 
ATOM      8  C   UNL     1      -2.433  43.953  52.758  1.00  0.00     0.132 A 
ATOM      9  N   UNL     1      -1.837  44.342  53.900  1.00  0.00    -0.247 NA
ATOM     10  C   UNL     1      -0.541  44.777  53.783  1.00  0.00     0.150 A 
ENDROOT
BRANCH   1  11
ATOM     11  N   UNL     1      -0.439  45.253  56.130  1.00  0.00    -0.338 N 
ATOM     12  H   UNL     1      -0.791  44.328  56.367  1.00  0.00     0.168 HD
BRANCH  11  13
ATOM     13  C   UNL     1      -0.321  46.137  57.215  1.00  0.00     0.040 A 
ATOM     14  C   UNL     1      -0.181  47.989  59.341  1.00  0.00     0.000 A 
ATOM     15  C   UNL     1      -1.357  47.854  58.609  1.00  0.00     0.002 A 
ATOM     16  C   UNL     1       0.928  47.217  59.007  1.00  0.00     0.002 A 
ATOM     17  C   UNL     1      -1.421  46.940  57.553  1.00  0.00     0.026 A 
ATOM     18  C   UNL     1       0.857  46.304  57.949  1.00  0.00     0.026 A 
ENDBRANCH  11  13
ENDBRANCH   1  11
BRANCH   3  19
ATOM     19  N   UNL     1       3.372  46.017  53.400  1.00  0.00    -0.337 N 
ATOM     20  C   UNL     1       4.429  45.310  54.141  1.00  0.00     0.141 C 
ATOM     21  C   UNL     1       3.742  46.545  52.073  1.00  0.00     0.141 C 
ATOM     22  C   UNL     1       5.371  44.541  53.187  1.00  0.00     0.138 C 
ATOM     23  C   UNL     1       5.270  46.711  51.947  1.00  0.00     0.138 C 
ATOM     24  N   UNL     1       5.980  45.428  52.156  1.00  0.00    -0.368 N 
BRANCH  24  25
ATOM     25  C   UNL     1       6.498  44.724  51.060  1.00  0.00     0.037 A 
ATOM     26  C   UNL     1       7.715  45.138  50.488  1.00  0.00     0.026 A 
ATOM     27  C   UNL     1       5.870  43.613  50.481  1.00  0.00     0.026 A 
ATOM     28  C   UNL     1       8.281  44.473  49.395  1.00  0.00     0.002 A 
ATOM     29  C   UNL     1       6.431  42.940  49.388  1.00  0.00     0.002 A 
ATOM     30  C   UNL     1       7.636  43.371  48.845  1.00  0.00     0.000 A 
ENDBRANCH  24  25
ENDBRANCH   3  19
TORSDOF 4
ENDMDL
MODEL 8
REMARK VINA RESULT:    -8.539      2.199      4.533
REMARK INTER + INTRA:         -11.288
REMARK INTER:                 -10.344
REMARK INTRA:                  -0.944
REMARK UNBOUND:                -0.752
REMARK SMILES c1ccc(Nc2nc(N3CCN(c4ccccc4)CC3)nc3nccnc23)cc1
REMARK SMILES IDX 6 1 7 2 8 3 21 4 22 5 23 6 24 7 25 8 26 9 27 10 5 11 4 13
REMARK SMILES IDX 1 14 2 15 29 16 3 17 28 18 9 19 10 20 20 21 11 22 19 23
REMARK SMILES IDX 12 24 13 25 14 26 18 27 15 28 17 29 16 30
REMARK H PARENT 5 12
ROOT
ATOM      1  C   UNL     1      -0.097  44.143  53.768  1.00  0.00     0.164 A 
ATOM      2  N   UNL     1       1.105  44.735  53.630  1.00  0.00    -0.193 NA
ATOM      3  C   UNL     1       1.633  45.370  54.678  1.00  0.00     0.229 A 
ATOM      4  N   UNL     1       1.020  45.424  55.861  1.00  0.00    -0.191 NA
ATOM      5  C   UNL     1      -0.164  44.843  55.998  1.00  0.00     0.185 A 
ATOM      6  N   UNL     1      -0.757  44.932  57.195  1.00  0.00    -0.233 NA
ATOM      7  C   UNL     1      -1.970  44.353  57.350  1.00  0.00     0.133 A 
ATOM      8  C   UNL     1      -2.606  43.692  56.325  1.00  0.00     0.132 A 
ATOM      9  N   UNL     1      -2.045  43.586  55.106  1.00  0.00    -0.247 NA
ATOM     10  C   UNL     1      -0.810  44.163  54.961  1.00  0.00     0.150 A 
ENDROOT
BRANCH   1  11
ATOM     11  N   UNL     1      -0.680  43.426  52.683  1.00  0.00    -0.338 N 
ATOM     12  H   UNL     1      -0.819  42.453  52.948  1.00  0.00     0.168 HD
BRANCH  11  13
ATOM     13  C   UNL     1      -1.435  43.853  51.579  1.00  0.00     0.040 A 
ATOM     14  C   UNL     1      -3.019  44.797  49.441  1.00  0.00     0.000 A 
ATOM     15  C   UNL     1      -2.778  45.611  50.544  1.00  0.00     0.002 A 
ATOM     16  C   UNL     1      -2.487  43.511  49.408  1.00  0.00     0.002 A 
ATOM     17  C   UNL     1      -1.998  45.138  51.604  1.00  0.00     0.026 A 
ATOM     18  C   UNL     1      -1.707  43.045  50.471  1.00  0.00     0.026 A 
ENDBRANCH  11  13
ENDBRANCH   1  11
BRANCH   3  19
ATOM     19  N   UNL     1       2.875  45.966  54.547  1.00  0.00    -0.337 N 
ATOM     20  C   UNL     1       4.034  45.340  55.205  1.00  0.00     0.141 C 
ATOM     21  C   UNL     1       3.134  46.636  53.259  1.00  0.00     0.141 C 
ATOM     22  C   UNL     1       5.031  44.769  54.170  1.00  0.00     0.138 C 
ATOM     23  C   UNL     1       4.625  46.999  53.112  1.00  0.00     0.138 C 
ATOM     24  N   UNL     1       5.493  45.802  53.200  1.00  0.00    -0.368 N 
BRANCH  24  25
ATOM     25  C   UNL     1       6.057  45.255  52.039  1.00  0.00     0.037 A 
ATOM     26  C   UNL     1       5.491  44.096  51.477  1.00  0.00     0.026 A 
ATOM     27  C   UNL     1       7.173  45.797  51.387  1.00  0.00     0.026 A 
ATOM     28  C   UNL     1       6.010  43.508  50.319  1.00  0.00     0.002 A 
ATOM     29  C   UNL     1       7.698  45.215  50.226  1.00  0.00     0.002 A 
ATOM     30  C   UNL     1       7.117  44.070  49.692  1.00  0.00     0.000 A 
ENDBRANCH  24  25
ENDBRANCH   3  19
TORSDOF 4
ENDMDL
MODEL 9
REMARK VINA RESULT:    -8.415      2.427      5.367
REMARK INTER + INTRA:         -11.135
REMARK INTER:                 -10.534
REMARK INTRA:                  -0.600
REMARK UNBOUND:                -0.752
REMARK SMILES c1ccc(Nc2nc(N3CCN(c4ccccc4)CC3)nc3nccnc23)cc1
REMARK SMILES IDX 6 1 7 2 8 3 21 4 22 5 23 6 24 7 25 8 26 9 27 10 5 11 4 13
REMARK SMILES IDX 1 14 2 15 29 16 3 17 28 18 9 19 10 20 20 21 11 22 19 23
REMARK SMILES IDX 12 24 13 25 14 26 18 27 15 28 17 29 16 30
REMARK H PARENT 5 12
ROOT
ATOM      1  C   UNL     1       0.484  44.504  54.699  1.00  0.00     0.164 A 
ATOM      2  N   UNL     1       1.557  45.135  55.214  1.00  0.00    -0.193 NA
ATOM      3  C   UNL     1       2.605  45.375  54.423  1.00  0.00     0.229 A 
ATOM      4  N   UNL     1       2.618  45.026  53.136  1.00  0.00    -0.191 NA
ATOM      5  C   UNL     1       1.564  44.402  52.627  1.00  0.00     0.185 A 
ATOM      6  N   UNL     1       1.621  44.052  51.336  1.00  0.00    -0.233 NA
ATOM      7  C   UNL     1       0.558  43.406  50.804  1.00  0.00     0.133 A 
ATOM      8  C   UNL     1      -0.561  43.097  51.543  1.00  0.00     0.132 A 
ATOM      9  N   UNL     1      -0.654  43.427  52.844  1.00  0.00    -0.247 NA
ATOM     10  C   UNL     1       0.423  44.093  53.373  1.00  0.00     0.150 A 
ENDROOT
BRANCH   1  11
ATOM     11  N   UNL     1      -0.667  44.260  55.502  1.00  0.00    -0.338 N 
ATOM     12  H   UNL     1      -0.790  43.258  55.633  1.00  0.00     0.168 HD
BRANCH  11  13
ATOM     13  C   UNL     1      -1.349  45.066  56.427  1.00  0.00     0.040 A 
ATOM     14  C   UNL     1      -2.835  46.625  58.252  1.00  0.00     0.000 A 
ATOM     15  C   UNL     1      -3.303  45.375  57.861  1.00  0.00     0.002 A 
ATOM     16  C   UNL     1      -1.640  47.107  57.726  1.00  0.00     0.002 A 
ATOM     17  C   UNL     1      -2.568  44.607  56.952  1.00  0.00     0.026 A 
ATOM     18  C   UNL     1      -0.909  46.334  56.818  1.00  0.00     0.026 A 
ENDBRANCH  11  13
ENDBRANCH   1  11
BRANCH   3  19
ATOM     19  N   UNL     1       3.702  46.038  54.941  1.00  0.00    -0.337 N 
ATOM     20  C   UNL     1       4.703  45.269  55.699  1.00  0.00     0.141 C 
ATOM     21  C   UNL     1       4.211  47.164  54.137  1.00  0.00     0.141 C 
ATOM     22  C   UNL     1       6.048  45.192  54.942  1.00  0.00     0.138 C 
ATOM     23  C   UNL     1       5.589  47.634  54.647  1.00  0.00     0.138 C 
ATOM     24  N   UNL     1       6.588  46.541  54.610  1.00  0.00    -0.368 N 
BRANCH  24  25
ATOM     25  C   UNL     1       7.562  46.513  53.602  1.00  0.00     0.037 A 
ATOM     26  C   UNL     1       8.891  46.851  53.916  1.00  0.00     0.026 A 
ATOM     27  C   UNL     1       7.294  46.164  52.271  1.00  0.00     0.026 A 
ATOM     28  C   UNL     1       9.904  46.838  52.952  1.00  0.00     0.002 A 
ATOM     29  C   UNL     1       8.303  46.146  51.299  1.00  0.00     0.002 A 
ATOM     30  C   UNL     1       9.608  46.484  51.640  1.00  0.00     0.000 A 
ENDBRANCH  24  25
ENDBRANCH   3  19
TORSDOF 4
ENDMDL
MODEL 10
REMARK VINA RESULT:    -8.265      2.391      7.157
REMARK INTER + INTRA:         -10.949
REMARK INTER:                 -10.024
REMARK INTRA:                  -0.925
REMARK UNBOUND:                -0.752
REMARK SMILES c1ccc(Nc2nc(N3CCN(c4ccccc4)CC3)nc3nccnc23)cc1
REMARK SMILES IDX 6 1 7 2 8 3 21 4 22 5 23 6 24 7 25 8 26 9 27 10 5 11 4 13
REMARK SMILES IDX 1 14 2 15 29 16 3 17 28 18 9 19 10 20 20 21 11 22 19 23
REMARK SMILES IDX 12 24 13 25 14 26 18 27 15 28 17 29 16 30
REMARK H PARENT 5 12
ROOT
ATOM      1  C   UNL     1       5.482  42.521  50.175  1.00  0.00     0.164 A 
ATOM      2  N   UNL     1       4.412  42.599  50.990  1.00  0.00    -0.193 NA
ATOM      3  C   UNL     1       4.303  43.646  51.811  1.00  0.00     0.229 A 
ATOM      4  N   UNL     1       5.207  44.625  51.840  1.00  0.00    -0.191 NA
ATOM      5  C   UNL     1       6.263  44.549  51.039  1.00  0.00     0.185 A 
ATOM      6  N   UNL     1       7.158  45.543  51.108  1.00  0.00    -0.233 NA
ATOM      7  C   UNL     1       8.245  45.477  50.307  1.00  0.00     0.133 A 
ATOM      8  C   UNL     1       8.458  44.429  49.440  1.00  0.00     0.132 A 
ATOM      9  N   UNL     1       7.584  43.410  49.346  1.00  0.00    -0.247 NA
ATOM     10  C   UNL     1       6.478  43.491  50.152  1.00  0.00     0.150 A 
ENDROOT
BRANCH   1  11
ATOM     11  N   UNL     1       5.619  41.438  49.260  1.00  0.00    -0.338 N 
ATOM     12  H   UNL     1       5.939  40.608  49.755  1.00  0.00     0.168 HD
BRANCH  11  13
ATOM     13  C   UNL     1       5.035  41.193  48.008  1.00  0.00     0.040 A 
ATOM     14  C   UNL     1       3.915  40.814  45.444  1.00  0.00     0.000 A 
ATOM     15  C   UNL     1       5.077  41.566  45.594  1.00  0.00     0.002 A 
ATOM     16  C   UNL     1       3.303  40.265  46.566  1.00  0.00     0.002 A 
ATOM     17  C   UNL     1       5.625  41.757  46.866  1.00  0.00     0.026 A 
ATOM     18  C   UNL     1       3.857  40.459  47.836  1.00  0.00     0.026 A 
ENDBRANCH  11  13
ENDBRANCH   1  11
BRANCH   3  19
ATOM     19  N   UNL     1       3.198  43.739  52.637  1.00  0.00    -0.337 N 
ATOM     20  C   UNL     1       2.733  45.074  53.051  1.00  0.00     0.141 C 
ATOM     21  C   UNL     1       2.156  42.715  52.436  1.00  0.00     0.141 C 
ATOM     22  C   UNL     1       1.360  45.412  52.427  1.00  0.00     0.138 C 
ATOM     23  C   UNL     1       0.862  43.082  53.189  1.00  0.00     0.138 C 
ATOM     24  N   UNL     1       0.324  44.390  52.748  1.00  0.00    -0.368 N 
BRANCH  24  25
ATOM     25  C   UNL     1      -0.786  44.442  51.895  1.00  0.00     0.037 A 
ATOM     26  C   UNL     1      -1.770  45.428  52.100  1.00  0.00     0.026 A 
ATOM     27  C   UNL     1      -0.988  43.558  50.826  1.00  0.00     0.026 A 
ATOM     28  C   UNL     1      -2.897  45.528  51.279  1.00  0.00     0.002 A 
ATOM     29  C   UNL     1      -2.114  43.653  49.998  1.00  0.00     0.002 A 
ATOM     30  C   UNL     1      -3.069  44.639  50.224  1.00  0.00     0.000 A 
ENDBRANCH  24  25
ENDBRANCH   3  19
TORSDOF 4
ENDMDL
