MODEL 1
REMARK VINA RESULT:    -8.696      0.000      0.000
REMARK INTER + INTRA:         -11.855
REMARK INTER:                 -11.238
REMARK INTRA:                  -0.618
REMARK UNBOUND:                -0.618
REMARK SMILES CC[NH+](Cc1nc2ccccc2c(=O)[nH]1)CC1CCCCC1
REMARK SMILES IDX 3 1 2 3 1 4 4 5 5 6 6 7 15 8 7 9 13 10 8 11 12 12 9 13 11 14
REMARK SMILES IDX 10 15 14 17 16 18 17 19 18 20 22 21 19 22 21 23 20 24
REMARK H PARENT 3 2 15 16
ROOT
ATOM      1  N   UNL     1       3.316  44.907  51.837  1.00  0.00    -0.329 N 
ATOM      2  H   UNL     1       2.643  44.670  51.099  1.00  0.00     0.348 HD
ENDROOT
BRANCH   1   3
ATOM      3  C   UNL     1       2.472  45.283  53.047  1.00  0.00     0.259 C 
ATOM      4  C   UNL     1       1.888  44.037  53.689  1.00  0.00     0.071 C 
ENDBRANCH   1   3
BRANCH   1   5
ATOM      5  C   UNL     1       4.088  46.112  51.280  1.00  0.00     0.338 C 
BRANCH   5   6
ATOM      6  C   UNL     1       5.447  46.348  51.936  1.00  0.00     0.165 C 
ATOM      7  N   UNL     1       6.533  46.112  51.274  1.00  0.00    -0.229 NA
ATOM      8  N   UNL     1       5.439  46.830  53.218  1.00  0.00    -0.305 N 
ATOM      9  C   UNL     1       7.765  46.351  51.914  1.00  0.00     0.078 A 
ATOM     10  C   UNL     1       6.584  47.109  53.922  1.00  0.00     0.258 C 
ATOM     11  C   UNL     1       8.949  46.088  51.224  1.00  0.00     0.029 A 
ATOM     12  C   UNL     1       7.849  46.847  53.219  1.00  0.00     0.065 A 
ATOM     13  C   UNL     1      10.188  46.321  51.829  1.00  0.00     0.002 A 
ATOM     14  C   UNL     1       9.081  47.084  53.835  1.00  0.00     0.016 A 
ATOM     15  C   UNL     1      10.254  46.818  53.132  1.00  0.00     0.001 A 
ATOM     16  H   UNL     1       4.591  46.991  53.746  1.00  0.00     0.171 HD
ATOM     17  O   UNL     1       6.532  47.555  55.059  1.00  0.00    -0.269 OA
ENDBRANCH   5   6
ENDBRANCH   1   5
BRANCH   1  18
ATOM     18  C   UNL     1       4.206  43.696  52.077  1.00  0.00     0.266 C 
BRANCH  18  19
ATOM     19  C   UNL     1       4.425  42.912  50.774  1.00  0.00     0.044 C 
ATOM     20  C   UNL     1       5.922  42.749  50.435  1.00  0.00     0.009 C 
ATOM     21  C   UNL     1       3.746  41.539  50.862  1.00  0.00     0.009 C 
ATOM     22  C   UNL     1       6.233  41.518  49.578  1.00  0.00     0.001 C 
ATOM     23  C   UNL     1       3.822  40.776  49.536  1.00  0.00     0.001 C 
ATOM     24  C   UNL     1       5.055  41.121  48.702  1.00  0.00     0.000 C 
ENDBRANCH  18  19
ENDBRANCH   1  18
TORSDOF 5
ENDMDL
MODEL 2
REMARK VINA RESULT:    -8.389      2.174      6.097
REMARK INTER + INTRA:         -11.459
REMARK INTER:                 -10.872
REMARK INTRA:                  -0.587
REMARK UNBOUND:                -0.618
REMARK SMILES CC[NH+](Cc1nc2ccccc2c(=O)[nH]1)CC1CCCCC1
REMARK SMILES IDX 3 1 2 3 1 4 4 5 5 6 6 7 15 8 7 9 13 10 8 11 12 12 9 13 11 14
REMARK SMILES IDX 10 15 14 17 16 18 17 19 18 20 22 21 19 22 21 23 20 24
REMARK H PARENT 3 2 15 16
ROOT
ATOM      1  N   UNL     1       5.233  45.783  54.336  1.00  0.00    -0.329 N 
ATOM      2  H   UNL     1       5.789  44.959  54.082  1.00  0.00     0.348 HD
ENDROOT
BRANCH   1   3
ATOM      3  C   UNL     1       4.558  45.423  55.653  1.00  0.00     0.259 C 
ATOM      4  C   UNL     1       3.085  45.787  55.605  1.00  0.00     0.071 C 
ENDBRANCH   1   3
BRANCH   1   5
ATOM      5  C   UNL     1       4.217  45.930  53.194  1.00  0.00     0.338 C 
BRANCH   5   6
ATOM      6  C   UNL     1       4.071  44.689  52.316  1.00  0.00     0.165 C 
ATOM      7  N   UNL     1       5.087  44.247  51.649  1.00  0.00    -0.229 NA
ATOM      8  N   UNL     1       2.842  44.084  52.302  1.00  0.00    -0.305 N 
ATOM      9  C   UNL     1       4.910  43.094  50.859  1.00  0.00     0.078 A 
ATOM     10  C   UNL     1       2.572  42.950  51.577  1.00  0.00     0.258 C 
ATOM     11  C   UNL     1       5.989  42.609  50.118  1.00  0.00     0.029 A 
ATOM     12  C   UNL     1       3.692  42.411  50.790  1.00  0.00     0.065 A 
ATOM     13  C   UNL     1       5.848  41.463  49.329  1.00  0.00     0.002 A 
ATOM     14  C   UNL     1       3.538  41.265  50.005  1.00  0.00     0.016 A 
ATOM     15  C   UNL     1       4.625  40.792  49.272  1.00  0.00     0.001 A 
ATOM     16  H   UNL     1       2.040  44.442  52.803  1.00  0.00     0.171 HD
ATOM     17  O   UNL     1       1.466  42.431  51.606  1.00  0.00    -0.269 OA
ENDBRANCH   5   6
ENDBRANCH   1   5
BRANCH   1  18
ATOM     18  C   UNL     1       6.172  46.975  54.448  1.00  0.00     0.266 C 
BRANCH  18  19
ATOM     19  C   UNL     1       7.502  46.693  53.731  1.00  0.00     0.044 C 
ATOM     20  C   UNL     1       7.466  47.114  52.247  1.00  0.00     0.009 C 
ATOM     21  C   UNL     1       8.654  47.398  54.458  1.00  0.00     0.009 C 
ATOM     22  C   UNL     1       8.842  47.453  51.666  1.00  0.00     0.001 C 
ATOM     23  C   UNL     1      10.016  47.035  53.859  1.00  0.00     0.001 C 
ATOM     24  C   UNL     1       9.959  46.698  52.369  1.00  0.00     0.000 C 
ENDBRANCH  18  19
ENDBRANCH   1  18
TORSDOF 5
ENDMDL
MODEL 3
REMARK VINA RESULT:    -8.333      1.341      1.935
REMARK INTER + INTRA:         -11.386
REMARK INTER:                 -10.991
REMARK INTRA:                  -0.395
REMARK UNBOUND:                -0.618
REMARK SMILES CC[NH+](Cc1nc2ccccc2c(=O)[nH]1)CC1CCCCC1
REMARK SMILES IDX 3 1 2 3 1 4 4 5 5 6 6 7 15 8 7 9 13 10 8 11 12 12 9 13 11 14
REMARK SMILES IDX 10 15 14 17 16 18 17 19 18 20 22 21 19 22 21 23 20 24
REMARK H PARENT 3 2 15 16
ROOT
ATOM      1  N   UNL     1       3.282  44.932  51.906  1.00  0.00    -0.329 N 
ATOM      2  H   UNL     1       3.359  45.170  50.910  1.00  0.00     0.348 HD
ENDROOT
BRANCH   1   3
ATOM      3  C   UNL     1       1.790  44.759  52.162  1.00  0.00     0.259 C 
ATOM      4  C   UNL     1       1.564  43.869  53.371  1.00  0.00     0.071 C 
ENDBRANCH   1   3
BRANCH   1   5
ATOM      5  C   UNL     1       3.850  46.157  52.639  1.00  0.00     0.338 C 
BRANCH   5   6
ATOM      6  C   UNL     1       5.367  46.300  52.543  1.00  0.00     0.165 C 
ATOM      7  N   UNL     1       6.045  46.687  53.575  1.00  0.00    -0.229 NA
ATOM      8  N   UNL     1       5.943  45.982  51.342  1.00  0.00    -0.305 N 
ATOM      9  C   UNL     1       7.443  46.798  53.445  1.00  0.00     0.078 A 
ATOM     10  C   UNL     1       7.296  46.043  51.119  1.00  0.00     0.258 C 
ATOM     11  C   UNL     1       8.193  47.229  54.540  1.00  0.00     0.029 A 
ATOM     12  C   UNL     1       8.114  46.488  52.257  1.00  0.00     0.065 A 
ATOM     13  C   UNL     1       9.584  47.343  54.446  1.00  0.00     0.002 A 
ATOM     14  C   UNL     1       9.503  46.599  52.150  1.00  0.00     0.016 A 
ATOM     15  C   UNL     1      10.238  47.029  53.254  1.00  0.00     0.001 A 
ATOM     16  H   UNL     1       5.412  45.704  50.527  1.00  0.00     0.171 HD
ATOM     17  O   UNL     1       7.772  45.733  50.036  1.00  0.00    -0.269 OA
ENDBRANCH   5   6
ENDBRANCH   1   5
BRANCH   1  18
ATOM     18  C   UNL     1       4.086  43.667  52.159  1.00  0.00     0.266 C 
BRANCH  18  19
ATOM     19  C   UNL     1       4.310  42.890  50.852  1.00  0.00     0.044 C 
ATOM     20  C   UNL     1       5.808  42.717  50.525  1.00  0.00     0.009 C 
ATOM     21  C   UNL     1       3.619  41.522  50.925  1.00  0.00     0.009 C 
ATOM     22  C   UNL     1       6.116  41.490  49.661  1.00  0.00     0.001 C 
ATOM     23  C   UNL     1       3.699  40.768  49.595  1.00  0.00     0.001 C 
ATOM     24  C   UNL     1       4.942  41.109  48.773  1.00  0.00     0.000 C 
ENDBRANCH  18  19
ENDBRANCH   1  18
TORSDOF 5
ENDMDL
MODEL 4
REMARK VINA RESULT:    -8.264      1.632      3.932
REMARK INTER + INTRA:         -11.298
REMARK INTER:                 -10.622
REMARK INTRA:                  -0.676
REMARK UNBOUND:                -0.618
REMARK SMILES CC[NH+](Cc1nc2ccccc2c(=O)[nH]1)CC1CCCCC1
REMARK SMILES IDX 3 1 2 3 1 4 4 5 5 6 6 7 15 8 7 9 13 10 8 11 12 12 9 13 11 14
REMARK SMILES IDX 10 15 14 17 16 18 17 19 18 20 22 21 19 22 21 23 20 24
REMARK H PARENT 3 2 15 16
ROOT
ATOM      1  N   UNL     1       3.281  44.878  51.672  1.00  0.00    -0.329 N 
ATOM      2  H   UNL     1       3.664  44.790  52.620  1.00  0.00     0.348 HD
ENDROOT
BRANCH   1   3
ATOM      3  C   UNL     1       3.023  43.450  51.210  1.00  0.00     0.259 C 
ATOM      4  C   UNL     1       3.735  42.465  52.120  1.00  0.00     0.071 C 
ENDBRANCH   1   3
BRANCH   1   5
ATOM      5  C   UNL     1       4.403  45.547  50.864  1.00  0.00     0.338 C 
BRANCH   5   6
ATOM      6  C   UNL     1       5.603  45.988  51.697  1.00  0.00     0.165 C 
ATOM      7  N   UNL     1       6.802  45.831  51.237  1.00  0.00    -0.229 NA
ATOM      8  N   UNL     1       5.334  46.562  52.912  1.00  0.00    -0.305 N 
ATOM      9  C   UNL     1       7.880  46.260  52.036  1.00  0.00     0.078 A 
ATOM     10  C   UNL     1       6.313  47.025  53.756  1.00  0.00     0.258 C 
ATOM     11  C   UNL     1       9.183  46.086  51.566  1.00  0.00     0.029 A 
ATOM     12  C   UNL     1       7.696  46.860  53.286  1.00  0.00     0.065 A 
ATOM     13  C   UNL     1      10.275  46.507  52.331  1.00  0.00     0.002 A 
ATOM     14  C   UNL     1       8.779  47.285  54.061  1.00  0.00     0.016 A 
ATOM     15  C   UNL     1      10.074  47.105  53.576  1.00  0.00     0.001 A 
ATOM     16  H   UNL     1       4.399  46.663  53.285  1.00  0.00     0.171 HD
ATOM     17  O   UNL     1       6.029  47.547  54.825  1.00  0.00    -0.269 OA
ENDBRANCH   5   6
ENDBRANCH   1   5
BRANCH   1  18
ATOM     18  C   UNL     1       2.019  45.725  51.744  1.00  0.00     0.266 C 
BRANCH  18  19
ATOM     19  C   UNL     1       1.408  45.677  53.153  1.00  0.00     0.044 C 
ATOM     20  C   UNL     1       0.178  44.748  53.224  1.00  0.00     0.009 C 
ATOM     21  C   UNL     1       2.466  45.239  54.174  1.00  0.00     0.009 C 
ATOM     22  C   UNL     1      -0.081  44.169  54.618  1.00  0.00     0.001 C 
ATOM     23  C   UNL     1       1.940  45.309  55.610  1.00  0.00     0.001 C 
ATOM     24  C   UNL     1       0.432  45.084  55.720  1.00  0.00     0.000 C 
ENDBRANCH  18  19
ENDBRANCH   1  18
TORSDOF 5
ENDMDL
MODEL 5
REMARK VINA RESULT:    -8.247      1.854      6.141
REMARK INTER + INTRA:         -11.276
REMARK INTER:                 -10.967
REMARK INTRA:                  -0.309
REMARK UNBOUND:                -0.618
REMARK SMILES CC[NH+](Cc1nc2ccccc2c(=O)[nH]1)CC1CCCCC1
REMARK SMILES IDX 3 1 2 3 1 4 4 5 5 6 6 7 15 8 7 9 13 10 8 11 12 12 9 13 11 14
REMARK SMILES IDX 10 15 14 17 16 18 17 19 18 20 22 21 19 22 21 23 20 24
REMARK H PARENT 3 2 15 16
ROOT
ATOM      1  N   UNL     1       5.394  45.679  54.262  1.00  0.00    -0.329 N 
ATOM      2  H   UNL     1       6.012  44.876  54.102  1.00  0.00     0.348 HD
ENDROOT
BRANCH   1   3
ATOM      3  C   UNL     1       4.633  45.351  55.540  1.00  0.00     0.259 C 
ATOM      4  C   UNL     1       3.136  45.438  55.298  1.00  0.00     0.071 C 
ENDBRANCH   1   3
BRANCH   1   5
ATOM      5  C   UNL     1       4.470  45.705  53.036  1.00  0.00     0.338 C 
BRANCH   5   6
ATOM      6  C   UNL     1       4.785  44.642  51.987  1.00  0.00     0.165 C 
ATOM      7  N   UNL     1       3.946  43.680  51.770  1.00  0.00    -0.229 NA
ATOM      8  N   UNL     1       5.961  44.782  51.300  1.00  0.00    -0.305 N 
ATOM      9  C   UNL     1       4.273  42.726  50.787  1.00  0.00     0.078 A 
ATOM     10  C   UNL     1       6.363  43.914  50.315  1.00  0.00     0.258 C 
ATOM     11  C   UNL     1       3.391  41.671  50.547  1.00  0.00     0.029 A 
ATOM     12  C   UNL     1       5.451  42.795  50.035  1.00  0.00     0.065 A 
ATOM     13  C   UNL     1       3.683  40.711  49.573  1.00  0.00     0.002 A 
ATOM     14  C   UNL     1       5.754  41.841  49.060  1.00  0.00     0.016 A 
ATOM     15  C   UNL     1       4.862  40.795  48.831  1.00  0.00     0.001 A 
ATOM     16  H   UNL     1       6.630  45.518  51.486  1.00  0.00     0.171 HD
ATOM     17  O   UNL     1       7.414  44.085  49.713  1.00  0.00    -0.269 OA
ENDBRANCH   5   6
ENDBRANCH   1   5
BRANCH   1  18
ATOM     18  C   UNL     1       6.255  46.928  54.379  1.00  0.00     0.266 C 
BRANCH  18  19
ATOM     19  C   UNL     1       7.643  46.695  53.759  1.00  0.00     0.044 C 
ATOM     20  C   UNL     1       7.698  47.118  52.276  1.00  0.00     0.009 C 
ATOM     21  C   UNL     1       8.714  47.439  54.566  1.00  0.00     0.009 C 
ATOM     22  C   UNL     1       9.099  47.507  51.795  1.00  0.00     0.001 C 
ATOM     23  C   UNL     1      10.128  47.127  54.067  1.00  0.00     0.001 C 
ATOM     24  C   UNL     1      10.189  46.792  52.577  1.00  0.00     0.000 C 
ENDBRANCH  18  19
ENDBRANCH   1  18
TORSDOF 5
ENDMDL
MODEL 6
REMARK VINA RESULT:    -8.187      2.664      7.183
REMARK INTER + INTRA:         -11.198
REMARK INTER:                 -10.704
REMARK INTRA:                  -0.494
REMARK UNBOUND:                -0.618
REMARK SMILES CC[NH+](Cc1nc2ccccc2c(=O)[nH]1)CC1CCCCC1
REMARK SMILES IDX 3 1 2 3 1 4 4 5 5 6 6 7 15 8 7 9 13 10 8 11 12 12 9 13 11 14
REMARK SMILES IDX 10 15 14 17 16 18 17 19 18 20 22 21 19 22 21 23 20 24
REMARK H PARENT 3 2 15 16
ROOT
ATOM      1  N   UNL     1       4.986  46.019  53.572  1.00  0.00    -0.329 N 
ATOM      2  H   UNL     1       4.094  46.086  53.067  1.00  0.00     0.348 HD
ENDROOT
BRANCH   1   3
ATOM      3  C   UNL     1       5.554  44.655  53.204  1.00  0.00     0.259 C 
ATOM      4  C   UNL     1       4.915  44.147  51.923  1.00  0.00     0.071 C 
ENDBRANCH   1   3
BRANCH   1   5
ATOM      5  C   UNL     1       4.594  46.095  55.055  1.00  0.00     0.338 C 
BRANCH   5   6
ATOM      6  C   UNL     1       3.142  45.720  55.344  1.00  0.00     0.165 C 
ATOM      7  N   UNL     1       2.465  45.042  54.475  1.00  0.00    -0.229 NA
ATOM      8  N   UNL     1       2.630  46.117  56.551  1.00  0.00    -0.305 N 
ATOM      9  C   UNL     1       1.132  44.711  54.785  1.00  0.00     0.078 A 
ATOM     10  C   UNL     1       1.349  45.832  56.953  1.00  0.00     0.258 C 
ATOM     11  C   UNL     1       0.378  43.993  53.856  1.00  0.00     0.029 A 
ATOM     12  C   UNL     1       0.531  45.071  55.996  1.00  0.00     0.065 A 
ATOM     13  C   UNL     1      -0.947  43.643  54.136  1.00  0.00     0.002 A 
ATOM     14  C   UNL     1      -0.792  44.728  56.288  1.00  0.00     0.016 A 
ATOM     15  C   UNL     1      -1.531  44.010  55.349  1.00  0.00     0.001 A 
ATOM     16  H   UNL     1       3.149  46.669  57.221  1.00  0.00     0.171 HD
ATOM     17  O   UNL     1       0.936  46.190  58.046  1.00  0.00    -0.269 OA
ENDBRANCH   5   6
ENDBRANCH   1   5
BRANCH   1  18
ATOM     18  C   UNL     1       5.870  47.177  53.135  1.00  0.00     0.266 C 
BRANCH  18  19
ATOM     19  C   UNL     1       7.344  46.747  53.074  1.00  0.00     0.044 C 
ATOM     20  C   UNL     1       7.934  46.888  51.655  1.00  0.00     0.009 C 
ATOM     21  C   UNL     1       8.174  47.555  54.079  1.00  0.00     0.009 C 
ATOM     22  C   UNL     1       9.452  47.092  51.633  1.00  0.00     0.001 C 
ATOM     23  C   UNL     1       9.623  47.066  54.150  1.00  0.00     0.001 C 
ATOM     24  C   UNL     1      10.129  46.462  52.840  1.00  0.00     0.000 C 
ENDBRANCH  18  19
ENDBRANCH   1  18
TORSDOF 5
ENDMDL
MODEL 7
REMARK VINA RESULT:    -8.144      2.010      6.612
REMARK INTER + INTRA:         -11.142
REMARK INTER:                 -10.653
REMARK INTRA:                  -0.489
REMARK UNBOUND:                -0.618
REMARK SMILES CC[NH+](Cc1nc2ccccc2c(=O)[nH]1)CC1CCCCC1
REMARK SMILES IDX 3 1 2 3 1 4 4 5 5 6 6 7 15 8 7 9 13 10 8 11 12 12 9 13 11 14
REMARK SMILES IDX 10 15 14 17 16 18 17 19 18 20 22 21 19 22 21 23 20 24
REMARK H PARENT 3 2 15 16
ROOT
ATOM      1  N   UNL     1       5.791  44.699  51.055  1.00  0.00    -0.329 N 
ATOM      2  H   UNL     1       4.855  44.999  50.757  1.00  0.00     0.348 HD
ENDROOT
BRANCH   1   3
ATOM      3  C   UNL     1       5.993  43.327  50.426  1.00  0.00     0.259 C 
ATOM      4  C   UNL     1       7.048  43.399  49.336  1.00  0.00     0.071 C 
ENDBRANCH   1   3
BRANCH   1   5
ATOM      5  C   UNL     1       5.700  44.619  52.587  1.00  0.00     0.338 C 
BRANCH   5   6
ATOM      6  C   UNL     1       4.276  44.514  53.128  1.00  0.00     0.165 C 
ATOM      7  N   UNL     1       3.430  43.711  52.570  1.00  0.00    -0.229 NA
ATOM      8  N   UNL     1       3.973  45.283  54.221  1.00  0.00    -0.305 N 
ATOM      9  C   UNL     1       2.130  43.639  53.107  1.00  0.00     0.078 A 
ATOM     10  C   UNL     1       2.741  45.274  54.827  1.00  0.00     0.258 C 
ATOM     11  C   UNL     1       1.196  42.791  52.510  1.00  0.00     0.029 A 
ATOM     12  C   UNL     1       1.737  44.385  54.223  1.00  0.00     0.065 A 
ATOM     13  C   UNL     1      -0.101  42.692  53.024  1.00  0.00     0.002 A 
ATOM     14  C   UNL     1       0.444  44.295  54.746  1.00  0.00     0.016 A 
ATOM     15  C   UNL     1      -0.477  43.442  54.139  1.00  0.00     0.001 A 
ATOM     16  H   UNL     1       4.625  45.930  54.644  1.00  0.00     0.171 HD
ATOM     17  O   UNL     1       2.517  45.963  55.811  1.00  0.00    -0.269 OA
ENDBRANCH   5   6
ENDBRANCH   1   5
BRANCH   1  18
ATOM     18  C   UNL     1       6.798  45.735  50.578  1.00  0.00     0.266 C 
BRANCH  18  19
ATOM     19  C   UNL     1       7.808  46.067  51.688  1.00  0.00     0.044 C 
ATOM     20  C   UNL     1       9.240  45.617  51.328  1.00  0.00     0.009 C 
ATOM     21  C   UNL     1       7.782  47.570  51.993  1.00  0.00     0.009 C 
ATOM     22  C   UNL     1      10.337  46.428  52.024  1.00  0.00     0.001 C 
ATOM     23  C   UNL     1       8.674  47.928  53.186  1.00  0.00     0.001 C 
ATOM     24  C   UNL     1       9.870  46.992  53.357  1.00  0.00     0.000 C 
ENDBRANCH  18  19
ENDBRANCH   1  18
TORSDOF 5
ENDMDL
MODEL 8
REMARK VINA RESULT:    -8.087      2.449      6.779
REMARK INTER + INTRA:         -11.069
REMARK INTER:                 -10.627
REMARK INTRA:                  -0.441
REMARK UNBOUND:                -0.618
REMARK SMILES CC[NH+](Cc1nc2ccccc2c(=O)[nH]1)CC1CCCCC1
REMARK SMILES IDX 3 1 2 3 1 4 4 5 5 6 6 7 15 8 7 9 13 10 8 11 12 12 9 13 11 14
REMARK SMILES IDX 10 15 14 17 16 18 17 19 18 20 22 21 19 22 21 23 20 24
REMARK H PARENT 3 2 15 16
ROOT
ATOM      1  N   UNL     1       5.839  44.620  51.036  1.00  0.00    -0.329 N 
ATOM      2  H   UNL     1       4.899  44.834  50.683  1.00  0.00     0.348 HD
ENDROOT
BRANCH   1   3
ATOM      3  C   UNL     1       6.188  43.258  50.448  1.00  0.00     0.259 C 
ATOM      4  C   UNL     1       7.151  43.420  49.284  1.00  0.00     0.071 C 
ENDBRANCH   1   3
BRANCH   1   5
ATOM      5  C   UNL     1       5.673  44.558  52.562  1.00  0.00     0.338 C 
BRANCH   5   6
ATOM      6  C   UNL     1       4.231  44.394  53.033  1.00  0.00     0.165 C 
ATOM      7  N   UNL     1       3.825  45.005  54.098  1.00  0.00    -0.229 NA
ATOM      8  N   UNL     1       3.417  43.602  52.266  1.00  0.00    -0.305 N 
ATOM      9  C   UNL     1       2.484  44.832  54.492  1.00  0.00     0.078 A 
ATOM     10  C   UNL     1       2.093  43.382  52.556  1.00  0.00     0.258 C 
ATOM     11  C   UNL     1       2.029  45.470  55.647  1.00  0.00     0.029 A 
ATOM     12  C   UNL     1       1.583  44.046  53.765  1.00  0.00     0.065 A 
ATOM     13  C   UNL     1       0.701  45.325  56.061  1.00  0.00     0.002 A 
ATOM     14  C   UNL     1       0.254  43.892  54.169  1.00  0.00     0.016 A 
ATOM     15  C   UNL     1      -0.184  44.537  55.324  1.00  0.00     0.001 A 
ATOM     16  H   UNL     1       3.738  43.102  51.447  1.00  0.00     0.171 HD
ATOM     17  O   UNL     1       1.397  42.682  51.835  1.00  0.00    -0.269 OA
ENDBRANCH   5   6
ENDBRANCH   1   5
BRANCH   1  18
ATOM     18  C   UNL     1       6.781  45.728  50.589  1.00  0.00     0.266 C 
BRANCH  18  19
ATOM     19  C   UNL     1       7.807  46.049  51.687  1.00  0.00     0.044 C 
ATOM     20  C   UNL     1       9.235  45.614  51.296  1.00  0.00     0.009 C 
ATOM     21  C   UNL     1       7.777  47.547  52.016  1.00  0.00     0.009 C 
ATOM     22  C   UNL     1      10.339  46.421  51.987  1.00  0.00     0.001 C 
ATOM     23  C   UNL     1       8.686  47.892  53.200  1.00  0.00     0.001 C 
ATOM     24  C   UNL     1       9.891  46.961  53.337  1.00  0.00     0.000 C 
ENDBRANCH  18  19
ENDBRANCH   1  18
TORSDOF 5
ENDMDL
MODEL 9
REMARK VINA RESULT:    -8.080      2.683      3.571
REMARK INTER + INTRA:         -11.060
REMARK INTER:                 -10.782
REMARK INTRA:                  -0.278
REMARK UNBOUND:                -0.618
REMARK SMILES CC[NH+](Cc1nc2ccccc2c(=O)[nH]1)CC1CCCCC1
REMARK SMILES IDX 3 1 2 3 1 4 4 5 5 6 6 7 15 8 7 9 13 10 8 11 12 12 9 13 11 14
REMARK SMILES IDX 10 15 14 17 16 18 17 19 18 20 22 21 19 22 21 23 20 24
REMARK H PARENT 3 2 15 16
ROOT
ATOM      1  N   UNL     1       3.175  46.090  53.740  1.00  0.00    -0.329 N 
ATOM      2  H   UNL     1       2.207  46.416  53.844  1.00  0.00     0.348 HD
ENDROOT
BRANCH   1   3
ATOM      3  C   UNL     1       3.765  46.127  55.144  1.00  0.00     0.259 C 
ATOM      4  C   UNL     1       4.705  44.953  55.350  1.00  0.00     0.071 C 
ENDBRANCH   1   3
BRANCH   1   5
ATOM      5  C   UNL     1       3.833  47.126  52.816  1.00  0.00     0.338 C 
BRANCH   5   6
ATOM      6  C   UNL     1       5.310  46.867  52.529  1.00  0.00     0.165 C 
ATOM      7  N   UNL     1       6.215  47.347  53.320  1.00  0.00    -0.229 NA
ATOM      8  N   UNL     1       5.601  46.101  51.432  1.00  0.00    -0.305 N 
ATOM      9  C   UNL     1       7.565  47.077  53.023  1.00  0.00     0.078 A 
ATOM     10  C   UNL     1       6.882  45.770  51.066  1.00  0.00     0.258 C 
ATOM     11  C   UNL     1       8.558  47.598  53.853  1.00  0.00     0.029 A 
ATOM     12  C   UNL     1       7.952  46.300  51.925  1.00  0.00     0.065 A 
ATOM     13  C   UNL     1       9.908  47.343  53.589  1.00  0.00     0.002 A 
ATOM     14  C   UNL     1       9.297  46.038  51.651  1.00  0.00     0.016 A 
ATOM     15  C   UNL     1      10.277  46.565  52.491  1.00  0.00     0.001 A 
ATOM     16  H   UNL     1       4.897  45.746  50.798  1.00  0.00     0.171 HD
ATOM     17  O   UNL     1       7.098  45.069  50.088  1.00  0.00    -0.269 OA
ENDBRANCH   5   6
ENDBRANCH   1   5
BRANCH   1  18
ATOM     18  C   UNL     1       3.147  44.694  53.136  1.00  0.00     0.266 C 
BRANCH  18  19
ATOM     19  C   UNL     1       1.700  44.213  52.940  1.00  0.00     0.044 C 
ATOM     20  C   UNL     1       1.210  44.413  51.490  1.00  0.00     0.009 C 
ATOM     21  C   UNL     1       1.573  42.739  53.347  1.00  0.00     0.009 C 
ATOM     22  C   UNL     1       0.103  43.441  51.071  1.00  0.00     0.001 C 
ATOM     23  C   UNL     1       0.121  42.254  53.297  1.00  0.00     0.001 C 
ATOM     24  C   UNL     1      -0.730  42.980  52.256  1.00  0.00     0.000 C 
ENDBRANCH  18  19
ENDBRANCH   1  18
TORSDOF 5
ENDMDL
MODEL 10
REMARK VINA RESULT:    -7.977      1.437      3.512
REMARK INTER + INTRA:         -10.927
REMARK INTER:                 -10.259
REMARK INTRA:                  -0.668
REMARK UNBOUND:                -0.618
REMARK SMILES CC[NH+](Cc1nc2ccccc2c(=O)[nH]1)CC1CCCCC1
REMARK SMILES IDX 3 1 2 3 1 4 4 5 5 6 6 7 15 8 7 9 13 10 8 11 12 12 9 13 11 14
REMARK SMILES IDX 10 15 14 17 16 18 17 19 18 20 22 21 19 22 21 23 20 24
REMARK H PARENT 3 2 15 16
ROOT
ATOM      1  N   UNL     1       4.860  43.046  51.167  1.00  0.00    -0.329 N 
ATOM      2  H   UNL     1       5.647  42.871  51.803  1.00  0.00     0.348 HD
ENDROOT
BRANCH   1   3
ATOM      3  C   UNL     1       5.201  42.294  49.887  1.00  0.00     0.259 C 
ATOM      4  C   UNL     1       6.516  41.551  50.050  1.00  0.00     0.071 C 
ENDBRANCH   1   3
BRANCH   1   5
ATOM      5  C   UNL     1       4.866  44.567  50.956  1.00  0.00     0.338 C 
BRANCH   5   6
ATOM      6  C   UNL     1       5.873  45.320  51.822  1.00  0.00     0.165 C 
ATOM      7  N   UNL     1       7.127  45.319  51.504  1.00  0.00    -0.229 NA
ATOM      8  N   UNL     1       5.374  45.991  52.907  1.00  0.00    -0.305 N 
ATOM      9  C   UNL     1       8.020  46.033  52.327  1.00  0.00     0.078 A 
ATOM     10  C   UNL     1       6.159  46.726  53.761  1.00  0.00     0.258 C 
ATOM     11  C   UNL     1       9.379  46.032  52.011  1.00  0.00     0.029 A 
ATOM     12  C   UNL     1       7.596  46.749  53.451  1.00  0.00     0.065 A 
ATOM     13  C   UNL     1      10.291  46.737  52.804  1.00  0.00     0.002 A 
ATOM     14  C   UNL     1       8.497  47.457  54.251  1.00  0.00     0.016 A 
ATOM     15  C   UNL     1       9.852  47.447  53.922  1.00  0.00     0.001 A 
ATOM     16  H   UNL     1       4.398  45.972  53.173  1.00  0.00     0.171 HD
ATOM     17  O   UNL     1       5.671  47.324  54.709  1.00  0.00    -0.269 OA
ENDBRANCH   5   6
ENDBRANCH   1   5
BRANCH   1  18
ATOM     18  C   UNL     1       3.587  42.549  51.836  1.00  0.00     0.266 C 
BRANCH  18  19
ATOM     19  C   UNL     1       2.534  43.666  51.906  1.00  0.00     0.044 C 
ATOM     20  C   UNL     1       1.321  43.382  50.993  1.00  0.00     0.009 C 
ATOM     21  C   UNL     1       2.074  43.870  53.355  1.00  0.00     0.009 C 
ATOM     22  C   UNL     1       0.027  44.058  51.456  1.00  0.00     0.001 C 
ATOM     23  C   UNL     1       1.126  45.064  53.492  1.00  0.00     0.001 C 
ATOM     24  C   UNL     1       0.298  45.335  52.236  1.00  0.00     0.000 C 
ENDBRANCH  18  19
ENDBRANCH   1  18
TORSDOF 5
ENDMDL
