MODEL 1
REMARK VINA RESULT:    -9.921      0.000      0.000
REMARK INTER + INTRA:         -15.615
REMARK INTER:                 -13.980
REMARK INTRA:                  -1.635
REMARK UNBOUND:                -1.635
REMARK SMILES N#CC(c1nc2ccccc2nc1NCC1CCCCC1)S(=O)(=O)c1ccc(F)cc1
REMARK SMILES IDX 4 1 5 2 6 3 7 4 8 5 9 6 10 7 11 8 12 9 13 10 3 11 2 12 1 13
REMARK SMILES IDX 22 14 23 15 24 16 25 17 26 18 31 19 27 20 30 21 28 22 29 23
REMARK SMILES IDX 14 24 15 26 16 27 17 28 21 29 18 30 20 31 19 32
REMARK H PARENT 14 25
ROOT
ATOM      1  C   UNL     1       3.164  45.063  54.218  1.00  0.00     0.116 A 
ATOM      2  N   UNL     1       2.681  45.449  55.432  1.00  0.00    -0.245 NA
ATOM      3  C   UNL     1       1.361  45.315  55.647  1.00  0.00     0.089 A 
ATOM      4  C   UNL     1       0.816  45.701  56.866  1.00  0.00     0.030 A 
ATOM      5  C   UNL     1      -0.548  45.569  57.124  1.00  0.00     0.002 A 
ATOM      6  C   UNL     1      -1.381  45.040  56.147  1.00  0.00     0.002 A 
ATOM      7  C   UNL     1      -0.842  44.650  54.920  1.00  0.00     0.031 A 
ATOM      8  C   UNL     1       0.517  44.779  54.653  1.00  0.00     0.091 A 
ATOM      9  N   UNL     1       1.001  44.393  53.457  1.00  0.00    -0.227 NA
ATOM     10  C   UNL     1       2.320  44.544  53.221  1.00  0.00     0.151 A 
ENDROOT
BRANCH   1  11
ATOM     11  C   UNL     1       4.649  45.149  53.989  1.00  0.00     0.268 C 
BRANCH  11  12
ATOM     12  C   UNL     1       5.476  44.865  55.158  1.00  0.00     0.089 C 
ATOM     13  N   UNL     1       6.110  44.717  56.121  1.00  0.00    -0.196 NA
ENDBRANCH  11  12
BRANCH  11  14
ATOM     14  S   UNL     1       5.015  46.821  53.493  1.00  0.00     0.200 S 
ATOM     15  O   UNL     1       4.923  47.734  54.617  1.00  0.00    -0.222 OA
ATOM     16  O   UNL     1       4.287  47.125  52.267  1.00  0.00    -0.222 OA
BRANCH  14  17
ATOM     17  C   UNL     1       6.735  46.768  53.005  1.00  0.00     0.069 A 
ATOM     18  C   UNL     1       7.081  46.314  51.726  1.00  0.00     0.023 A 
ATOM     19  C   UNL     1       7.721  47.139  53.929  1.00  0.00     0.023 A 
ATOM     20  C   UNL     1       8.427  46.262  51.362  1.00  0.00     0.040 A 
ATOM     21  C   UNL     1       9.064  47.080  53.553  1.00  0.00     0.040 A 
ATOM     22  C   UNL     1       9.404  46.647  52.274  1.00  0.00     0.123 A 
ATOM     23  F   UNL     1      10.695  46.593  51.921  1.00  0.00    -0.207 F 
ENDBRANCH  14  17
ENDBRANCH  11  14
ENDBRANCH   1  11
BRANCH  10  24
ATOM     24  N   UNL     1       2.852  44.167  51.970  1.00  0.00    -0.368 N 
ATOM     25  H   UNL     1       2.283  44.629  51.247  1.00  0.00     0.162 HD
BRANCH  24  26
ATOM     26  C   UNL     1       2.859  42.719  51.730  1.00  0.00     0.118 C 
BRANCH  26  27
ATOM     27  C   UNL     1       4.224  42.284  51.161  1.00  0.00     0.008 C 
ATOM     28  C   UNL     1       5.046  43.462  50.620  1.00  0.00     0.005 C 
ATOM     29  C   UNL     1       4.017  41.226  50.058  1.00  0.00     0.005 C 
ATOM     30  C   UNL     1       6.437  43.022  50.156  1.00  0.00     0.000 C 
ATOM     31  C   UNL     1       5.180  41.125  49.067  1.00  0.00     0.000 C 
ATOM     32  C   UNL     1       6.498  41.569  49.684  1.00  0.00     0.000 C 
ENDBRANCH  26  27
ENDBRANCH  24  26
ENDBRANCH  10  24
TORSDOF 7
ENDMDL
MODEL 2
REMARK VINA RESULT:    -9.665      0.439      1.320
REMARK INTER + INTRA:         -15.255
REMARK INTER:                 -13.857
REMARK INTRA:                  -1.398
REMARK UNBOUND:                -1.635
REMARK SMILES N#CC(c1nc2ccccc2nc1NCC1CCCCC1)S(=O)(=O)c1ccc(F)cc1
REMARK SMILES IDX 4 1 5 2 6 3 7 4 8 5 9 6 10 7 11 8 12 9 13 10 3 11 2 12 1 13
REMARK SMILES IDX 22 14 23 15 24 16 25 17 26 18 31 19 27 20 30 21 28 22 29 23
REMARK SMILES IDX 14 24 15 26 16 27 17 28 21 29 18 30 20 31 19 32
REMARK H PARENT 14 25
ROOT
ATOM      1  C   UNL     1       3.224  45.041  54.167  1.00  0.00     0.116 A 
ATOM      2  N   UNL     1       2.711  45.351  55.390  1.00  0.00    -0.245 NA
ATOM      3  C   UNL     1       1.386  45.208  55.563  1.00  0.00     0.089 A 
ATOM      4  C   UNL     1       0.811  45.519  56.791  1.00  0.00     0.030 A 
ATOM      5  C   UNL     1      -0.560  45.376  57.006  1.00  0.00     0.002 A 
ATOM      6  C   UNL     1      -1.369  44.911  55.977  1.00  0.00     0.002 A 
ATOM      7  C   UNL     1      -0.800  44.596  54.743  1.00  0.00     0.031 A 
ATOM      8  C   UNL     1       0.566  44.737  54.517  1.00  0.00     0.091 A 
ATOM      9  N   UNL     1       1.079  44.425  53.313  1.00  0.00    -0.227 NA
ATOM     10  C   UNL     1       2.404  44.587  53.119  1.00  0.00     0.151 A 
ENDROOT
BRANCH   1  11
ATOM     11  C   UNL     1       4.714  45.136  53.981  1.00  0.00     0.268 C 
BRANCH  11  12
ATOM     12  C   UNL     1       5.510  44.816  55.162  1.00  0.00     0.089 C 
ATOM     13  N   UNL     1       6.111  44.633  56.139  1.00  0.00    -0.196 NA
ENDBRANCH  11  12
BRANCH  11  14
ATOM     14  S   UNL     1       5.089  46.824  53.549  1.00  0.00     0.200 S 
ATOM     15  O   UNL     1       4.945  47.704  54.694  1.00  0.00    -0.222 OA
ATOM     16  O   UNL     1       4.410  47.159  52.304  1.00  0.00    -0.222 OA
BRANCH  14  17
ATOM     17  C   UNL     1       6.828  46.795  53.131  1.00  0.00     0.069 A 
ATOM     18  C   UNL     1       7.781  47.141  54.096  1.00  0.00     0.023 A 
ATOM     19  C   UNL     1       7.211  46.468  51.823  1.00  0.00     0.023 A 
ATOM     20  C   UNL     1       9.134  47.129  53.754  1.00  0.00     0.040 A 
ATOM     21  C   UNL     1       8.567  46.462  51.493  1.00  0.00     0.040 A 
ATOM     22  C   UNL     1       9.515  46.788  52.459  1.00  0.00     0.123 A 
ATOM     23  F   UNL     1      10.814  46.781  52.134  1.00  0.00    -0.207 F 
ENDBRANCH  14  17
ENDBRANCH  11  14
ENDBRANCH   1  11
BRANCH  10  24
ATOM     24  N   UNL     1       2.967  44.287  51.860  1.00  0.00    -0.368 N 
ATOM     25  H   UNL     1       2.255  44.507  51.150  1.00  0.00     0.162 HD
BRANCH  24  26
ATOM     26  C   UNL     1       3.389  42.889  51.708  1.00  0.00     0.118 C 
BRANCH  26  27
ATOM     27  C   UNL     1       4.349  42.755  50.510  1.00  0.00     0.008 C 
ATOM     28  C   UNL     1       4.988  41.364  50.411  1.00  0.00     0.005 C 
ATOM     29  C   UNL     1       5.443  43.840  50.592  1.00  0.00     0.005 C 
ATOM     30  C   UNL     1       5.855  41.220  49.157  1.00  0.00     0.000 C 
ATOM     31  C   UNL     1       6.721  43.494  49.823  1.00  0.00     0.000 C 
ATOM     32  C   UNL     1       6.454  42.540  48.669  1.00  0.00     0.000 C 
ENDBRANCH  26  27
ENDBRANCH  24  26
ENDBRANCH  10  24
TORSDOF 7
ENDMDL
MODEL 3
REMARK VINA RESULT:    -9.202      2.055      4.591
REMARK INTER + INTRA:         -14.603
REMARK INTER:                 -13.370
REMARK INTRA:                  -1.233
REMARK UNBOUND:                -1.635
REMARK SMILES N#CC(c1nc2ccccc2nc1NCC1CCCCC1)S(=O)(=O)c1ccc(F)cc1
REMARK SMILES IDX 4 1 5 2 6 3 7 4 8 5 9 6 10 7 11 8 12 9 13 10 3 11 2 12 1 13
REMARK SMILES IDX 22 14 23 15 24 16 25 17 26 18 31 19 27 20 30 21 28 22 29 23
REMARK SMILES IDX 14 24 15 26 16 27 17 28 21 29 18 30 20 31 19 32
REMARK H PARENT 14 25
ROOT
ATOM      1  C   UNL     1       3.202  45.279  53.623  1.00  0.00     0.116 A 
ATOM      2  N   UNL     1       1.862  45.090  53.475  1.00  0.00    -0.245 NA
ATOM      3  C   UNL     1       1.107  45.091  54.588  1.00  0.00     0.089 A 
ATOM      4  C   UNL     1      -0.266  44.894  54.493  1.00  0.00     0.030 A 
ATOM      5  C   UNL     1      -1.079  44.896  55.626  1.00  0.00     0.002 A 
ATOM      6  C   UNL     1      -0.508  45.100  56.877  1.00  0.00     0.002 A 
ATOM      7  C   UNL     1       0.868  45.299  56.981  1.00  0.00     0.031 A 
ATOM      8  C   UNL     1       1.688  45.297  55.856  1.00  0.00     0.091 A 
ATOM      9  N   UNL     1       3.013  45.490  55.996  1.00  0.00    -0.227 NA
ATOM     10  C   UNL     1       3.784  45.469  54.889  1.00  0.00     0.151 A 
ENDROOT
BRANCH   1  11
ATOM     11  C   UNL     1       4.048  45.344  52.380  1.00  0.00     0.268 C 
BRANCH  11  12
ATOM     12  C   UNL     1       3.518  46.185  51.311  1.00  0.00     0.089 C 
ATOM     13  N   UNL     1       3.171  46.842  50.417  1.00  0.00    -0.196 NA
ENDBRANCH  11  12
BRANCH  11  14
ATOM     14  S   UNL     1       4.159  43.690  51.726  1.00  0.00     0.200 S 
ATOM     15  O   UNL     1       3.056  43.406  50.826  1.00  0.00    -0.222 OA
ATOM     16  O   UNL     1       4.446  42.765  52.815  1.00  0.00    -0.222 OA
BRANCH  14  17
ATOM     17  C   UNL     1       5.648  43.709  50.735  1.00  0.00     0.069 A 
ATOM     18  C   UNL     1       6.019  42.566  50.016  1.00  0.00     0.023 A 
ATOM     19  C   UNL     1       6.450  44.857  50.728  1.00  0.00     0.023 A 
ATOM     20  C   UNL     1       7.191  42.587  49.259  1.00  0.00     0.040 A 
ATOM     21  C   UNL     1       7.621  44.865  49.968  1.00  0.00     0.040 A 
ATOM     22  C   UNL     1       7.978  43.734  49.239  1.00  0.00     0.123 A 
ATOM     23  F   UNL     1       9.104  43.749  48.513  1.00  0.00    -0.207 F 
ENDBRANCH  14  17
ENDBRANCH  11  14
ENDBRANCH   1  11
BRANCH  10  24
ATOM     24  N   UNL     1       5.178  45.648  55.007  1.00  0.00    -0.368 N 
ATOM     25  H   UNL     1       5.421  45.491  55.994  1.00  0.00     0.162 HD
BRANCH  24  26
ATOM     26  C   UNL     1       5.650  46.976  54.596  1.00  0.00     0.118 C 
BRANCH  26  27
ATOM     27  C   UNL     1       6.978  46.849  53.824  1.00  0.00     0.008 C 
ATOM     28  C   UNL     1       8.198  47.242  54.668  1.00  0.00     0.005 C 
ATOM     29  C   UNL     1       6.921  47.701  52.540  1.00  0.00     0.005 C 
ATOM     30  C   UNL     1       9.512  47.009  53.917  1.00  0.00     0.000 C 
ATOM     31  C   UNL     1       8.295  48.099  51.995  1.00  0.00     0.000 C 
ATOM     32  C   UNL     1       9.379  47.110  52.398  1.00  0.00     0.000 C 
ENDBRANCH  26  27
ENDBRANCH  24  26
ENDBRANCH  10  24
TORSDOF 7
ENDMDL
MODEL 4
REMARK VINA RESULT:    -8.749      3.320      6.666
REMARK INTER + INTRA:         -13.965
REMARK INTER:                 -12.140
REMARK INTRA:                  -1.824
REMARK UNBOUND:                -1.635
REMARK SMILES N#CC(c1nc2ccccc2nc1NCC1CCCCC1)S(=O)(=O)c1ccc(F)cc1
REMARK SMILES IDX 4 1 5 2 6 3 7 4 8 5 9 6 10 7 11 8 12 9 13 10 3 11 2 12 1 13
REMARK SMILES IDX 22 14 23 15 24 16 25 17 26 18 31 19 27 20 30 21 28 22 29 23
REMARK SMILES IDX 14 24 15 26 16 27 17 28 21 29 18 30 20 31 19 32
REMARK H PARENT 14 25
ROOT
ATOM      1  C   UNL     1       5.846  46.088  52.321  1.00  0.00     0.116 A 
ATOM      2  N   UNL     1       6.337  46.697  53.436  1.00  0.00    -0.245 NA
ATOM      3  C   UNL     1       7.670  46.840  53.531  1.00  0.00     0.089 A 
ATOM      4  C   UNL     1       8.222  47.448  54.653  1.00  0.00     0.030 A 
ATOM      5  C   UNL     1       9.600  47.619  54.780  1.00  0.00     0.002 A 
ATOM      6  C   UNL     1      10.441  47.175  53.767  1.00  0.00     0.002 A 
ATOM      7  C   UNL     1       9.895  46.564  52.638  1.00  0.00     0.031 A 
ATOM      8  C   UNL     1       8.522  46.388  52.502  1.00  0.00     0.091 A 
ATOM      9  N   UNL     1       8.031  45.793  51.399  1.00  0.00    -0.227 NA
ATOM     10  C   UNL     1       6.696  45.622  51.303  1.00  0.00     0.151 A 
ENDROOT
BRANCH   1  11
ATOM     11  C   UNL     1       4.352  45.979  52.174  1.00  0.00     0.268 C 
BRANCH  11  12
ATOM     12  C   UNL     1       3.611  47.207  52.441  1.00  0.00     0.089 C 
ATOM     13  N   UNL     1       3.093  48.218  52.688  1.00  0.00    -0.196 NA
ENDBRANCH  11  12
BRANCH  11  14
ATOM     14  S   UNL     1       3.789  44.770  53.356  1.00  0.00     0.200 S 
ATOM     15  O   UNL     1       3.433  45.394  54.617  1.00  0.00    -0.222 OA
ATOM     16  O   UNL     1       4.708  43.638  53.355  1.00  0.00    -0.222 OA
BRANCH  14  17
ATOM     17  C   UNL     1       2.276  44.133  52.644  1.00  0.00     0.069 A 
ATOM     18  C   UNL     1       1.184  43.848  53.473  1.00  0.00     0.023 A 
ATOM     19  C   UNL     1       2.220  43.883  51.267  1.00  0.00     0.023 A 
ATOM     20  C   UNL     1       0.015  43.337  52.909  1.00  0.00     0.040 A 
ATOM     21  C   UNL     1       1.046  43.370  50.715  1.00  0.00     0.040 A 
ATOM     22  C   UNL     1      -0.046  43.106  51.538  1.00  0.00     0.123 A 
ATOM     23  F   UNL     1      -1.169  42.612  51.001  1.00  0.00    -0.207 F 
ENDBRANCH  14  17
ENDBRANCH  11  14
ENDBRANCH   1  11
BRANCH  10  24
ATOM     24  N   UNL     1       6.155  44.984  50.167  1.00  0.00    -0.368 N 
ATOM     25  H   UNL     1       5.132  44.987  50.276  1.00  0.00     0.162 HD
BRANCH  24  26
ATOM     26  C   UNL     1       6.618  43.604  49.975  1.00  0.00     0.118 C 
BRANCH  26  27
ATOM     27  C   UNL     1       5.467  42.730  49.441  1.00  0.00     0.008 C 
ATOM     28  C   UNL     1       5.071  41.608  50.410  1.00  0.00     0.005 C 
ATOM     29  C   UNL     1       5.851  42.139  48.069  1.00  0.00     0.005 C 
ATOM     30  C   UNL     1       3.859  40.819  49.907  1.00  0.00     0.000 C 
ATOM     31  C   UNL     1       5.080  40.868  47.701  1.00  0.00     0.000 C 
ATOM     32  C   UNL     1       3.723  40.804  48.385  1.00  0.00     0.000 C 
ENDBRANCH  26  27
ENDBRANCH  24  26
ENDBRANCH  10  24
TORSDOF 7
ENDMDL
MODEL 5
REMARK VINA RESULT:    -8.649      1.889      2.589
REMARK INTER + INTRA:         -13.824
REMARK INTER:                 -12.536
REMARK INTRA:                  -1.288
REMARK UNBOUND:                -1.635
REMARK SMILES N#CC(c1nc2ccccc2nc1NCC1CCCCC1)S(=O)(=O)c1ccc(F)cc1
REMARK SMILES IDX 4 1 5 2 6 3 7 4 8 5 9 6 10 7 11 8 12 9 13 10 3 11 2 12 1 13
REMARK SMILES IDX 22 14 23 15 24 16 25 17 26 18 31 19 27 20 30 21 28 22 29 23
REMARK SMILES IDX 14 24 15 26 16 27 17 28 21 29 18 30 20 31 19 32
REMARK H PARENT 14 25
ROOT
ATOM      1  C   UNL     1       2.480  44.624  52.845  1.00  0.00     0.116 A 
ATOM      2  N   UNL     1       1.311  45.321  52.790  1.00  0.00    -0.245 NA
ATOM      3  C   UNL     1       0.261  44.729  52.195  1.00  0.00     0.089 A 
ATOM      4  C   UNL     1      -0.953  45.401  52.105  1.00  0.00     0.030 A 
ATOM      5  C   UNL     1      -2.064  44.813  51.500  1.00  0.00     0.002 A 
ATOM      6  C   UNL     1      -1.959  43.530  50.978  1.00  0.00     0.002 A 
ATOM      7  C   UNL     1      -0.744  42.849  51.064  1.00  0.00     0.031 A 
ATOM      8  C   UNL     1       0.370  43.427  51.664  1.00  0.00     0.091 A 
ATOM      9  N   UNL     1       1.526  42.740  51.727  1.00  0.00    -0.227 NA
ATOM     10  C   UNL     1       2.593  43.333  52.301  1.00  0.00     0.151 A 
ENDROOT
BRANCH   1  11
ATOM     11  C   UNL     1       3.643  45.252  53.565  1.00  0.00     0.268 C 
BRANCH  11  12
ATOM     12  C   UNL     1       3.368  45.687  54.931  1.00  0.00     0.089 C 
ATOM     13  N   UNL     1       3.233  46.027  56.034  1.00  0.00    -0.196 NA
ENDBRANCH  11  12
BRANCH  11  14
ATOM     14  S   UNL     1       4.115  46.705  52.648  1.00  0.00     0.200 S 
ATOM     15  O   UNL     1       3.516  47.900  53.211  1.00  0.00    -0.222 OA
ATOM     16  O   UNL     1       3.966  46.437  51.222  1.00  0.00    -0.222 OA
BRANCH  14  17
ATOM     17  C   UNL     1       5.880  46.834  52.909  1.00  0.00     0.069 A 
ATOM     18  C   UNL     1       6.743  46.899  51.807  1.00  0.00     0.023 A 
ATOM     19  C   UNL     1       6.381  46.822  54.217  1.00  0.00     0.023 A 
ATOM     20  C   UNL     1       8.119  46.984  52.023  1.00  0.00     0.040 A 
ATOM     21  C   UNL     1       7.759  46.906  54.420  1.00  0.00     0.040 A 
ATOM     22  C   UNL     1       8.614  46.990  53.324  1.00  0.00     0.123 A 
ATOM     23  F   UNL     1       9.936  47.068  53.526  1.00  0.00    -0.207 F 
ENDBRANCH  14  17
ENDBRANCH  11  14
ENDBRANCH   1  11
BRANCH  10  24
ATOM     24  N   UNL     1       3.823  42.645  52.364  1.00  0.00    -0.368 N 
ATOM     25  H   UNL     1       4.565  43.355  52.430  1.00  0.00     0.162 HD
BRANCH  24  26
ATOM     26  C   UNL     1       4.085  41.775  51.211  1.00  0.00     0.118 C 
BRANCH  26  27
ATOM     27  C   UNL     1       5.416  42.170  50.543  1.00  0.00     0.008 C 
ATOM     28  C   UNL     1       5.630  43.689  50.494  1.00  0.00     0.005 C 
ATOM     29  C   UNL     1       5.486  41.575  49.122  1.00  0.00     0.005 C 
ATOM     30  C   UNL     1       7.002  44.055  49.921  1.00  0.00     0.000 C 
ATOM     31  C   UNL     1       6.444  42.314  48.184  1.00  0.00     0.000 C 
ATOM     32  C   UNL     1       7.557  43.020  48.943  1.00  0.00     0.000 C 
ENDBRANCH  26  27
ENDBRANCH  24  26
ENDBRANCH  10  24
TORSDOF 7
ENDMDL
MODEL 6
REMARK VINA RESULT:    -8.572      3.058      6.613
REMARK INTER + INTRA:         -13.715
REMARK INTER:                 -12.708
REMARK INTRA:                  -1.006
REMARK UNBOUND:                -1.635
REMARK SMILES N#CC(c1nc2ccccc2nc1NCC1CCCCC1)S(=O)(=O)c1ccc(F)cc1
REMARK SMILES IDX 4 1 5 2 6 3 7 4 8 5 9 6 10 7 11 8 12 9 13 10 3 11 2 12 1 13
REMARK SMILES IDX 22 14 23 15 24 16 25 17 26 18 31 19 27 20 30 21 28 22 29 23
REMARK SMILES IDX 14 24 15 26 16 27 17 28 21 29 18 30 20 31 19 32
REMARK H PARENT 14 25
ROOT
ATOM      1  C   UNL     1       5.637  46.659  52.756  1.00  0.00     0.116 A 
ATOM      2  N   UNL     1       6.648  47.182  53.504  1.00  0.00    -0.245 NA
ATOM      3  C   UNL     1       7.908  46.923  53.115  1.00  0.00     0.089 A 
ATOM      4  C   UNL     1       8.976  47.427  53.849  1.00  0.00     0.030 A 
ATOM      5  C   UNL     1      10.296  47.182  53.470  1.00  0.00     0.002 A 
ATOM      6  C   UNL     1      10.551  46.421  52.336  1.00  0.00     0.002 A 
ATOM      7  C   UNL     1       9.485  45.912  51.594  1.00  0.00     0.031 A 
ATOM      8  C   UNL     1       8.166  46.149  51.965  1.00  0.00     0.091 A 
ATOM      9  N   UNL     1       7.162  45.640  51.225  1.00  0.00    -0.227 NA
ATOM     10  C   UNL     1       5.894  45.875  51.618  1.00  0.00     0.151 A 
ENDROOT
BRANCH   1  11
ATOM     11  C   UNL     1       4.223  46.996  53.145  1.00  0.00     0.268 C 
BRANCH  11  12
ATOM     12  C   UNL     1       4.018  48.359  53.624  1.00  0.00     0.089 C 
ATOM     13  N   UNL     1       3.932  49.466  53.970  1.00  0.00    -0.196 NA
ENDBRANCH  11  12
BRANCH  11  14
ATOM     14  S   UNL     1       3.765  45.908  54.480  1.00  0.00     0.200 S 
ATOM     15  O   UNL     1       3.657  46.630  55.733  1.00  0.00    -0.222 OA
ATOM     16  O   UNL     1       4.588  44.706  54.419  1.00  0.00    -0.222 OA
BRANCH  14  17
ATOM     17  C   UNL     1       2.117  45.357  54.052  1.00  0.00     0.069 A 
ATOM     18  C   UNL     1       1.398  44.554  54.946  1.00  0.00     0.023 A 
ATOM     19  C   UNL     1       1.584  45.701  52.803  1.00  0.00     0.023 A 
ATOM     20  C   UNL     1       0.120  44.118  54.595  1.00  0.00     0.040 A 
ATOM     21  C   UNL     1       0.306  45.258  52.462  1.00  0.00     0.040 A 
ATOM     22  C   UNL     1      -0.415  44.475  53.361  1.00  0.00     0.123 A 
ATOM     23  F   UNL     1      -1.641  44.052  53.027  1.00  0.00    -0.207 F 
ENDBRANCH  14  17
ENDBRANCH  11  14
ENDBRANCH   1  11
BRANCH  10  24
ATOM     24  N   UNL     1       4.823  45.337  50.874  1.00  0.00    -0.368 N 
ATOM     25  H   UNL     1       4.052  46.017  50.918  1.00  0.00     0.162 HD
BRANCH  24  26
ATOM     26  C   UNL     1       4.349  44.034  51.356  1.00  0.00     0.118 C 
BRANCH  26  27
ATOM     27  C   UNL     1       4.456  42.984  50.234  1.00  0.00     0.008 C 
ATOM     28  C   UNL     1       3.672  41.702  50.541  1.00  0.00     0.005 C 
ATOM     29  C   UNL     1       5.939  42.652  49.968  1.00  0.00     0.005 C 
ATOM     30  C   UNL     1       3.707  40.716  49.369  1.00  0.00     0.000 C 
ATOM     31  C   UNL     1       6.163  41.287  49.311  1.00  0.00     0.000 C 
ATOM     32  C   UNL     1       4.958  40.838  48.499  1.00  0.00     0.000 C 
ENDBRANCH  26  27
ENDBRANCH  24  26
ENDBRANCH  10  24
TORSDOF 7
ENDMDL
MODEL 7
REMARK VINA RESULT:    -8.420      2.678      6.938
REMARK INTER + INTRA:         -13.501
REMARK INTER:                 -12.836
REMARK INTRA:                  -0.666
REMARK UNBOUND:                -1.635
REMARK SMILES N#CC(c1nc2ccccc2nc1NCC1CCCCC1)S(=O)(=O)c1ccc(F)cc1
REMARK SMILES IDX 4 1 5 2 6 3 7 4 8 5 9 6 10 7 11 8 12 9 13 10 3 11 2 12 1 13
REMARK SMILES IDX 22 14 23 15 24 16 25 17 26 18 31 19 27 20 30 21 28 22 29 23
REMARK SMILES IDX 14 24 15 26 16 27 17 28 21 29 18 30 20 31 19 32
REMARK H PARENT 14 25
ROOT
ATOM      1  C   UNL     1       5.949  45.080  52.174  1.00  0.00     0.116 A 
ATOM      2  N   UNL     1       5.221  43.931  52.101  1.00  0.00    -0.245 NA
ATOM      3  C   UNL     1       5.369  43.170  51.003  1.00  0.00     0.089 A 
ATOM      4  C   UNL     1       4.642  41.992  50.875  1.00  0.00     0.030 A 
ATOM      5  C   UNL     1       4.776  41.176  49.751  1.00  0.00     0.002 A 
ATOM      6  C   UNL     1       5.654  41.545  48.739  1.00  0.00     0.002 A 
ATOM      7  C   UNL     1       6.386  42.725  48.860  1.00  0.00     0.031 A 
ATOM      8  C   UNL     1       6.258  43.547  49.976  1.00  0.00     0.091 A 
ATOM      9  N   UNL     1       6.981  44.680  50.057  1.00  0.00    -0.227 NA
ATOM     10  C   UNL     1       6.824  45.463  51.143  1.00  0.00     0.151 A 
ENDROOT
BRANCH   1  11
ATOM     11  C   UNL     1       5.840  45.906  53.427  1.00  0.00     0.268 C 
BRANCH  11  12
ATOM     12  C   UNL     1       5.716  45.145  54.666  1.00  0.00     0.089 C 
ATOM     13  N   UNL     1       5.704  44.525  55.650  1.00  0.00    -0.196 NA
ENDBRANCH  11  12
BRANCH  11  14
ATOM     14  S   UNL     1       4.367  46.898  53.283  1.00  0.00     0.200 S 
ATOM     15  O   UNL     1       4.128  47.288  51.906  1.00  0.00    -0.222 OA
ATOM     16  O   UNL     1       4.378  47.922  54.321  1.00  0.00    -0.222 OA
BRANCH  14  17
ATOM     17  C   UNL     1       3.043  45.788  53.748  1.00  0.00     0.069 A 
ATOM     18  C   UNL     1       2.400  45.024  52.766  1.00  0.00     0.023 A 
ATOM     19  C   UNL     1       2.635  45.733  55.087  1.00  0.00     0.023 A 
ATOM     20  C   UNL     1       1.359  44.173  53.138  1.00  0.00     0.040 A 
ATOM     21  C   UNL     1       1.591  44.879  55.446  1.00  0.00     0.040 A 
ATOM     22  C   UNL     1       0.966  44.106  54.471  1.00  0.00     0.123 A 
ATOM     23  F   UNL     1      -0.036  43.290  54.823  1.00  0.00    -0.207 F 
ENDBRANCH  14  17
ENDBRANCH  11  14
ENDBRANCH   1  11
BRANCH  10  24
ATOM     24  N   UNL     1       7.553  46.667  51.246  1.00  0.00    -0.368 N 
ATOM     25  H   UNL     1       7.383  47.199  50.382  1.00  0.00     0.162 HD
BRANCH  24  26
ATOM     26  C   UNL     1       8.998  46.482  51.425  1.00  0.00     0.118 C 
BRANCH  26  27
ATOM     27  C   UNL     1       9.460  47.163  52.728  1.00  0.00     0.008 C 
ATOM     28  C   UNL     1       9.872  46.157  53.812  1.00  0.00     0.005 C 
ATOM     29  C   UNL     1       8.348  48.092  53.257  1.00  0.00     0.005 C 
ATOM     30  C   UNL     1      10.425  46.855  55.058  1.00  0.00     0.000 C 
ATOM     31  C   UNL     1       8.439  48.381  54.757  1.00  0.00     0.000 C 
ATOM     32  C   UNL     1       9.863  48.260  55.278  1.00  0.00     0.000 C 
ENDBRANCH  26  27
ENDBRANCH  24  26
ENDBRANCH  10  24
TORSDOF 7
ENDMDL
MODEL 8
REMARK VINA RESULT:    -8.022      3.220      7.616
REMARK INTER + INTRA:         -12.939
REMARK INTER:                 -12.170
REMARK INTRA:                  -0.769
REMARK UNBOUND:                -1.635
REMARK SMILES N#CC(c1nc2ccccc2nc1NCC1CCCCC1)S(=O)(=O)c1ccc(F)cc1
REMARK SMILES IDX 4 1 5 2 6 3 7 4 8 5 9 6 10 7 11 8 12 9 13 10 3 11 2 12 1 13
REMARK SMILES IDX 22 14 23 15 24 16 25 17 26 18 31 19 27 20 30 21 28 22 29 23
REMARK SMILES IDX 14 24 15 26 16 27 17 28 21 29 18 30 20 31 19 32
REMARK H PARENT 14 25
ROOT
ATOM      1  C   UNL     1       3.258  43.436  52.428  1.00  0.00     0.116 A 
ATOM      2  N   UNL     1       2.993  42.452  51.525  1.00  0.00    -0.245 NA
ATOM      3  C   UNL     1       3.950  42.158  50.627  1.00  0.00     0.089 A 
ATOM      4  C   UNL     1       3.726  41.167  49.678  1.00  0.00     0.030 A 
ATOM      5  C   UNL     1       4.700  40.834  48.736  1.00  0.00     0.002 A 
ATOM      6  C   UNL     1       5.918  41.501  48.746  1.00  0.00     0.002 A 
ATOM      7  C   UNL     1       6.150  42.497  49.695  1.00  0.00     0.031 A 
ATOM      8  C   UNL     1       5.185  42.838  50.637  1.00  0.00     0.091 A 
ATOM      9  N   UNL     1       5.443  43.805  51.537  1.00  0.00    -0.227 NA
ATOM     10  C   UNL     1       4.483  44.125  52.429  1.00  0.00     0.151 A 
ENDROOT
BRANCH   1  11
ATOM     11  C   UNL     1       2.220  43.729  53.478  1.00  0.00     0.268 C 
BRANCH  11  12
ATOM     12  C   UNL     1       1.244  42.666  53.701  1.00  0.00     0.089 C 
ATOM     13  N   UNL     1       0.451  41.822  53.794  1.00  0.00    -0.196 NA
ENDBRANCH  11  12
BRANCH  11  14
ATOM     14  S   UNL     1       1.307  45.161  52.938  1.00  0.00     0.200 S 
ATOM     15  O   UNL     1       0.899  45.032  51.551  1.00  0.00    -0.222 OA
ATOM     16  O   UNL     1       2.011  46.364  53.364  1.00  0.00    -0.222 OA
BRANCH  14  17
ATOM     17  C   UNL     1      -0.185  45.128  53.924  1.00  0.00     0.069 A 
ATOM     18  C   UNL     1      -0.102  45.270  55.315  1.00  0.00     0.023 A 
ATOM     19  C   UNL     1      -1.418  44.915  53.294  1.00  0.00     0.023 A 
ATOM     20  C   UNL     1      -1.271  45.227  56.076  1.00  0.00     0.040 A 
ATOM     21  C   UNL     1      -2.579  44.873  54.066  1.00  0.00     0.040 A 
ATOM     22  C   UNL     1      -2.497  45.032  55.447  1.00  0.00     0.123 A 
ATOM     23  F   UNL     1      -3.616  44.989  56.181  1.00  0.00    -0.207 F 
ENDBRANCH  14  17
ENDBRANCH  11  14
ENDBRANCH   1  11
BRANCH  10  24
ATOM     24  N   UNL     1       4.719  45.148  53.371  1.00  0.00    -0.368 N 
ATOM     25  H   UNL     1       3.810  45.390  53.789  1.00  0.00     0.162 HD
BRANCH  24  26
ATOM     26  C   UNL     1       5.330  46.357  52.806  1.00  0.00     0.118 C 
BRANCH  26  27
ATOM     27  C   UNL     1       6.863  46.294  52.956  1.00  0.00     0.008 C 
ATOM     28  C   UNL     1       7.386  47.175  54.098  1.00  0.00     0.005 C 
ATOM     29  C   UNL     1       7.536  46.688  51.625  1.00  0.00     0.005 C 
ATOM     30  C   UNL     1       8.897  47.016  54.296  1.00  0.00     0.000 C 
ATOM     31  C   UNL     1       8.973  47.191  51.781  1.00  0.00     0.000 C 
ATOM     32  C   UNL     1       9.647  46.626  53.022  1.00  0.00     0.000 C 
ENDBRANCH  26  27
ENDBRANCH  24  26
ENDBRANCH  10  24
TORSDOF 7
ENDMDL
MODEL 9
REMARK VINA RESULT:    -7.986      1.497      5.419
REMARK INTER + INTRA:         -12.889
REMARK INTER:                 -13.370
REMARK INTRA:                   0.480
REMARK UNBOUND:                -1.635
REMARK SMILES N#CC(c1nc2ccccc2nc1NCC1CCCCC1)S(=O)(=O)c1ccc(F)cc1
REMARK SMILES IDX 4 1 5 2 6 3 7 4 8 5 9 6 10 7 11 8 12 9 13 10 3 11 2 12 1 13
REMARK SMILES IDX 22 14 23 15 24 16 25 17 26 18 31 19 27 20 30 21 28 22 29 23
REMARK SMILES IDX 14 24 15 26 16 27 17 28 21 29 18 30 20 31 19 32
REMARK H PARENT 14 25
ROOT
ATOM      1  C   UNL     1       4.359  44.167  52.818  1.00  0.00     0.116 A 
ATOM      2  N   UNL     1       5.398  44.054  51.945  1.00  0.00    -0.245 NA
ATOM      3  C   UNL     1       5.310  43.109  50.993  1.00  0.00     0.089 A 
ATOM      4  C   UNL     1       6.348  42.947  50.082  1.00  0.00     0.030 A 
ATOM      5  C   UNL     1       6.286  41.981  49.078  1.00  0.00     0.002 A 
ATOM      6  C   UNL     1       5.167  41.163  48.983  1.00  0.00     0.002 A 
ATOM      7  C   UNL     1       4.122  41.319  49.894  1.00  0.00     0.031 A 
ATOM      8  C   UNL     1       4.175  42.279  50.900  1.00  0.00     0.091 A 
ATOM      9  N   UNL     1       3.147  42.399  51.762  1.00  0.00    -0.227 NA
ATOM     10  C   UNL     1       3.233  43.329  52.735  1.00  0.00     0.151 A 
ENDROOT
BRANCH   1  11
ATOM     11  C   UNL     1       4.417  45.263  53.848  1.00  0.00     0.268 C 
BRANCH  11  12
ATOM     12  C   UNL     1       3.190  45.463  54.613  1.00  0.00     0.089 C 
ATOM     13  N   UNL     1       2.260  45.670  55.278  1.00  0.00    -0.196 NA
ENDBRANCH  11  12
BRANCH  11  14
ATOM     14  S   UNL     1       4.739  46.788  52.983  1.00  0.00     0.200 S 
ATOM     15  O   UNL     1       4.197  47.925  53.704  1.00  0.00    -0.222 OA
ATOM     16  O   UNL     1       4.410  46.615  51.574  1.00  0.00    -0.222 OA
BRANCH  14  17
ATOM     17  C   UNL     1       6.520  46.947  53.023  1.00  0.00     0.069 A 
ATOM     18  C   UNL     1       7.228  47.139  51.829  1.00  0.00     0.023 A 
ATOM     19  C   UNL     1       7.190  46.832  54.247  1.00  0.00     0.023 A 
ATOM     20  C   UNL     1       8.618  47.246  51.871  1.00  0.00     0.040 A 
ATOM     21  C   UNL     1       8.581  46.939  54.276  1.00  0.00     0.040 A 
ATOM     22  C   UNL     1       9.281  47.149  53.090  1.00  0.00     0.123 A 
ATOM     23  F   UNL     1      10.617  47.249  53.125  1.00  0.00    -0.207 F 
ENDBRANCH  14  17
ENDBRANCH  11  14
ENDBRANCH   1  11
BRANCH  10  24
ATOM     24  N   UNL     1       2.181  43.464  53.665  1.00  0.00    -0.368 N 
ATOM     25  H   UNL     1       2.579  43.299  54.600  1.00  0.00     0.162 HD
BRANCH  24  26
ATOM     26  C   UNL     1       1.061  42.541  53.445  1.00  0.00     0.118 C 
BRANCH  26  27
ATOM     27  C   UNL     1      -0.246  43.334  53.245  1.00  0.00     0.008 C 
ATOM     28  C   UNL     1      -0.045  44.616  52.425  1.00  0.00     0.005 C 
ATOM     29  C   UNL     1      -0.869  43.670  54.615  1.00  0.00     0.005 C 
ATOM     30  C   UNL     1      -1.370  45.333  52.150  1.00  0.00     0.000 C 
ATOM     31  C   UNL     1      -1.814  44.874  54.591  1.00  0.00     0.000 C 
ATOM     32  C   UNL     1      -2.436  45.086  53.219  1.00  0.00     0.000 C 
ENDBRANCH  26  27
ENDBRANCH  24  26
ENDBRANCH  10  24
TORSDOF 7
ENDMDL
MODEL 10
REMARK VINA RESULT:    -7.922      3.123      7.696
REMARK INTER + INTRA:         -12.799
REMARK INTER:                 -10.921
REMARK INTRA:                  -1.878
REMARK UNBOUND:                -1.635
REMARK SMILES N#CC(c1nc2ccccc2nc1NCC1CCCCC1)S(=O)(=O)c1ccc(F)cc1
REMARK SMILES IDX 4 1 5 2 6 3 7 4 8 5 9 6 10 7 11 8 12 9 13 10 3 11 2 12 1 13
REMARK SMILES IDX 22 14 23 15 24 16 25 17 26 18 31 19 27 20 30 21 28 22 29 23
REMARK SMILES IDX 14 24 15 26 16 27 17 28 21 29 18 30 20 31 19 32
REMARK H PARENT 14 25
ROOT
ATOM      1  C   UNL     1       4.838  45.065  53.078  1.00  0.00     0.116 A 
ATOM      2  N   UNL     1       5.789  45.473  52.193  1.00  0.00    -0.245 NA
ATOM      3  C   UNL     1       6.843  46.150  52.681  1.00  0.00     0.089 A 
ATOM      4  C   UNL     1       7.838  46.596  51.818  1.00  0.00     0.030 A 
ATOM      5  C   UNL     1       8.948  47.296  52.292  1.00  0.00     0.002 A 
ATOM      6  C   UNL     1       9.065  47.552  53.652  1.00  0.00     0.002 A 
ATOM      7  C   UNL     1       8.071  47.108  54.524  1.00  0.00     0.031 A 
ATOM      8  C   UNL     1       6.959  46.411  54.061  1.00  0.00     0.091 A 
ATOM      9  N   UNL     1       6.019  45.999  54.933  1.00  0.00    -0.227 NA
ATOM     10  C   UNL     1       4.946  45.339  54.453  1.00  0.00     0.151 A 
ENDROOT
BRANCH   1  11
ATOM     11  C   UNL     1       3.686  44.251  52.552  1.00  0.00     0.268 C 
BRANCH  11  12
ATOM     12  C   UNL     1       4.030  43.287  51.511  1.00  0.00     0.089 C 
ATOM     13  N   UNL     1       4.375  42.500  50.729  1.00  0.00    -0.196 NA
ENDBRANCH  11  12
BRANCH  11  14
ATOM     14  S   UNL     1       2.516  45.387  51.834  1.00  0.00     0.200 S 
ATOM     15  O   UNL     1       2.757  45.563  50.414  1.00  0.00    -0.222 OA
ATOM     16  O   UNL     1       2.408  46.563  52.689  1.00  0.00    -0.222 OA
BRANCH  14  17
ATOM     17  C   UNL     1       0.940  44.555  51.996  1.00  0.00     0.069 A 
ATOM     18  C   UNL     1      -0.235  45.308  52.115  1.00  0.00     0.023 A 
ATOM     19  C   UNL     1       0.908  43.156  52.048  1.00  0.00     0.023 A 
ATOM     20  C   UNL     1      -1.456  44.648  52.256  1.00  0.00     0.040 A 
ATOM     21  C   UNL     1      -0.319  42.507  52.192  1.00  0.00     0.040 A 
ATOM     22  C   UNL     1      -1.488  43.257  52.291  1.00  0.00     0.123 A 
ATOM     23  F   UNL     1      -2.663  42.628  52.429  1.00  0.00    -0.207 F 
ENDBRANCH  14  17
ENDBRANCH  11  14
ENDBRANCH   1  11
BRANCH  10  24
ATOM     24  N   UNL     1       3.935  44.913  55.340  1.00  0.00    -0.368 N 
ATOM     25  H   UNL     1       3.233  44.409  54.780  1.00  0.00     0.162 HD
BRANCH  24  26
ATOM     26  C   UNL     1       3.279  46.002  56.073  1.00  0.00     0.118 C 
BRANCH  26  27
ATOM     27  C   UNL     1       1.748  45.877  55.948  1.00  0.00     0.008 C 
ATOM     28  C   UNL     1       1.022  46.100  57.282  1.00  0.00     0.005 C 
ATOM     29  C   UNL     1       1.382  44.496  55.365  1.00  0.00     0.005 C 
ATOM     30  C   UNL     1      -0.500  46.073  57.115  1.00  0.00     0.000 C 
ATOM     31  C   UNL     1      -0.041  44.039  55.697  1.00  0.00     0.000 C 
ATOM     32  C   UNL     1      -0.977  45.212  55.945  1.00  0.00     0.000 C 
ENDBRANCH  26  27
ENDBRANCH  24  26
ENDBRANCH  10  24
TORSDOF 7
ENDMDL
