MODEL 1
REMARK VINA RESULT:    -9.161      0.000      0.000
REMARK INTER + INTRA:         -13.475
REMARK INTER:                 -12.642
REMARK INTRA:                  -0.833
REMARK UNBOUND:                -0.833
REMARK SMILES Nc1nc(Cn2cc(S(=O)(=O)N3CCCC3)ccc2=O)nc(Nc2ccccc2)n1
REMARK SMILES IDX 5 1 4 2 2 3 3 4 30 5 22 6 21 7 1 8 23 11 24 13 25 14 29 15
REMARK SMILES IDX 26 16 28 17 27 18 6 19 7 20 19 21 8 22 18 23 17 24 20 25
REMARK SMILES IDX 9 26 10 27 11 28 12 29 13 30 16 31 14 32 15 33
REMARK H PARENT 1 9 1 10 23 12
ROOT
ATOM      1  C   UNL     1       3.478  42.606  51.990  1.00  0.00     0.203 C 
ENDROOT
BRANCH   1   2
ATOM      2  C   UNL     1       4.219  42.152  50.751  1.00  0.00     0.156 A 
ATOM      3  C   UNL     1       6.032  42.221  49.442  1.00  0.00     0.225 A 
ATOM      4  N   UNL     1       5.417  42.688  50.515  1.00  0.00    -0.196 NA
ATOM      5  N   UNL     1       5.562  41.276  48.643  1.00  0.00    -0.177 NA
ATOM      6  C   UNL     1       4.366  40.787  48.959  1.00  0.00     0.232 A 
ATOM      7  N   UNL     1       3.662  41.201  50.003  1.00  0.00    -0.195 NA
BRANCH   3   8
ATOM      8  N   UNL     1       7.282  42.733  49.159  1.00  0.00    -0.368 N 
ATOM      9  H   UNL     1       7.318  43.068  48.206  1.00  0.00     0.159 HD
ATOM     10  H   UNL     1       7.569  43.380  49.880  1.00  0.00     0.159 HD
ENDBRANCH   3   8
BRANCH   6  11
ATOM     11  N   UNL     1       3.887  39.796  48.104  1.00  0.00    -0.324 N 
ATOM     12  H   UNL     1       4.040  38.891  48.523  1.00  0.00     0.170 HD
BRANCH  11  13
ATOM     13  C   UNL     1       3.181  39.818  46.896  1.00  0.00     0.041 A 
ATOM     14  C   UNL     1       2.452  38.674  46.527  1.00  0.00     0.026 A 
ATOM     15  C   UNL     1       3.181  40.898  46.006  1.00  0.00     0.026 A 
ATOM     16  C   UNL     1       1.740  38.617  45.325  1.00  0.00     0.002 A 
ATOM     17  C   UNL     1       2.469  40.846  44.802  1.00  0.00     0.002 A 
ATOM     18  C   UNL     1       1.748  39.707  44.462  1.00  0.00     0.000 A 
ENDBRANCH  11  13
ENDBRANCH   6  11
ENDBRANCH   1   2
BRANCH   1  19
ATOM     19  N   UNL     1       3.592  44.053  52.213  1.00  0.00    -0.307 N 
ATOM     20  C   UNL     1       4.575  44.533  53.072  1.00  0.00     0.111 C 
ATOM     21  C   UNL     1       2.643  44.887  51.624  1.00  0.00     0.251 C 
ATOM     22  C   UNL     1       4.673  45.840  53.356  1.00  0.00     0.099 C 
ATOM     23  C   UNL     1       2.754  46.333  51.963  1.00  0.00     0.073 C 
ATOM     24  C   UNL     1       3.719  46.767  52.785  1.00  0.00     0.029 C 
ATOM     25  O   UNL     1       1.760  44.520  50.857  1.00  0.00    -0.269 OA
BRANCH  22  26
ATOM     26  S   UNL     1       5.944  46.379  54.440  1.00  0.00     0.244 S 
ATOM     27  O   UNL     1       5.667  47.752  54.821  1.00  0.00    -0.207 OA
ATOM     28  O   UNL     1       6.149  45.373  55.466  1.00  0.00    -0.207 OA
BRANCH  26  29
ATOM     29  N   UNL     1       7.363  46.421  53.528  1.00  0.00    -0.198 NA
ATOM     30  C   UNL     1       7.315  46.823  52.108  1.00  0.00     0.102 C 
ATOM     31  C   UNL     1       8.609  46.912  54.146  1.00  0.00     0.102 C 
ATOM     32  C   UNL     1       8.525  47.729  51.923  1.00  0.00     0.018 C 
ATOM     33  C   UNL     1       9.509  47.207  52.954  1.00  0.00     0.018 C 
ENDBRANCH  26  29
ENDBRANCH  22  26
ENDBRANCH   1  19
TORSDOF 7
ENDMDL
MODEL 2
REMARK VINA RESULT:    -9.087      2.854      5.732
REMARK INTER + INTRA:         -13.372
REMARK INTER:                 -12.093
REMARK INTRA:                  -1.279
REMARK UNBOUND:                -0.833
REMARK SMILES Nc1nc(Cn2cc(S(=O)(=O)N3CCCC3)ccc2=O)nc(Nc2ccccc2)n1
REMARK SMILES IDX 5 1 4 2 2 3 3 4 30 5 22 6 21 7 1 8 23 11 24 13 25 14 29 15
REMARK SMILES IDX 26 16 28 17 27 18 6 19 7 20 19 21 8 22 18 23 17 24 20 25
REMARK SMILES IDX 9 26 10 27 11 28 12 29 13 30 16 31 14 32 15 33
REMARK H PARENT 1 9 1 10 23 12
ROOT
ATOM      1  C   UNL     1       6.771  47.473  52.407  1.00  0.00     0.203 C 
ENDROOT
BRANCH   1   2
ATOM      2  C   UNL     1       7.685  46.544  51.636  1.00  0.00     0.156 A 
ATOM      3  C   UNL     1       9.732  45.740  51.226  1.00  0.00     0.225 A 
ATOM      4  N   UNL     1       8.992  46.604  51.899  1.00  0.00    -0.196 NA
ATOM      5  N   UNL     1       9.271  44.843  50.369  1.00  0.00    -0.177 NA
ATOM      6  C   UNL     1       7.955  44.843  50.176  1.00  0.00     0.232 A 
ATOM      7  N   UNL     1       7.129  45.681  50.789  1.00  0.00    -0.195 NA
BRANCH   3   8
ATOM      8  N   UNL     1      11.090  45.750  51.469  1.00  0.00    -0.368 N 
ATOM      9  H   UNL     1      11.308  45.188  52.281  1.00  0.00     0.159 HD
ATOM     10  H   UNL     1      11.601  45.544  50.622  1.00  0.00     0.159 HD
ENDBRANCH   3   8
BRANCH   6  11
ATOM     11  N   UNL     1       7.489  43.894  49.268  1.00  0.00    -0.324 N 
ATOM     12  H   UNL     1       8.067  43.911  48.441  1.00  0.00     0.170 HD
BRANCH  11  13
ATOM     13  C   UNL     1       6.499  42.907  49.322  1.00  0.00     0.041 A 
ATOM     14  C   UNL     1       6.177  42.217  48.140  1.00  0.00     0.026 A 
ATOM     15  C   UNL     1       5.776  42.583  50.476  1.00  0.00     0.026 A 
ATOM     16  C   UNL     1       5.184  41.233  48.116  1.00  0.00     0.002 A 
ATOM     17  C   UNL     1       4.781  41.598  50.457  1.00  0.00     0.002 A 
ATOM     18  C   UNL     1       4.486  40.922  49.278  1.00  0.00     0.000 A 
ENDBRANCH  11  13
ENDBRANCH   6  11
ENDBRANCH   1   2
BRANCH   1  19
ATOM     19  N   UNL     1       5.923  46.755  53.366  1.00  0.00    -0.307 N 
ATOM     20  C   UNL     1       4.577  46.562  53.072  1.00  0.00     0.111 C 
ATOM     21  C   UNL     1       6.481  46.376  54.585  1.00  0.00     0.251 C 
ATOM     22  C   UNL     1       3.750  45.971  53.948  1.00  0.00     0.099 C 
ATOM     23  C   UNL     1       5.548  45.738  55.554  1.00  0.00     0.073 C 
ATOM     24  C   UNL     1       4.259  45.555  55.238  1.00  0.00     0.029 C 
ATOM     25  O   UNL     1       7.659  46.517  54.896  1.00  0.00    -0.269 OA
BRANCH  22  26
ATOM     26  S   UNL     1       2.066  45.750  53.507  1.00  0.00     0.244 S 
ATOM     27  O   UNL     1       1.305  45.507  54.719  1.00  0.00    -0.207 OA
ATOM     28  O   UNL     1       1.668  46.816  52.607  1.00  0.00    -0.207 OA
BRANCH  26  29
ATOM     29  N   UNL     1       1.991  44.321  52.612  1.00  0.00    -0.198 NA
ATOM     30  C   UNL     1       1.217  43.171  53.122  1.00  0.00     0.102 C 
ATOM     31  C   UNL     1       1.878  44.390  51.143  1.00  0.00     0.102 C 
ATOM     32  C   UNL     1       0.486  42.628  51.900  1.00  0.00     0.018 C 
ATOM     33  C   UNL     1       1.409  42.996  50.753  1.00  0.00     0.018 C 
ENDBRANCH  26  29
ENDBRANCH  22  26
ENDBRANCH   1  19
TORSDOF 7
ENDMDL
MODEL 3
REMARK VINA RESULT:    -8.989      3.003      4.528
REMARK INTER + INTRA:         -13.237
REMARK INTER:                 -12.408
REMARK INTRA:                  -0.830
REMARK UNBOUND:                -0.833
REMARK SMILES Nc1nc(Cn2cc(S(=O)(=O)N3CCCC3)ccc2=O)nc(Nc2ccccc2)n1
REMARK SMILES IDX 5 1 4 2 2 3 3 4 30 5 22 6 21 7 1 8 23 11 24 13 25 14 29 15
REMARK SMILES IDX 26 16 28 17 27 18 6 19 7 20 19 21 8 22 18 23 17 24 20 25
REMARK SMILES IDX 9 26 10 27 11 28 12 29 13 30 16 31 14 32 15 33
REMARK H PARENT 1 9 1 10 23 12
ROOT
ATOM      1  C   UNL     1       1.533  46.017  53.440  1.00  0.00     0.203 C 
ENDROOT
BRANCH   1   2
ATOM      2  C   UNL     1       1.212  44.896  52.475  1.00  0.00     0.156 A 
ATOM      3  C   UNL     1      -0.174  43.949  50.996  1.00  0.00     0.225 A 
ATOM      4  N   UNL     1       0.030  44.931  51.857  1.00  0.00    -0.196 NA
ATOM      5  N   UNL     1       0.695  42.995  50.705  1.00  0.00    -0.177 NA
ATOM      6  C   UNL     1       1.853  43.042  51.358  1.00  0.00     0.232 A 
ATOM      7  N   UNL     1       2.148  43.976  52.253  1.00  0.00    -0.195 NA
BRANCH   3   8
ATOM      8  N   UNL     1      -1.376  43.945  50.319  1.00  0.00    -0.368 N 
ATOM      9  H   UNL     1      -1.895  44.790  50.515  1.00  0.00     0.159 HD
ATOM     10  H   UNL     1      -1.231  43.715  49.346  1.00  0.00     0.159 HD
ENDBRANCH   3   8
BRANCH   6  11
ATOM     11  N   UNL     1       2.754  42.027  51.041  1.00  0.00    -0.324 N 
ATOM     12  H   UNL     1       2.331  41.132  51.239  1.00  0.00     0.170 HD
BRANCH  11  13
ATOM     13  C   UNL     1       4.015  42.006  50.435  1.00  0.00     0.041 A 
ATOM     14  C   UNL     1       4.958  42.976  50.819  1.00  0.00     0.026 A 
ATOM     15  C   UNL     1       4.392  41.099  49.438  1.00  0.00     0.026 A 
ATOM     16  C   UNL     1       6.230  43.027  50.241  1.00  0.00     0.002 A 
ATOM     17  C   UNL     1       5.664  41.145  48.857  1.00  0.00     0.002 A 
ATOM     18  C   UNL     1       6.583  42.109  49.259  1.00  0.00     0.000 A 
ENDBRANCH  11  13
ENDBRANCH   6  11
ENDBRANCH   1   2
BRANCH   1  19
ATOM     19  N   UNL     1       2.906  45.939  53.953  1.00  0.00    -0.307 N 
ATOM     20  C   UNL     1       3.946  46.466  53.193  1.00  0.00     0.111 C 
ATOM     21  C   UNL     1       3.127  45.252  55.145  1.00  0.00     0.251 C 
ATOM     22  C   UNL     1       5.223  46.358  53.591  1.00  0.00     0.099 C 
ATOM     23  C   UNL     1       4.550  45.124  55.564  1.00  0.00     0.073 C 
ATOM     24  C   UNL     1       5.530  45.652  54.817  1.00  0.00     0.029 C 
ATOM     25  O   UNL     1       2.250  44.773  55.856  1.00  0.00    -0.269 OA
BRANCH  22  26
ATOM     26  S   UNL     1       6.485  47.054  52.589  1.00  0.00     0.244 S 
ATOM     27  O   UNL     1       6.462  46.389  51.299  1.00  0.00    -0.207 OA
ATOM     28  O   UNL     1       6.398  48.501  52.656  1.00  0.00    -0.207 OA
BRANCH  26  29
ATOM     29  N   UNL     1       7.952  46.633  53.309  1.00  0.00    -0.198 NA
ATOM     30  C   UNL     1       9.028  46.034  52.493  1.00  0.00     0.102 C 
ATOM     31  C   UNL     1       8.533  47.513  54.339  1.00  0.00     0.102 C 
ATOM     32  C   UNL     1      10.301  46.720  52.974  1.00  0.00     0.018 C 
ATOM     33  C   UNL     1       9.986  47.062  54.418  1.00  0.00     0.018 C 
ENDBRANCH  26  29
ENDBRANCH  22  26
ENDBRANCH   1  19
TORSDOF 7
ENDMDL
MODEL 4
REMARK VINA RESULT:    -8.976      3.899      6.835
REMARK INTER + INTRA:         -13.219
REMARK INTER:                 -12.435
REMARK INTRA:                  -0.784
REMARK UNBOUND:                -0.833
REMARK SMILES Nc1nc(Cn2cc(S(=O)(=O)N3CCCC3)ccc2=O)nc(Nc2ccccc2)n1
REMARK SMILES IDX 5 1 4 2 2 3 3 4 30 5 22 6 21 7 1 8 23 11 24 13 25 14 29 15
REMARK SMILES IDX 26 16 28 17 27 18 6 19 7 20 19 21 8 22 18 23 17 24 20 25
REMARK SMILES IDX 9 26 10 27 11 28 12 29 13 30 16 31 14 32 15 33
REMARK H PARENT 1 9 1 10 23 12
ROOT
ATOM      1  C   UNL     1       5.604  46.798  54.928  1.00  0.00     0.203 C 
ENDROOT
BRANCH   1   2
ATOM      2  C   UNL     1       6.958  46.822  54.251  1.00  0.00     0.156 A 
ATOM      3  C   UNL     1       9.165  47.181  54.342  1.00  0.00     0.225 A 
ATOM      4  N   UNL     1       8.005  47.223  54.975  1.00  0.00    -0.196 NA
ATOM      5  N   UNL     1       9.343  46.758  53.101  1.00  0.00    -0.177 NA
ATOM      6  C   UNL     1       8.248  46.365  52.456  1.00  0.00     0.232 A 
ATOM      7  N   UNL     1       7.037  46.384  52.996  1.00  0.00    -0.195 NA
BRANCH   3   8
ATOM      8  N   UNL     1      10.283  47.573  55.049  1.00  0.00    -0.368 N 
ATOM      9  H   UNL     1      11.065  46.970  54.836  1.00  0.00     0.159 HD
ATOM     10  H   UNL     1      10.433  48.567  54.947  1.00  0.00     0.159 HD
ENDBRANCH   3   8
BRANCH   6  11
ATOM     11  N   UNL     1       8.456  45.926  51.149  1.00  0.00    -0.324 N 
ATOM     12  H   UNL     1       9.256  46.404  50.760  1.00  0.00     0.170 HD
BRANCH  11  13
ATOM     13  C   UNL     1       7.871  44.933  50.357  1.00  0.00     0.041 A 
ATOM     14  C   UNL     1       6.545  44.553  50.630  1.00  0.00     0.026 A 
ATOM     15  C   UNL     1       8.535  44.260  49.325  1.00  0.00     0.026 A 
ATOM     16  C   UNL     1       5.905  43.552  49.892  1.00  0.00     0.002 A 
ATOM     17  C   UNL     1       7.898  43.258  48.583  1.00  0.00     0.002 A 
ATOM     18  C   UNL     1       6.583  42.905  48.866  1.00  0.00     0.000 A 
ENDBRANCH  11  13
ENDBRANCH   6  11
ENDBRANCH   1   2
BRANCH   1  19
ATOM     19  N   UNL     1       4.502  46.650  53.970  1.00  0.00    -0.307 N 
ATOM     20  C   UNL     1       4.127  45.376  53.557  1.00  0.00     0.111 C 
ATOM     21  C   UNL     1       3.932  47.805  53.438  1.00  0.00     0.251 C 
ATOM     22  C   UNL     1       3.170  45.197  52.634  1.00  0.00     0.099 C 
ATOM     23  C   UNL     1       2.885  47.590  52.401  1.00  0.00     0.073 C 
ATOM     24  C   UNL     1       2.536  46.350  52.031  1.00  0.00     0.029 C 
ATOM     25  O   UNL     1       4.219  48.951  53.767  1.00  0.00    -0.269 OA
BRANCH  22  26
ATOM     26  S   UNL     1       2.739  43.560  52.166  1.00  0.00     0.244 S 
ATOM     27  O   UNL     1       2.377  43.568  50.761  1.00  0.00    -0.207 OA
ATOM     28  O   UNL     1       3.762  42.647  52.642  1.00  0.00    -0.207 OA
BRANCH  26  29
ATOM     29  N   UNL     1       1.330  43.177  53.013  1.00  0.00    -0.198 NA
ATOM     30  C   UNL     1       1.037  43.846  54.296  1.00  0.00     0.102 C 
ATOM     31  C   UNL     1       0.078  42.946  52.269  1.00  0.00     0.102 C 
ATOM     32  C   UNL     1      -0.452  44.161  54.234  1.00  0.00     0.018 C 
ATOM     33  C   UNL     1      -1.001  43.066  53.337  1.00  0.00     0.018 C 
ENDBRANCH  26  29
ENDBRANCH  22  26
ENDBRANCH   1  19
TORSDOF 7
ENDMDL
MODEL 5
REMARK VINA RESULT:    -8.830      3.041      5.217
REMARK INTER + INTRA:         -13.018
REMARK INTER:                 -12.411
REMARK INTRA:                  -0.608
REMARK UNBOUND:                -0.833
REMARK SMILES Nc1nc(Cn2cc(S(=O)(=O)N3CCCC3)ccc2=O)nc(Nc2ccccc2)n1
REMARK SMILES IDX 5 1 4 2 2 3 3 4 30 5 22 6 21 7 1 8 23 11 24 13 25 14 29 15
REMARK SMILES IDX 26 16 28 17 27 18 6 19 7 20 19 21 8 22 18 23 17 24 20 25
REMARK SMILES IDX 9 26 10 27 11 28 12 29 13 30 16 31 14 32 15 33
REMARK H PARENT 1 9 1 10 23 12
ROOT
ATOM      1  C   UNL     1       7.642  45.259  50.084  1.00  0.00     0.203 C 
ENDROOT
BRANCH   1   2
ATOM      2  C   UNL     1       6.678  44.092  50.066  1.00  0.00     0.156 A 
ATOM      3  C   UNL     1       5.995  42.155  49.178  1.00  0.00     0.225 A 
ATOM      4  N   UNL     1       6.840  43.170  49.116  1.00  0.00    -0.196 NA
ATOM      5  N   UNL     1       5.061  41.995  50.102  1.00  0.00    -0.177 NA
ATOM      6  C   UNL     1       4.977  42.955  51.019  1.00  0.00     0.232 A 
ATOM      7  N   UNL     1       5.766  44.021  51.033  1.00  0.00    -0.195 NA
BRANCH   3   8
ATOM      8  N   UNL     1       6.128  41.165  48.226  1.00  0.00    -0.368 N 
ATOM      9  H   UNL     1       5.246  40.693  48.083  1.00  0.00     0.159 HD
ATOM     10  H   UNL     1       6.589  41.528  47.404  1.00  0.00     0.159 HD
ENDBRANCH   3   8
BRANCH   6  11
ATOM     11  N   UNL     1       3.985  42.770  51.980  1.00  0.00    -0.324 N 
ATOM     12  H   UNL     1       4.416  42.602  52.877  1.00  0.00     0.170 HD
BRANCH  11  13
ATOM     13  C   UNL     1       2.589  42.872  51.964  1.00  0.00     0.041 A 
ATOM     14  C   UNL     1       1.877  42.489  53.113  1.00  0.00     0.026 A 
ATOM     15  C   UNL     1       1.847  43.300  50.857  1.00  0.00     0.026 A 
ATOM     16  C   UNL     1       0.480  42.545  53.160  1.00  0.00     0.002 A 
ATOM     17  C   UNL     1       0.449  43.359  50.899  1.00  0.00     0.002 A 
ATOM     18  C   UNL     1      -0.234  42.982  52.051  1.00  0.00     0.000 A 
ENDBRANCH  11  13
ENDBRANCH   6  11
ENDBRANCH   1   2
BRANCH   1  19
ATOM     19  N   UNL     1       7.923  45.733  51.445  1.00  0.00    -0.307 N 
ATOM     20  C   UNL     1       6.869  45.907  52.335  1.00  0.00     0.111 C 
ATOM     21  C   UNL     1       9.234  46.082  51.763  1.00  0.00     0.251 C 
ATOM     22  C   UNL     1       7.071  46.400  53.566  1.00  0.00     0.099 C 
ATOM     23  C   UNL     1       9.440  46.646  53.127  1.00  0.00     0.073 C 
ATOM     24  C   UNL     1       8.407  46.791  53.967  1.00  0.00     0.029 C 
ATOM     25  O   UNL     1      10.201  45.946  51.022  1.00  0.00    -0.269 OA
BRANCH  22  26
ATOM     26  S   UNL     1       5.697  46.584  54.642  1.00  0.00     0.244 S 
ATOM     27  O   UNL     1       5.817  45.606  55.707  1.00  0.00    -0.207 OA
ATOM     28  O   UNL     1       5.535  47.989  54.968  1.00  0.00    -0.207 OA
BRANCH  26  29
ATOM     29  N   UNL     1       4.332  46.144  53.752  1.00  0.00    -0.198 NA
ATOM     30  C   UNL     1       3.243  45.384  54.399  1.00  0.00     0.102 C 
ATOM     31  C   UNL     1       3.770  47.091  52.771  1.00  0.00     0.102 C 
ATOM     32  C   UNL     1       1.964  46.028  53.880  1.00  0.00     0.018 C 
ATOM     33  C   UNL     1       2.369  46.552  52.514  1.00  0.00     0.018 C 
ENDBRANCH  26  29
ENDBRANCH  22  26
ENDBRANCH   1  19
TORSDOF 7
ENDMDL
MODEL 6
REMARK VINA RESULT:    -8.745      3.294      7.668
REMARK INTER + INTRA:         -12.901
REMARK INTER:                 -11.768
REMARK INTRA:                  -1.133
REMARK UNBOUND:                -0.833
REMARK SMILES Nc1nc(Cn2cc(S(=O)(=O)N3CCCC3)ccc2=O)nc(Nc2ccccc2)n1
REMARK SMILES IDX 5 1 4 2 2 3 3 4 30 5 22 6 21 7 1 8 23 11 24 13 25 14 29 15
REMARK SMILES IDX 26 16 28 17 27 18 6 19 7 20 19 21 8 22 18 23 17 24 20 25
REMARK SMILES IDX 9 26 10 27 11 28 12 29 13 30 16 31 14 32 15 33
REMARK H PARENT 1 9 1 10 23 12
ROOT
ATOM      1  C   UNL     1       2.381  46.362  51.649  1.00  0.00     0.203 C 
ENDROOT
BRANCH   1   2
ATOM      2  C   UNL     1       3.356  46.573  52.787  1.00  0.00     0.156 A 
ATOM      3  C   UNL     1       3.878  46.376  54.954  1.00  0.00     0.225 A 
ATOM      4  N   UNL     1       2.969  46.206  54.010  1.00  0.00    -0.196 NA
ATOM      5  N   UNL     1       5.102  46.841  54.760  1.00  0.00    -0.177 NA
ATOM      6  C   UNL     1       5.410  47.171  53.509  1.00  0.00     0.232 A 
ATOM      7  N   UNL     1       4.563  47.054  52.495  1.00  0.00    -0.195 NA
BRANCH   3   8
ATOM      8  N   UNL     1       3.534  46.000  56.236  1.00  0.00    -0.368 N 
ATOM      9  H   UNL     1       4.325  45.583  56.706  1.00  0.00     0.159 HD
ATOM     10  H   UNL     1       3.069  46.760  56.713  1.00  0.00     0.159 HD
ENDBRANCH   3   8
BRANCH   6  11
ATOM     11  N   UNL     1       6.701  47.661  53.326  1.00  0.00    -0.324 N 
ATOM     12  H   UNL     1       6.764  48.590  53.716  1.00  0.00     0.170 HD
BRANCH  11  13
ATOM     13  C   UNL     1       7.888  47.106  52.833  1.00  0.00     0.041 A 
ATOM     14  C   UNL     1       9.069  47.286  53.573  1.00  0.00     0.026 A 
ATOM     15  C   UNL     1       7.983  46.411  51.622  1.00  0.00     0.026 A 
ATOM     16  C   UNL     1      10.294  46.777  53.129  1.00  0.00     0.002 A 
ATOM     17  C   UNL     1       9.207  45.899  51.174  1.00  0.00     0.002 A 
ATOM     18  C   UNL     1      10.361  46.081  51.927  1.00  0.00     0.000 A 
ENDBRANCH  11  13
ENDBRANCH   6  11
ENDBRANCH   1   2
BRANCH   1  19
ATOM     19  N   UNL     1       1.971  44.959  51.516  1.00  0.00    -0.307 N 
ATOM     20  C   UNL     1       2.918  44.005  51.157  1.00  0.00     0.111 C 
ATOM     21  C   UNL     1       0.620  44.651  51.662  1.00  0.00     0.251 C 
ATOM     22  C   UNL     1       2.574  42.723  50.960  1.00  0.00     0.099 C 
ATOM     23  C   UNL     1       0.251  43.228  51.422  1.00  0.00     0.073 C 
ATOM     24  C   UNL     1       1.187  42.329  51.089  1.00  0.00     0.029 C 
ATOM     25  O   UNL     1      -0.256  45.448  51.981  1.00  0.00    -0.269 OA
BRANCH  22  26
ATOM     26  S   UNL     1       3.822  41.569  50.519  1.00  0.00     0.244 S 
ATOM     27  O   UNL     1       4.500  41.147  51.730  1.00  0.00    -0.207 OA
ATOM     28  O   UNL     1       3.254  40.576  49.626  1.00  0.00    -0.207 OA
BRANCH  26  29
ATOM     29  N   UNL     1       4.962  42.423  49.614  1.00  0.00    -0.198 NA
ATOM     30  C   UNL     1       5.928  43.311  50.294  1.00  0.00     0.102 C 
ATOM     31  C   UNL     1       5.606  41.772  48.459  1.00  0.00     0.102 C 
ATOM     32  C   UNL     1       7.253  43.048  49.589  1.00  0.00     0.018 C 
ATOM     33  C   UNL     1       6.827  42.642  48.190  1.00  0.00     0.018 C 
ENDBRANCH  26  29
ENDBRANCH  22  26
ENDBRANCH   1  19
TORSDOF 7
ENDMDL
MODEL 7
REMARK VINA RESULT:    -8.529      4.948      8.607
REMARK INTER + INTRA:         -12.602
REMARK INTER:                 -11.909
REMARK INTRA:                  -0.693
REMARK UNBOUND:                -0.833
REMARK SMILES Nc1nc(Cn2cc(S(=O)(=O)N3CCCC3)ccc2=O)nc(Nc2ccccc2)n1
REMARK SMILES IDX 5 1 4 2 2 3 3 4 30 5 22 6 21 7 1 8 23 11 24 13 25 14 29 15
REMARK SMILES IDX 26 16 28 17 27 18 6 19 7 20 19 21 8 22 18 23 17 24 20 25
REMARK SMILES IDX 9 26 10 27 11 28 12 29 13 30 16 31 14 32 15 33
REMARK H PARENT 1 9 1 10 23 12
ROOT
ATOM      1  C   UNL     1       2.085  45.670  51.574  1.00  0.00     0.203 C 
ENDROOT
BRANCH   1   2
ATOM      2  C   UNL     1       3.071  46.139  52.624  1.00  0.00     0.156 A 
ATOM      3  C   UNL     1       3.704  46.273  54.765  1.00  0.00     0.225 A 
ATOM      4  N   UNL     1       2.787  45.876  53.900  1.00  0.00    -0.196 NA
ATOM      5  N   UNL     1       4.847  46.862  54.450  1.00  0.00    -0.177 NA
ATOM      6  C   UNL     1       5.056  47.074  53.154  1.00  0.00     0.232 A 
ATOM      7  N   UNL     1       4.190  46.730  52.210  1.00  0.00    -0.195 NA
BRANCH   3   8
ATOM      8  N   UNL     1       3.467  46.013  56.099  1.00  0.00    -0.368 N 
ATOM      9  H   UNL     1       4.107  46.537  56.680  1.00  0.00     0.159 HD
ATOM     10  H   UNL     1       2.482  46.108  56.306  1.00  0.00     0.159 HD
ENDBRANCH   3   8
BRANCH   6  11
ATOM     11  N   UNL     1       6.262  47.699  52.843  1.00  0.00    -0.324 N 
ATOM     12  H   UNL     1       6.126  48.699  52.826  1.00  0.00     0.170 HD
BRANCH  11  13
ATOM     13  C   UNL     1       7.572  47.240  52.666  1.00  0.00     0.041 A 
ATOM     14  C   UNL     1       8.540  47.595  53.623  1.00  0.00     0.026 A 
ATOM     15  C   UNL     1       7.996  46.478  51.572  1.00  0.00     0.026 A 
ATOM     16  C   UNL     1       9.873  47.190  53.498  1.00  0.00     0.002 A 
ATOM     17  C   UNL     1       9.328  46.069  51.443  1.00  0.00     0.002 A 
ATOM     18  C   UNL     1      10.266  46.425  52.407  1.00  0.00     0.000 A 
ENDBRANCH  11  13
ENDBRANCH   6  11
ENDBRANCH   1   2
BRANCH   1  19
ATOM     19  N   UNL     1       1.201  44.609  52.071  1.00  0.00    -0.307 N 
ATOM     20  C   UNL     1      -0.007  44.955  52.668  1.00  0.00     0.111 C 
ATOM     21  C   UNL     1       1.651  43.292  52.009  1.00  0.00     0.251 C 
ATOM     22  C   UNL     1      -0.816  44.024  53.195  1.00  0.00     0.099 C 
ATOM     23  C   UNL     1       0.751  42.271  52.614  1.00  0.00     0.073 C 
ATOM     24  C   UNL     1      -0.411  42.634  53.172  1.00  0.00     0.029 C 
ATOM     25  O   UNL     1       2.702  42.929  51.491  1.00  0.00    -0.269 OA
BRANCH  22  26
ATOM     26  S   UNL     1      -2.330  44.530  53.924  1.00  0.00     0.244 S 
ATOM     27  O   UNL     1      -2.766  45.750  53.270  1.00  0.00    -0.207 OA
ATOM     28  O   UNL     1      -3.226  43.390  53.996  1.00  0.00    -0.207 OA
BRANCH  26  29
ATOM     29  N   UNL     1      -1.973  44.953  55.519  1.00  0.00    -0.198 NA
ATOM     30  C   UNL     1      -0.609  44.752  56.047  1.00  0.00     0.102 C 
ATOM     31  C   UNL     1      -2.558  46.179  56.092  1.00  0.00     0.102 C 
ATOM     32  C   UNL     1      -0.321  46.011  56.856  1.00  0.00     0.018 C 
ATOM     33  C   UNL     1      -1.699  46.447  57.320  1.00  0.00     0.018 C 
ENDBRANCH  26  29
ENDBRANCH  22  26
ENDBRANCH   1  19
TORSDOF 7
ENDMDL
MODEL 8
REMARK VINA RESULT:    -8.419      4.310      8.569
REMARK INTER + INTRA:         -12.452
REMARK INTER:                 -11.673
REMARK INTRA:                  -0.779
REMARK UNBOUND:                -0.833
REMARK SMILES Nc1nc(Cn2cc(S(=O)(=O)N3CCCC3)ccc2=O)nc(Nc2ccccc2)n1
REMARK SMILES IDX 5 1 4 2 2 3 3 4 30 5 22 6 21 7 1 8 23 11 24 13 25 14 29 15
REMARK SMILES IDX 26 16 28 17 27 18 6 19 7 20 19 21 8 22 18 23 17 24 20 25
REMARK SMILES IDX 9 26 10 27 11 28 12 29 13 30 16 31 14 32 15 33
REMARK H PARENT 1 9 1 10 23 12
ROOT
ATOM      1  C   UNL     1       2.041  46.200  52.724  1.00  0.00     0.203 C 
ENDROOT
BRANCH   1   2
ATOM      2  C   UNL     1       3.216  45.348  52.295  1.00  0.00     0.156 A 
ATOM      3  C   UNL     1       4.071  43.348  51.769  1.00  0.00     0.225 A 
ATOM      4  N   UNL     1       3.021  44.033  52.188  1.00  0.00    -0.196 NA
ATOM      5  N   UNL     1       5.241  43.871  51.438  1.00  0.00    -0.177 NA
ATOM      6  C   UNL     1       5.346  45.192  51.562  1.00  0.00     0.232 A 
ATOM      7  N   UNL     1       4.356  45.964  51.991  1.00  0.00    -0.195 NA
BRANCH   3   8
ATOM      8  N   UNL     1       3.919  41.984  51.627  1.00  0.00    -0.368 N 
ATOM      9  H   UNL     1       3.147  41.654  52.191  1.00  0.00     0.159 HD
ATOM     10  H   UNL     1       3.910  41.731  50.649  1.00  0.00     0.159 HD
ENDBRANCH   3   8
BRANCH   6  11
ATOM     11  N   UNL     1       6.586  45.723  51.213  1.00  0.00    -0.324 N 
ATOM     12  H   UNL     1       6.644  45.804  50.208  1.00  0.00     0.170 HD
BRANCH  11  13
ATOM     13  C   UNL     1       7.662  46.235  51.947  1.00  0.00     0.041 A 
ATOM     14  C   UNL     1       8.964  46.023  51.462  1.00  0.00     0.026 A 
ATOM     15  C   UNL     1       7.528  46.919  53.161  1.00  0.00     0.026 A 
ATOM     16  C   UNL     1      10.086  46.488  52.155  1.00  0.00     0.002 A 
ATOM     17  C   UNL     1       8.648  47.388  53.857  1.00  0.00     0.002 A 
ATOM     18  C   UNL     1       9.927  47.173  53.354  1.00  0.00     0.000 A 
ENDBRANCH  11  13
ENDBRANCH   6  11
ENDBRANCH   1   2
BRANCH   1  19
ATOM     19  N   UNL     1       0.977  45.410  53.357  1.00  0.00    -0.307 N 
ATOM     20  C   UNL     1      -0.053  44.905  52.570  1.00  0.00     0.111 C 
ATOM     21  C   UNL     1       0.992  45.276  54.744  1.00  0.00     0.251 C 
ATOM     22  C   UNL     1      -1.080  44.234  53.115  1.00  0.00     0.099 C 
ATOM     23  C   UNL     1      -0.164  44.546  55.335  1.00  0.00     0.073 C 
ATOM     24  C   UNL     1      -1.136  44.060  54.551  1.00  0.00     0.029 C 
ATOM     25  O   UNL     1       1.875  45.696  55.484  1.00  0.00    -0.269 OA
BRANCH  22  26
ATOM     26  S   UNL     1      -2.341  43.615  52.063  1.00  0.00     0.244 S 
ATOM     27  O   UNL     1      -1.722  43.144  50.837  1.00  0.00    -0.207 OA
ATOM     28  O   UNL     1      -3.199  42.727  52.824  1.00  0.00    -0.207 OA
BRANCH  26  29
ATOM     29  N   UNL     1      -3.294  44.939  51.630  1.00  0.00    -0.198 NA
ATOM     30  C   UNL     1      -3.802  45.853  52.673  1.00  0.00     0.102 C 
ATOM     31  C   UNL     1      -2.966  45.700  50.410  1.00  0.00     0.102 C 
ATOM     32  C   UNL     1      -3.619  47.247  52.084  1.00  0.00     0.018 C 
ATOM     33  C   UNL     1      -3.725  47.008  50.589  1.00  0.00     0.018 C 
ENDBRANCH  26  29
ENDBRANCH  22  26
ENDBRANCH   1  19
TORSDOF 7
ENDMDL
MODEL 9
REMARK VINA RESULT:    -8.395      4.039      8.474
REMARK INTER + INTRA:         -12.418
REMARK INTER:                 -11.611
REMARK INTRA:                  -0.806
REMARK UNBOUND:                -0.833
REMARK SMILES Nc1nc(Cn2cc(S(=O)(=O)N3CCCC3)ccc2=O)nc(Nc2ccccc2)n1
REMARK SMILES IDX 5 1 4 2 2 3 3 4 30 5 22 6 21 7 1 8 23 11 24 13 25 14 29 15
REMARK SMILES IDX 26 16 28 17 27 18 6 19 7 20 19 21 8 22 18 23 17 24 20 25
REMARK SMILES IDX 9 26 10 27 11 28 12 29 13 30 16 31 14 32 15 33
REMARK H PARENT 1 9 1 10 23 12
ROOT
ATOM      1  C   UNL     1       2.406  46.452  52.317  1.00  0.00     0.203 C 
ENDROOT
BRANCH   1   2
ATOM      2  C   UNL     1       3.602  45.642  51.864  1.00  0.00     0.156 A 
ATOM      3  C   UNL     1       4.475  43.713  51.142  1.00  0.00     0.225 A 
ATOM      4  N   UNL     1       3.403  44.355  51.572  1.00  0.00    -0.196 NA
ATOM      5  N   UNL     1       5.671  44.253  50.966  1.00  0.00    -0.177 NA
ATOM      6  C   UNL     1       5.777  45.544  51.269  1.00  0.00     0.232 A 
ATOM      7  N   UNL     1       4.766  46.272  51.724  1.00  0.00    -0.195 NA
BRANCH   3   8
ATOM      8  N   UNL     1       4.322  42.381  50.813  1.00  0.00    -0.368 N 
ATOM      9  H   UNL     1       4.627  42.215  49.864  1.00  0.00     0.159 HD
ATOM     10  H   UNL     1       4.724  41.793  51.530  1.00  0.00     0.159 HD
ENDBRANCH   3   8
BRANCH   6  11
ATOM     11  N   UNL     1       7.044  46.093  51.081  1.00  0.00    -0.324 N 
ATOM     12  H   UNL     1       7.176  46.301  50.101  1.00  0.00     0.170 HD
BRANCH  11  13
ATOM     13  C   UNL     1       8.067  46.490  51.949  1.00  0.00     0.041 A 
ATOM     14  C   UNL     1       9.388  46.126  51.637  1.00  0.00     0.026 A 
ATOM     15  C   UNL     1       7.856  47.198  53.138  1.00  0.00     0.026 A 
ATOM     16  C   UNL     1      10.458  46.470  52.470  1.00  0.00     0.002 A 
ATOM     17  C   UNL     1       8.923  47.545  53.975  1.00  0.00     0.002 A 
ATOM     18  C   UNL     1      10.223  47.182  53.641  1.00  0.00     0.000 A 
ENDBRANCH  11  13
ENDBRANCH   6  11
ENDBRANCH   1   2
BRANCH   1  19
ATOM     19  N   UNL     1       1.536  45.703  53.233  1.00  0.00    -0.307 N 
ATOM     20  C   UNL     1       0.307  45.239  52.775  1.00  0.00     0.111 C 
ATOM     21  C   UNL     1       1.937  45.567  54.560  1.00  0.00     0.251 C 
ATOM     22  C   UNL     1      -0.548  44.608  53.594  1.00  0.00     0.099 C 
ATOM     23  C   UNL     1       0.970  44.882  55.461  1.00  0.00     0.073 C 
ATOM     24  C   UNL     1      -0.202  44.435  54.989  1.00  0.00     0.029 C 
ATOM     25  O   UNL     1       3.009  45.951  55.017  1.00  0.00    -0.269 OA
BRANCH  22  26
ATOM     26  S   UNL     1      -2.077  44.039  52.947  1.00  0.00     0.244 S 
ATOM     27  O   UNL     1      -2.070  42.588  52.969  1.00  0.00    -0.207 OA
ATOM     28  O   UNL     1      -3.160  44.765  53.585  1.00  0.00    -0.207 OA
BRANCH  26  29
ATOM     29  N   UNL     1      -2.102  44.485  51.319  1.00  0.00    -0.198 NA
ATOM     30  C   UNL     1      -1.772  43.491  50.278  1.00  0.00     0.102 C 
ATOM     31  C   UNL     1      -3.159  45.391  50.832  1.00  0.00     0.102 C 
ATOM     32  C   UNL     1      -2.797  43.733  49.178  1.00  0.00     0.018 C 
ATOM     33  C   UNL     1      -3.118  45.210  49.321  1.00  0.00     0.018 C 
ENDBRANCH  26  29
ENDBRANCH  22  26
ENDBRANCH   1  19
TORSDOF 7
ENDMDL
MODEL 10
REMARK VINA RESULT:    -8.383      3.741      7.076
REMARK INTER + INTRA:         -12.402
REMARK INTER:                 -11.563
REMARK INTRA:                  -0.839
REMARK UNBOUND:                -0.833
REMARK SMILES Nc1nc(Cn2cc(S(=O)(=O)N3CCCC3)ccc2=O)nc(Nc2ccccc2)n1
REMARK SMILES IDX 5 1 4 2 2 3 3 4 30 5 22 6 21 7 1 8 23 11 24 13 25 14 29 15
REMARK SMILES IDX 26 16 28 17 27 18 6 19 7 20 19 21 8 22 18 23 17 24 20 25
REMARK SMILES IDX 9 26 10 27 11 28 12 29 13 30 16 31 14 32 15 33
REMARK H PARENT 1 9 1 10 23 12
ROOT
ATOM      1  C   UNL     1       3.213  42.399  52.358  1.00  0.00     0.203 C 
ENDROOT
BRANCH   1   2
ATOM      2  C   UNL     1       1.833  43.010  52.476  1.00  0.00     0.156 A 
ATOM      3  C   UNL     1      -0.032  43.785  51.513  1.00  0.00     0.225 A 
ATOM      4  N   UNL     1       1.184  43.294  51.345  1.00  0.00    -0.196 NA
ATOM      5  N   UNL     1      -0.625  43.975  52.681  1.00  0.00    -0.177 NA
ATOM      6  C   UNL     1       0.088  43.652  53.756  1.00  0.00     0.232 A 
ATOM      7  N   UNL     1       1.322  43.170  53.694  1.00  0.00    -0.195 NA
BRANCH   3   8
ATOM      8  N   UNL     1      -0.753  44.085  50.375  1.00  0.00    -0.368 N 
ATOM      9  H   UNL     1      -1.529  43.446  50.270  1.00  0.00     0.159 HD
ATOM     10  H   UNL     1      -0.968  45.072  50.345  1.00  0.00     0.159 HD
ENDBRANCH   3   8
BRANCH   6  11
ATOM     11  N   UNL     1      -0.552  43.862  54.976  1.00  0.00    -0.324 N 
ATOM     12  H   UNL     1      -1.077  43.037  55.224  1.00  0.00     0.170 HD
BRANCH  11  13
ATOM     13  C   UNL     1      -0.522  44.895  55.921  1.00  0.00     0.041 A 
ATOM     14  C   UNL     1       0.689  45.159  56.584  1.00  0.00     0.026 A 
ATOM     15  C   UNL     1      -1.635  45.663  56.278  1.00  0.00     0.026 A 
ATOM     16  C   UNL     1       0.786  46.161  57.555  1.00  0.00     0.002 A 
ATOM     17  C   UNL     1      -1.542  46.668  57.248  1.00  0.00     0.002 A 
ATOM     18  C   UNL     1      -0.332  46.917  57.886  1.00  0.00     0.000 A 
ENDBRANCH  11  13
ENDBRANCH   6  11
ENDBRANCH   1   2
BRANCH   1  19
ATOM     19  N   UNL     1       4.240  43.395  52.030  1.00  0.00    -0.307 N 
ATOM     20  C   UNL     1       4.375  44.523  52.833  1.00  0.00     0.111 C 
ATOM     21  C   UNL     1       4.982  43.217  50.864  1.00  0.00     0.251 C 
ATOM     22  C   UNL     1       5.255  45.490  52.533  1.00  0.00     0.099 C 
ATOM     23  C   UNL     1       5.941  44.308  50.535  1.00  0.00     0.073 C 
ATOM     24  C   UNL     1       6.057  45.377  51.334  1.00  0.00     0.029 C 
ATOM     25  O   UNL     1       4.909  42.243  50.122  1.00  0.00    -0.269 OA
BRANCH  22  26
ATOM     26  S   UNL     1       5.380  46.881  53.597  1.00  0.00     0.244 S 
ATOM     27  O   UNL     1       4.606  47.966  53.022  1.00  0.00    -0.207 OA
ATOM     28  O   UNL     1       5.125  46.458  54.962  1.00  0.00    -0.207 OA
BRANCH  26  29
ATOM     29  N   UNL     1       6.993  47.376  53.547  1.00  0.00    -0.198 NA
ATOM     30  C   UNL     1       8.033  46.566  54.213  1.00  0.00     0.102 C 
ATOM     31  C   UNL     1       7.532  47.967  52.308  1.00  0.00     0.102 C 
ATOM     32  C   UNL     1       9.199  46.557  53.232  1.00  0.00     0.018 C 
ATOM     33  C   UNL     1       9.041  47.874  52.493  1.00  0.00     0.018 C 
ENDBRANCH  26  29
ENDBRANCH  22  26
ENDBRANCH   1  19
TORSDOF 7
ENDMDL
