MODEL 1
REMARK VINA RESULT:    -8.556      0.000      0.000
REMARK INTER + INTRA:         -12.766
REMARK INTER:                 -11.557
REMARK INTRA:                  -1.209
REMARK UNBOUND:                -1.209
REMARK SMILES O=C(c1ccccc1OCC1CC1)N1CCCC(n2ccnc2)C1
REMARK SMILES IDX 3 1 4 2 5 3 6 4 7 5 8 6 2 7 1 8 14 9 15 10 24 11 16 12 18 13
REMARK SMILES IDX 17 14 19 15 20 16 23 17 21 18 22 19 9 20 10 21 11 22 12 23
REMARK SMILES IDX 13 24
REMARK H PARENT
ROOT
ATOM      1  C   UNL     1       5.923  44.854  50.530  1.00  0.00     0.082 A 
ATOM      2  C   UNL     1       5.556  43.582  50.078  1.00  0.00     0.018 A 
ATOM      3  C   UNL     1       6.515  42.759  49.489  1.00  0.00     0.001 A 
ATOM      4  C   UNL     1       7.833  43.202  49.360  1.00  0.00     0.004 A 
ATOM      5  C   UNL     1       8.199  44.466  49.827  1.00  0.00     0.047 A 
ATOM      6  C   UNL     1       7.247  45.283  50.434  1.00  0.00     0.132 A 
ENDROOT
BRANCH   1   7
ATOM      7  C   UNL     1       4.893  45.694  51.162  1.00  0.00     0.257 C 
ATOM      8  O   UNL     1       4.123  46.301  50.420  1.00  0.00    -0.269 OA
BRANCH   7   9
ATOM      9  N   UNL     1       4.873  45.808  52.553  1.00  0.00    -0.336 N 
ATOM     10  C   UNL     1       5.248  47.106  53.107  1.00  0.00     0.120 C 
ATOM     11  C   UNL     1       4.727  44.680  53.478  1.00  0.00     0.145 C 
ATOM     12  C   UNL     1       5.462  47.083  54.614  1.00  0.00     0.024 C 
ATOM     13  C   UNL     1       3.991  45.025  54.791  1.00  0.00     0.107 C 
ATOM     14  C   UNL     1       4.262  46.449  55.306  1.00  0.00     0.029 C 
BRANCH  13  15
ATOM     15  N   UNL     1       2.560  44.750  54.717  1.00  0.00    -0.333 N 
ATOM     16  C   UNL     1       1.895  44.114  53.706  1.00  0.00     0.107 A 
ATOM     17  C   UNL     1       1.635  45.090  55.666  1.00  0.00     0.199 A 
ATOM     18  C   UNL     1       0.576  44.101  54.099  1.00  0.00     0.130 A 
ATOM     19  N   UNL     1       0.424  44.712  55.318  1.00  0.00    -0.245 NA
ENDBRANCH  13  15
ENDBRANCH   7   9
ENDBRANCH   1   7
BRANCH   6  20
ATOM     20  O   UNL     1       7.607  46.531  50.862  1.00  0.00    -0.492 OA
BRANCH  20  21
ATOM     21  C   UNL     1       8.936  46.520  51.401  1.00  0.00     0.233 C 
BRANCH  21  22
ATOM     22  C   UNL     1       8.825  46.560  52.896  1.00  0.00     0.027 C 
ATOM     23  C   UNL     1       8.935  47.866  53.638  1.00  0.00     0.007 C 
ATOM     24  C   UNL     1      10.045  46.854  53.736  1.00  0.00     0.007 C 
ENDBRANCH  21  22
ENDBRANCH  20  21
ENDBRANCH   6  20
TORSDOF 6
ENDMDL
MODEL 2
REMARK VINA RESULT:    -7.951      1.324      1.867
REMARK INTER + INTRA:         -11.949
REMARK INTER:                 -11.031
REMARK INTRA:                  -0.917
REMARK UNBOUND:                -1.209
REMARK SMILES O=C(c1ccccc1OCC1CC1)N1CCCC(n2ccnc2)C1
REMARK SMILES IDX 3 1 4 2 5 3 6 4 7 5 8 6 2 7 1 8 14 9 15 10 24 11 16 12 18 13
REMARK SMILES IDX 17 14 19 15 20 16 23 17 21 18 22 19 9 20 10 21 11 22 12 23
REMARK SMILES IDX 13 24
REMARK H PARENT
ROOT
ATOM      1  C   UNL     1       5.276  45.365  51.051  1.00  0.00     0.082 A 
ATOM      2  C   UNL     1       5.172  44.175  50.323  1.00  0.00     0.018 A 
ATOM      3  C   UNL     1       6.322  43.591  49.793  1.00  0.00     0.001 A 
ATOM      4  C   UNL     1       7.567  44.189  49.995  1.00  0.00     0.004 A 
ATOM      5  C   UNL     1       7.669  45.368  50.737  1.00  0.00     0.047 A 
ATOM      6  C   UNL     1       6.524  45.943  51.285  1.00  0.00     0.132 A 
ENDROOT
BRANCH   1   7
ATOM      7  C   UNL     1       4.047  45.949  51.613  1.00  0.00     0.257 C 
ATOM      8  O   UNL     1       3.509  46.853  50.978  1.00  0.00    -0.269 OA
BRANCH   7   9
ATOM      9  N   UNL     1       3.588  45.497  52.850  1.00  0.00    -0.336 N 
ATOM     10  C   UNL     1       3.884  46.341  54.004  1.00  0.00     0.120 C 
ATOM     11  C   UNL     1       3.044  44.158  53.097  1.00  0.00     0.145 C 
ATOM     12  C   UNL     1       3.594  45.666  55.338  1.00  0.00     0.024 C 
ATOM     13  C   UNL     1       1.957  44.105  54.194  1.00  0.00     0.107 C 
ATOM     14  C   UNL     1       2.180  45.100  55.345  1.00  0.00     0.029 C 
BRANCH  13  15
ATOM     15  N   UNL     1       0.608  44.217  53.649  1.00  0.00    -0.333 N 
ATOM     16  C   UNL     1       0.170  45.115  52.715  1.00  0.00     0.107 A 
ATOM     17  C   UNL     1      -0.455  43.426  53.989  1.00  0.00     0.199 A 
ATOM     18  C   UNL     1      -1.162  44.818  52.534  1.00  0.00     0.130 A 
ATOM     19  N   UNL     1      -1.541  43.769  53.331  1.00  0.00    -0.245 NA
ENDBRANCH  13  15
ENDBRANCH   7   9
ENDBRANCH   1   7
BRANCH   6  20
ATOM     20  O   UNL     1       6.628  47.114  51.984  1.00  0.00    -0.492 OA
BRANCH  20  21
ATOM     21  C   UNL     1       7.293  46.899  53.237  1.00  0.00     0.233 C 
BRANCH  21  22
ATOM     22  C   UNL     1       8.561  47.703  53.226  1.00  0.00     0.027 C 
ATOM     23  C   UNL     1       9.899  47.020  53.124  1.00  0.00     0.007 C 
ATOM     24  C   UNL     1       9.486  47.666  54.419  1.00  0.00     0.007 C 
ENDBRANCH  21  22
ENDBRANCH  20  21
ENDBRANCH   6  20
TORSDOF 6
ENDMDL
MODEL 3
REMARK VINA RESULT:    -7.950      2.051      5.767
REMARK INTER + INTRA:         -11.948
REMARK INTER:                 -10.856
REMARK INTRA:                  -1.092
REMARK UNBOUND:                -1.209
REMARK SMILES O=C(c1ccccc1OCC1CC1)N1CCCC(n2ccnc2)C1
REMARK SMILES IDX 3 1 4 2 5 3 6 4 7 5 8 6 2 7 1 8 14 9 15 10 24 11 16 12 18 13
REMARK SMILES IDX 17 14 19 15 20 16 23 17 21 18 22 19 9 20 10 21 11 22 12 23
REMARK SMILES IDX 13 24
REMARK H PARENT
ROOT
ATOM      1  C   UNL     1       5.098  43.886  50.827  1.00  0.00     0.082 A 
ATOM      2  C   UNL     1       6.231  44.016  50.017  1.00  0.00     0.018 A 
ATOM      3  C   UNL     1       6.815  42.877  49.464  1.00  0.00     0.001 A 
ATOM      4  C   UNL     1       6.266  41.618  49.714  1.00  0.00     0.004 A 
ATOM      5  C   UNL     1       5.125  41.493  50.510  1.00  0.00     0.047 A 
ATOM      6  C   UNL     1       4.527  42.632  51.048  1.00  0.00     0.132 A 
ENDROOT
BRANCH   1   7
ATOM      7  C   UNL     1       4.494  45.107  51.384  1.00  0.00     0.257 C 
ATOM      8  O   UNL     1       3.545  45.598  50.774  1.00  0.00    -0.269 OA
BRANCH   7   9
ATOM      9  N   UNL     1       5.052  45.677  52.529  1.00  0.00    -0.336 N 
ATOM     10  C   UNL     1       4.787  44.994  53.792  1.00  0.00     0.120 C 
ATOM     11  C   UNL     1       5.676  47.002  52.579  1.00  0.00     0.145 C 
ATOM     12  C   UNL     1       5.193  45.805  55.015  1.00  0.00     0.024 C 
ATOM     13  C   UNL     1       6.830  47.124  53.598  1.00  0.00     0.107 C 
ATOM     14  C   UNL     1       6.630  46.287  54.874  1.00  0.00     0.029 C 
BRANCH  13  15
ATOM     15  N   UNL     1       8.135  46.872  52.996  1.00  0.00    -0.333 N 
ATOM     16  C   UNL     1       8.383  46.409  51.734  1.00  0.00     0.107 A 
ATOM     17  C   UNL     1       9.344  47.063  53.608  1.00  0.00     0.199 A 
ATOM     18  C   UNL     1       9.755  46.339  51.643  1.00  0.00     0.130 A 
ATOM     19  N   UNL     1      10.342  46.746  52.813  1.00  0.00    -0.245 NA
ENDBRANCH  13  15
ENDBRANCH   7   9
ENDBRANCH   1   7
BRANCH   6  20
ATOM     20  O   UNL     1       3.428  42.499  51.850  1.00  0.00    -0.492 OA
BRANCH  20  21
ATOM     21  C   UNL     1       2.233  42.402  51.063  1.00  0.00     0.233 C 
BRANCH  21  22
ATOM     22  C   UNL     1       1.157  43.176  51.765  1.00  0.00     0.027 C 
ATOM     23  C   UNL     1       1.300  43.540  53.220  1.00  0.00     0.007 C 
ATOM     24  C   UNL     1       0.296  42.499  52.804  1.00  0.00     0.007 C 
ENDBRANCH  21  22
ENDBRANCH  20  21
ENDBRANCH   6  20
TORSDOF 6
ENDMDL
MODEL 4
REMARK VINA RESULT:    -7.916      2.139      3.370
REMARK INTER + INTRA:         -11.901
REMARK INTER:                 -11.419
REMARK INTRA:                  -0.483
REMARK UNBOUND:                -1.209
REMARK SMILES O=C(c1ccccc1OCC1CC1)N1CCCC(n2ccnc2)C1
REMARK SMILES IDX 3 1 4 2 5 3 6 4 7 5 8 6 2 7 1 8 14 9 15 10 24 11 16 12 18 13
REMARK SMILES IDX 17 14 19 15 20 16 23 17 21 18 22 19 9 20 10 21 11 22 12 23
REMARK SMILES IDX 13 24
REMARK H PARENT
ROOT
ATOM      1  C   UNL     1       5.444  46.255  51.844  1.00  0.00     0.082 A 
ATOM      2  C   UNL     1       5.262  45.316  50.824  1.00  0.00     0.018 A 
ATOM      3  C   UNL     1       6.366  44.858  50.106  1.00  0.00     0.001 A 
ATOM      4  C   UNL     1       7.644  45.331  50.411  1.00  0.00     0.004 A 
ATOM      5  C   UNL     1       7.824  46.256  51.441  1.00  0.00     0.047 A 
ATOM      6  C   UNL     1       6.725  46.700  52.174  1.00  0.00     0.132 A 
ENDROOT
BRANCH   1   7
ATOM      7  C   UNL     1       4.263  46.707  52.596  1.00  0.00     0.257 C 
ATOM      8  O   UNL     1       4.249  47.875  52.981  1.00  0.00    -0.269 OA
BRANCH   7   9
ATOM      9  N   UNL     1       3.251  45.789  52.884  1.00  0.00    -0.336 N 
ATOM     10  C   UNL     1       1.879  46.258  52.718  1.00  0.00     0.120 C 
ATOM     11  C   UNL     1       3.464  44.496  53.540  1.00  0.00     0.145 C 
ATOM     12  C   UNL     1       0.840  45.307  53.298  1.00  0.00     0.024 C 
ATOM     13  C   UNL     1       2.484  43.388  53.096  1.00  0.00     0.107 C 
ATOM     14  C   UNL     1       1.068  43.896  52.774  1.00  0.00     0.029 C 
BRANCH  13  15
ATOM     15  N   UNL     1       3.017  42.575  52.008  1.00  0.00    -0.333 N 
ATOM     16  C   UNL     1       2.419  42.314  50.806  1.00  0.00     0.107 A 
ATOM     17  C   UNL     1       4.225  41.932  52.014  1.00  0.00     0.199 A 
ATOM     18  C   UNL     1       3.310  41.510  50.132  1.00  0.00     0.130 A 
ATOM     19  N   UNL     1       4.427  41.276  50.892  1.00  0.00    -0.245 NA
ENDBRANCH  13  15
ENDBRANCH   7   9
ENDBRANCH   1   7
BRANCH   6  20
ATOM     20  O   UNL     1       6.906  47.628  53.162  1.00  0.00    -0.492 OA
BRANCH  20  21
ATOM     21  C   UNL     1       7.698  47.087  54.228  1.00  0.00     0.233 C 
BRANCH  21  22
ATOM     22  C   UNL     1       9.039  47.759  54.189  1.00  0.00     0.027 C 
ATOM     23  C   UNL     1      10.282  46.970  53.873  1.00  0.00     0.007 C 
ATOM     24  C   UNL     1      10.055  47.480  55.271  1.00  0.00     0.007 C 
ENDBRANCH  21  22
ENDBRANCH  20  21
ENDBRANCH   6  20
TORSDOF 6
ENDMDL
MODEL 5
REMARK VINA RESULT:    -7.791      2.576      6.202
REMARK INTER + INTRA:         -11.733
REMARK INTER:                 -10.680
REMARK INTRA:                  -1.053
REMARK UNBOUND:                -1.209
REMARK SMILES O=C(c1ccccc1OCC1CC1)N1CCCC(n2ccnc2)C1
REMARK SMILES IDX 3 1 4 2 5 3 6 4 7 5 8 6 2 7 1 8 14 9 15 10 24 11 16 12 18 13
REMARK SMILES IDX 17 14 19 15 20 16 23 17 21 18 22 19 9 20 10 21 11 22 12 23
REMARK SMILES IDX 13 24
REMARK H PARENT
ROOT
ATOM      1  C   UNL     1       4.530  45.804  53.151  1.00  0.00     0.082 A 
ATOM      2  C   UNL     1       3.573  46.800  53.374  1.00  0.00     0.018 A 
ATOM      3  C   UNL     1       2.419  46.832  52.593  1.00  0.00     0.001 A 
ATOM      4  C   UNL     1       2.220  45.871  51.600  1.00  0.00     0.004 A 
ATOM      5  C   UNL     1       3.168  44.868  51.391  1.00  0.00     0.047 A 
ATOM      6  C   UNL     1       4.314  44.821  52.184  1.00  0.00     0.132 A 
ENDROOT
BRANCH   1   7
ATOM      7  C   UNL     1       5.730  45.785  54.002  1.00  0.00     0.257 C 
ATOM      8  O   UNL     1       5.644  45.219  55.091  1.00  0.00    -0.269 OA
BRANCH   7   9
ATOM      9  N   UNL     1       6.878  46.448  53.568  1.00  0.00    -0.336 N 
ATOM     10  C   UNL     1       7.880  46.753  54.585  1.00  0.00     0.120 C 
ATOM     11  C   UNL     1       7.040  47.047  52.239  1.00  0.00     0.145 C 
ATOM     12  C   UNL     1       8.968  47.701  54.099  1.00  0.00     0.024 C 
ATOM     13  C   UNL     1       8.489  47.023  51.703  1.00  0.00     0.107 C 
ATOM     14  C   UNL     1       9.563  47.194  52.792  1.00  0.00     0.029 C 
BRANCH  13  15
ATOM     15  N   UNL     1       8.757  45.855  50.871  1.00  0.00    -0.333 N 
ATOM     16  C   UNL     1       7.883  45.227  50.027  1.00  0.00     0.107 A 
ATOM     17  C   UNL     1       9.950  45.187  50.799  1.00  0.00     0.199 A 
ATOM     18  C   UNL     1       8.603  44.191  49.477  1.00  0.00     0.130 A 
ATOM     19  N   UNL     1       9.884  44.173  49.964  1.00  0.00    -0.245 NA
ENDBRANCH  13  15
ENDBRANCH   7   9
ENDBRANCH   1   7
BRANCH   6  20
ATOM     20  O   UNL     1       5.253  43.854  51.953  1.00  0.00    -0.492 OA
BRANCH  20  21
ATOM     21  C   UNL     1       4.673  42.737  51.264  1.00  0.00     0.233 C 
BRANCH  21  22
ATOM     22  C   UNL     1       5.489  42.485  50.031  1.00  0.00     0.027 C 
ATOM     23  C   UNL     1       5.214  41.287  49.162  1.00  0.00     0.007 C 
ATOM     24  C   UNL     1       6.466  41.335  49.996  1.00  0.00     0.007 C 
ENDBRANCH  21  22
ENDBRANCH  20  21
ENDBRANCH   6  20
TORSDOF 6
ENDMDL
MODEL 6
REMARK VINA RESULT:    -7.789      2.038      4.193
REMARK INTER + INTRA:         -11.730
REMARK INTER:                 -10.986
REMARK INTRA:                  -0.744
REMARK UNBOUND:                -1.209
REMARK SMILES O=C(c1ccccc1OCC1CC1)N1CCCC(n2ccnc2)C1
REMARK SMILES IDX 3 1 4 2 5 3 6 4 7 5 8 6 2 7 1 8 14 9 15 10 24 11 16 12 18 13
REMARK SMILES IDX 17 14 19 15 20 16 23 17 21 18 22 19 9 20 10 21 11 22 12 23
REMARK SMILES IDX 13 24
REMARK H PARENT
ROOT
ATOM      1  C   UNL     1       7.386  46.270  53.615  1.00  0.00     0.082 A 
ATOM      2  C   UNL     1       8.354  47.098  54.193  1.00  0.00     0.018 A 
ATOM      3  C   UNL     1       9.484  47.452  53.458  1.00  0.00     0.001 A 
ATOM      4  C   UNL     1       9.642  46.987  52.151  1.00  0.00     0.004 A 
ATOM      5  C   UNL     1       8.666  46.174  51.571  1.00  0.00     0.047 A 
ATOM      6  C   UNL     1       7.525  45.834  52.297  1.00  0.00     0.132 A 
ENDROOT
BRANCH   1   7
ATOM      7  C   UNL     1       6.196  45.926  54.409  1.00  0.00     0.257 C 
ATOM      8  O   UNL     1       6.376  45.340  55.475  1.00  0.00    -0.269 OA
BRANCH   7   9
ATOM      9  N   UNL     1       4.932  46.225  53.898  1.00  0.00    -0.336 N 
ATOM     10  C   UNL     1       4.820  47.451  53.113  1.00  0.00     0.120 C 
ATOM     11  C   UNL     1       3.696  45.533  54.276  1.00  0.00     0.145 C 
ATOM     12  C   UNL     1       3.380  47.851  52.817  1.00  0.00     0.024 C 
ATOM     13  C   UNL     1       2.644  45.448  53.149  1.00  0.00     0.107 C 
ATOM     14  C   UNL     1       2.620  46.675  52.221  1.00  0.00     0.029 C 
BRANCH  13  15
ATOM     15  N   UNL     1       2.742  44.207  52.387  1.00  0.00    -0.333 N 
ATOM     16  C   UNL     1       2.016  43.861  51.280  1.00  0.00     0.107 A 
ATOM     17  C   UNL     1       3.592  43.171  52.661  1.00  0.00     0.199 A 
ATOM     18  C   UNL     1       2.471  42.609  50.934  1.00  0.00     0.130 A 
ATOM     19  N   UNL     1       3.449  42.188  51.799  1.00  0.00    -0.245 NA
ENDBRANCH  13  15
ENDBRANCH   7   9
ENDBRANCH   1   7
BRANCH   6  20
ATOM     20  O   UNL     1       6.589  45.013  51.732  1.00  0.00    -0.492 OA
BRANCH  20  21
ATOM     21  C   UNL     1       6.927  44.719  50.370  1.00  0.00     0.233 C 
BRANCH  21  22
ATOM     22  C   UNL     1       6.097  43.546  49.935  1.00  0.00     0.027 C 
ATOM     23  C   UNL     1       6.634  42.144  50.049  1.00  0.00     0.007 C 
ATOM     24  C   UNL     1       6.473  42.776  48.692  1.00  0.00     0.007 C 
ENDBRANCH  21  22
ENDBRANCH  20  21
ENDBRANCH   6  20
TORSDOF 6
ENDMDL
MODEL 7
REMARK VINA RESULT:    -7.781      1.752      2.761
REMARK INTER + INTRA:         -11.719
REMARK INTER:                 -11.154
REMARK INTRA:                  -0.566
REMARK UNBOUND:                -1.209
REMARK SMILES O=C(c1ccccc1OCC1CC1)N1CCCC(n2ccnc2)C1
REMARK SMILES IDX 3 1 4 2 5 3 6 4 7 5 8 6 2 7 1 8 14 9 15 10 24 11 16 12 18 13
REMARK SMILES IDX 17 14 19 15 20 16 23 17 21 18 22 19 9 20 10 21 11 22 12 23
REMARK SMILES IDX 13 24
REMARK H PARENT
ROOT
ATOM      1  C   UNL     1       5.725  44.215  51.309  1.00  0.00     0.082 A 
ATOM      2  C   UNL     1       5.882  43.065  50.529  1.00  0.00     0.018 A 
ATOM      3  C   UNL     1       6.857  43.037  49.532  1.00  0.00     0.001 A 
ATOM      4  C   UNL     1       7.672  44.150  49.321  1.00  0.00     0.004 A 
ATOM      5  C   UNL     1       7.524  45.292  50.111  1.00  0.00     0.047 A 
ATOM      6  C   UNL     1       6.565  45.315  51.122  1.00  0.00     0.132 A 
ENDROOT
BRANCH   1   7
ATOM      7  C   UNL     1       4.700  44.209  52.365  1.00  0.00     0.257 C 
ATOM      8  O   UNL     1       5.089  44.189  53.531  1.00  0.00    -0.269 OA
BRANCH   7   9
ATOM      9  N   UNL     1       3.354  44.169  52.000  1.00  0.00    -0.336 N 
ATOM     10  C   UNL     1       2.897  42.959  51.323  1.00  0.00     0.120 C 
ATOM     11  C   UNL     1       2.446  45.319  52.044  1.00  0.00     0.145 C 
ATOM     12  C   UNL     1       1.504  43.090  50.722  1.00  0.00     0.024 C 
ATOM     13  C   UNL     1       0.975  44.958  52.353  1.00  0.00     0.107 C 
ATOM     14  C   UNL     1       0.526  43.608  51.768  1.00  0.00     0.029 C 
BRANCH  13  15
ATOM     15  N   UNL     1       0.666  45.050  53.776  1.00  0.00    -0.333 N 
ATOM     16  C   UNL     1      -0.546  44.829  54.370  1.00  0.00     0.107 A 
ATOM     17  C   UNL     1       1.555  45.377  54.764  1.00  0.00     0.199 A 
ATOM     18  C   UNL     1      -0.326  45.038  55.713  1.00  0.00     0.130 A 
ATOM     19  N   UNL     1       0.981  45.380  55.947  1.00  0.00    -0.245 NA
ENDBRANCH  13  15
ENDBRANCH   7   9
ENDBRANCH   1   7
BRANCH   6  20
ATOM     20  O   UNL     1       6.405  46.447  51.873  1.00  0.00    -0.492 OA
BRANCH  20  21
ATOM     21  C   UNL     1       7.641  47.167  51.973  1.00  0.00     0.233 C 
BRANCH  21  22
ATOM     22  C   UNL     1       8.374  46.655  53.178  1.00  0.00     0.027 C 
ATOM     23  C   UNL     1       9.364  47.529  53.902  1.00  0.00     0.007 C 
ATOM     24  C   UNL     1       9.852  46.358  53.092  1.00  0.00     0.007 C 
ENDBRANCH  21  22
ENDBRANCH  20  21
ENDBRANCH   6  20
TORSDOF 6
ENDMDL
MODEL 8
REMARK VINA RESULT:    -7.698      1.652      3.871
REMARK INTER + INTRA:         -11.607
REMARK INTER:                 -10.329
REMARK INTRA:                  -1.278
REMARK UNBOUND:                -1.209
REMARK SMILES O=C(c1ccccc1OCC1CC1)N1CCCC(n2ccnc2)C1
REMARK SMILES IDX 3 1 4 2 5 3 6 4 7 5 8 6 2 7 1 8 14 9 15 10 24 11 16 12 18 13
REMARK SMILES IDX 17 14 19 15 20 16 23 17 21 18 22 19 9 20 10 21 11 22 12 23
REMARK SMILES IDX 13 24
REMARK H PARENT
ROOT
ATOM      1  C   UNL     1       7.646  46.909  52.875  1.00  0.00     0.082 A 
ATOM      2  C   UNL     1       8.542  47.231  53.900  1.00  0.00     0.018 A 
ATOM      3  C   UNL     1       9.900  46.956  53.739  1.00  0.00     0.001 A 
ATOM      4  C   UNL     1      10.358  46.369  52.558  1.00  0.00     0.004 A 
ATOM      5  C   UNL     1       9.464  46.063  51.530  1.00  0.00     0.047 A 
ATOM      6  C   UNL     1       8.109  46.356  51.680  1.00  0.00     0.132 A 
ENDROOT
BRANCH   1   7
ATOM      7  C   UNL     1       6.222  47.226  53.067  1.00  0.00     0.257 C 
ATOM      8  O   UNL     1       5.826  48.318  52.663  1.00  0.00    -0.269 OA
BRANCH   7   9
ATOM      9  N   UNL     1       5.410  46.312  53.740  1.00  0.00    -0.336 N 
ATOM     10  C   UNL     1       4.784  46.781  54.973  1.00  0.00     0.120 C 
ATOM     11  C   UNL     1       5.328  44.883  53.424  1.00  0.00     0.145 C 
ATOM     12  C   UNL     1       4.138  45.666  55.785  1.00  0.00     0.024 C 
ATOM     13  C   UNL     1       3.943  44.251  53.691  1.00  0.00     0.107 C 
ATOM     14  C   UNL     1       3.207  44.845  54.905  1.00  0.00     0.029 C 
BRANCH  13  15
ATOM     15  N   UNL     1       3.094  44.247  52.504  1.00  0.00    -0.333 N 
ATOM     16  C   UNL     1       2.618  43.153  51.836  1.00  0.00     0.107 A 
ATOM     17  C   UNL     1       2.627  45.359  51.857  1.00  0.00     0.199 A 
ATOM     18  C   UNL     1       1.874  43.666  50.798  1.00  0.00     0.130 A 
ATOM     19  N   UNL     1       1.888  45.037  50.818  1.00  0.00    -0.245 NA
ENDBRANCH  13  15
ENDBRANCH   7   9
ENDBRANCH   1   7
BRANCH   6  20
ATOM     20  O   UNL     1       7.235  46.027  50.682  1.00  0.00    -0.492 OA
BRANCH  20  21
ATOM     21  C   UNL     1       7.581  44.761  50.101  1.00  0.00     0.233 C 
BRANCH  21  22
ATOM     22  C   UNL     1       6.305  44.020  49.824  1.00  0.00     0.027 C 
ATOM     23  C   UNL     1       6.051  42.673  50.448  1.00  0.00     0.007 C 
ATOM     24  C   UNL     1       6.327  42.774  48.972  1.00  0.00     0.007 C 
ENDBRANCH  21  22
ENDBRANCH  20  21
ENDBRANCH   6  20
TORSDOF 6
ENDMDL
MODEL 9
REMARK VINA RESULT:    -7.602      2.933      5.765
REMARK INTER + INTRA:         -11.478
REMARK INTER:                 -11.066
REMARK INTRA:                  -0.412
REMARK UNBOUND:                -1.209
REMARK SMILES O=C(c1ccccc1OCC1CC1)N1CCCC(n2ccnc2)C1
REMARK SMILES IDX 3 1 4 2 5 3 6 4 7 5 8 6 2 7 1 8 14 9 15 10 24 11 16 12 18 13
REMARK SMILES IDX 17 14 19 15 20 16 23 17 21 18 22 19 9 20 10 21 11 22 12 23
REMARK SMILES IDX 13 24
REMARK H PARENT
ROOT
ATOM      1  C   UNL     1       5.151  45.635  51.315  1.00  0.00     0.082 A 
ATOM      2  C   UNL     1       3.872  46.001  50.880  1.00  0.00     0.018 A 
ATOM      3  C   UNL     1       3.157  46.968  51.585  1.00  0.00     0.001 A 
ATOM      4  C   UNL     1       3.718  47.569  52.713  1.00  0.00     0.004 A 
ATOM      5  C   UNL     1       5.001  47.213  53.136  1.00  0.00     0.047 A 
ATOM      6  C   UNL     1       5.727  46.262  52.421  1.00  0.00     0.132 A 
ENDROOT
BRANCH   1   7
ATOM      7  C   UNL     1       5.889  44.624  50.541  1.00  0.00     0.257 C 
ATOM      8  O   UNL     1       6.878  45.001  49.915  1.00  0.00    -0.269 OA
BRANCH   7   9
ATOM      9  N   UNL     1       5.408  43.315  50.506  1.00  0.00    -0.336 N 
ATOM     10  C   UNL     1       4.196  43.045  51.275  1.00  0.00     0.120 C 
ATOM     11  C   UNL     1       6.142  42.174  49.952  1.00  0.00     0.145 C 
ATOM     12  C   UNL     1       3.882  41.561  51.409  1.00  0.00     0.024 C 
ATOM     13  C   UNL     1       5.245  41.083  49.324  1.00  0.00     0.107 C 
ATOM     14  C   UNL     1       3.896  40.894  50.040  1.00  0.00     0.029 C 
BRANCH  13  15
ATOM     15  N   UNL     1       5.063  41.269  47.889  1.00  0.00    -0.333 N 
ATOM     16  C   UNL     1       4.098  40.704  47.101  1.00  0.00     0.107 A 
ATOM     17  C   UNL     1       5.842  42.055  47.084  1.00  0.00     0.199 A 
ATOM     18  C   UNL     1       4.347  41.183  45.835  1.00  0.00     0.130 A 
ATOM     19  N   UNL     1       5.434  42.020  45.834  1.00  0.00    -0.245 NA
ENDBRANCH  13  15
ENDBRANCH   7   9
ENDBRANCH   1   7
BRANCH   6  20
ATOM     20  O   UNL     1       6.970  45.897  52.857  1.00  0.00    -0.492 OA
BRANCH  20  21
ATOM     21  C   UNL     1       7.445  46.810  53.857  1.00  0.00     0.233 C 
BRANCH  21  22
ATOM     22  C   UNL     1       8.655  47.504  53.305  1.00  0.00     0.027 C 
ATOM     23  C   UNL     1       9.516  46.835  52.267  1.00  0.00     0.007 C 
ATOM     24  C   UNL     1      10.037  47.014  53.667  1.00  0.00     0.007 C 
ENDBRANCH  21  22
ENDBRANCH  20  21
ENDBRANCH   6  20
TORSDOF 6
ENDMDL
MODEL 10
REMARK VINA RESULT:    -7.500      2.216      6.532
REMARK INTER + INTRA:         -11.340
REMARK INTER:                  -9.968
REMARK INTRA:                  -1.372
REMARK UNBOUND:                -1.209
REMARK SMILES O=C(c1ccccc1OCC1CC1)N1CCCC(n2ccnc2)C1
REMARK SMILES IDX 3 1 4 2 5 3 6 4 7 5 8 6 2 7 1 8 14 9 15 10 24 11 16 12 18 13
REMARK SMILES IDX 17 14 19 15 20 16 23 17 21 18 22 19 9 20 10 21 11 22 12 23
REMARK SMILES IDX 13 24
REMARK H PARENT
ROOT
ATOM      1  C   UNL     1       2.492  46.040  53.815  1.00  0.00     0.082 A 
ATOM      2  C   UNL     1       2.726  46.036  55.194  1.00  0.00     0.018 A 
ATOM      3  C   UNL     1       1.884  45.306  56.033  1.00  0.00     0.001 A 
ATOM      4  C   UNL     1       0.820  44.580  55.495  1.00  0.00     0.004 A 
ATOM      5  C   UNL     1       0.598  44.573  54.116  1.00  0.00     0.047 A 
ATOM      6  C   UNL     1       1.451  45.285  53.273  1.00  0.00     0.132 A 
ENDROOT
BRANCH   1   7
ATOM      7  C   UNL     1       3.407  46.805  52.954  1.00  0.00     0.257 C 
ATOM      8  O   UNL     1       3.117  47.977  52.720  1.00  0.00    -0.269 OA
BRANCH   7   9
ATOM      9  N   UNL     1       4.516  46.161  52.403  1.00  0.00    -0.336 N 
ATOM     10  C   UNL     1       4.613  46.162  50.946  1.00  0.00     0.120 C 
ATOM     11  C   UNL     1       5.442  45.310  53.155  1.00  0.00     0.145 C 
ATOM     12  C   UNL     1       5.687  45.224  50.410  1.00  0.00     0.024 C 
ATOM     13  C   UNL     1       6.897  45.337  52.636  1.00  0.00     0.107 C 
ATOM     14  C   UNL     1       7.013  45.490  51.109  1.00  0.00     0.029 C 
BRANCH  13  15
ATOM     15  N   UNL     1       7.719  46.321  53.332  1.00  0.00    -0.333 N 
ATOM     16  C   UNL     1       8.955  46.772  52.959  1.00  0.00     0.107 A 
ATOM     17  C   UNL     1       7.380  46.963  54.492  1.00  0.00     0.199 A 
ATOM     18  C   UNL     1       9.310  47.681  53.930  1.00  0.00     0.130 A 
ATOM     19  N   UNL     1       8.326  47.791  54.879  1.00  0.00    -0.245 NA
ENDBRANCH  13  15
ENDBRANCH   7   9
ENDBRANCH   1   7
BRANCH   6  20
ATOM     20  O   UNL     1       1.210  45.298  51.928  1.00  0.00    -0.492 OA
BRANCH  20  21
ATOM     21  C   UNL     1       1.125  43.961  51.414  1.00  0.00     0.233 C 
BRANCH  21  22
ATOM     22  C   UNL     1       2.522  43.484  51.145  1.00  0.00     0.027 C 
ATOM     23  C   UNL     1       2.781  42.053  50.753  1.00  0.00     0.007 C 
ATOM     24  C   UNL     1       3.197  42.542  52.114  1.00  0.00     0.007 C 
ENDBRANCH  21  22
ENDBRANCH  20  21
ENDBRANCH   6  20
TORSDOF 6
ENDMDL
