MODEL 1
REMARK VINA RESULT:    -9.076      0.000      0.000
REMARK INTER + INTRA:         -13.662
REMARK INTER:                 -12.259
REMARK INTRA:                  -1.402
REMARK UNBOUND:                -1.402
REMARK SMILES CC(C)N(Cc1nc2ccccc2c(=O)[nH]1)C(=O)NCC1CCCC1
REMARK SMILES IDX 4 1 2 2 1 3 3 4 5 5 6 6 7 7 16 8 8 9 14 10 9 11 13 12 10 13
REMARK SMILES IDX 12 14 11 15 15 17 17 18 19 19 18 20 20 22 21 23 22 24 25 25
REMARK SMILES IDX 23 26 24 27
REMARK H PARENT 16 16 19 21
ROOT
ATOM      1  N   UNL     1       3.273  45.242  54.176  1.00  0.00    -0.315 N 
ENDROOT
BRANCH   1   2
ATOM      2  C   UNL     1       2.239  44.641  55.045  1.00  0.00     0.081 C 
ATOM      3  C   UNL     1       1.690  45.613  56.092  1.00  0.00     0.031 C 
ATOM      4  C   UNL     1       1.111  43.994  54.237  1.00  0.00     0.031 C 
ENDBRANCH   1   2
BRANCH   1   5
ATOM      5  C   UNL     1       2.946  45.313  52.744  1.00  0.00     0.197 C 
BRANCH   5   6
ATOM      6  C   UNL     1       3.975  44.551  51.921  1.00  0.00     0.129 C 
ATOM      7  N   UNL     1       5.018  45.150  51.441  1.00  0.00    -0.233 NA
ATOM      8  N   UNL     1       3.728  43.214  51.746  1.00  0.00    -0.308 N 
ATOM      9  C   UNL     1       5.928  44.382  50.694  1.00  0.00     0.078 A 
ATOM     10  C   UNL     1       4.551  42.378  51.038  1.00  0.00     0.258 C 
ATOM     11  C   UNL     1       7.057  45.004  50.159  1.00  0.00     0.029 A 
ATOM     12  C   UNL     1       5.748  43.013  50.463  1.00  0.00     0.065 A 
ATOM     13  C   UNL     1       7.985  44.275  49.409  1.00  0.00     0.002 A 
ATOM     14  C   UNL     1       6.669  42.273  49.713  1.00  0.00     0.016 A 
ATOM     15  C   UNL     1       7.791  42.911  49.186  1.00  0.00     0.001 A 
ATOM     16  H   UNL     1       2.871  42.807  52.103  1.00  0.00     0.171 HD
ATOM     17  O   UNL     1       4.313  41.184  50.900  1.00  0.00    -0.269 OA
ENDBRANCH   5   6
ENDBRANCH   1   5
BRANCH   1  18
ATOM     18  C   UNL     1       4.559  45.429  54.673  1.00  0.00     0.318 C 
ATOM     19  N   UNL     1       5.152  46.610  54.282  1.00  0.00    -0.338 N 
ATOM     20  O   UNL     1       5.153  44.610  55.365  1.00  0.00    -0.249 OA
ATOM     21  H   UNL     1       4.541  47.399  54.437  1.00  0.00     0.165 HD
BRANCH  19  22
ATOM     22  C   UNL     1       6.527  46.867  54.685  1.00  0.00     0.121 C 
BRANCH  22  23
ATOM     23  C   UNL     1       7.497  46.665  53.527  1.00  0.00     0.008 C 
ATOM     24  C   UNL     1       8.967  46.802  53.922  1.00  0.00     0.005 C 
ATOM     25  C   UNL     1       7.321  47.708  52.416  1.00  0.00     0.005 C 
ATOM     26  C   UNL     1       9.654  47.010  52.583  1.00  0.00     0.000 C 
ATOM     27  C   UNL     1       8.713  47.939  51.825  1.00  0.00     0.000 C 
ENDBRANCH  22  23
ENDBRANCH  19  22
ENDBRANCH   1  18
TORSDOF 6
ENDMDL
MODEL 2
REMARK VINA RESULT:    -9.033      1.869      4.923
REMARK INTER + INTRA:         -13.603
REMARK INTER:                 -12.699
REMARK INTRA:                  -0.904
REMARK UNBOUND:                -1.402
REMARK SMILES CC(C)N(Cc1nc2ccccc2c(=O)[nH]1)C(=O)NCC1CCCC1
REMARK SMILES IDX 4 1 2 2 1 3 3 4 5 5 6 6 7 7 16 8 8 9 14 10 9 11 13 12 10 13
REMARK SMILES IDX 12 14 11 15 15 17 17 18 19 19 18 20 20 22 21 23 22 24 25 25
REMARK SMILES IDX 23 26 24 27
REMARK H PARENT 16 16 19 21
ROOT
ATOM      1  N   UNL     1       3.323  45.723  53.404  1.00  0.00    -0.315 N 
ENDROOT
BRANCH   1   2
ATOM      2  C   UNL     1       3.051  45.761  54.857  1.00  0.00     0.081 C 
ATOM      3  C   UNL     1       1.788  44.994  55.255  1.00  0.00     0.031 C 
ATOM      4  C   UNL     1       4.260  45.314  55.682  1.00  0.00     0.031 C 
ENDBRANCH   1   2
BRANCH   1   5
ATOM      5  C   UNL     1       3.886  46.952  52.824  1.00  0.00     0.197 C 
BRANCH   5   6
ATOM      6  C   UNL     1       5.389  46.812  52.629  1.00  0.00     0.129 C 
ATOM      7  N   UNL     1       6.218  47.224  53.534  1.00  0.00    -0.233 NA
ATOM      8  N   UNL     1       5.787  46.214  51.461  1.00  0.00    -0.308 N 
ATOM      9  C   UNL     1       7.593  47.059  53.288  1.00  0.00     0.078 A 
ATOM     10  C   UNL     1       7.099  46.003  51.126  1.00  0.00     0.258 C 
ATOM     11  C   UNL     1       8.507  47.502  54.244  1.00  0.00     0.029 A 
ATOM     12  C   UNL     1       8.083  46.465  52.119  1.00  0.00     0.065 A 
ATOM     13  C   UNL     1       9.883  47.356  54.036  1.00  0.00     0.002 A 
ATOM     14  C   UNL     1       9.456  46.314  51.899  1.00  0.00     0.016 A 
ATOM     15  C   UNL     1      10.357  46.763  52.864  1.00  0.00     0.001 A 
ATOM     16  H   UNL     1       5.096  45.953  50.766  1.00  0.00     0.171 HD
ATOM     17  O   UNL     1       7.430  45.461  50.079  1.00  0.00    -0.269 OA
ENDBRANCH   5   6
ENDBRANCH   1   5
BRANCH   1  18
ATOM     18  C   UNL     1       2.787  44.694  52.635  1.00  0.00     0.318 C 
ATOM     19  N   UNL     1       3.509  43.521  52.676  1.00  0.00    -0.338 N 
ATOM     20  O   UNL     1       1.786  44.808  51.938  1.00  0.00    -0.249 OA
ATOM     21  H   UNL     1       3.717  43.249  53.627  1.00  0.00     0.165 HD
BRANCH  19  22
ATOM     22  C   UNL     1       3.076  42.406  51.847  1.00  0.00     0.121 C 
BRANCH  22  23
ATOM     23  C   UNL     1       4.257  41.726  51.162  1.00  0.00     0.008 C 
ATOM     24  C   UNL     1       5.351  42.694  50.713  1.00  0.00     0.005 C 
ATOM     25  C   UNL     1       3.857  41.004  49.870  1.00  0.00     0.005 C 
ATOM     26  C   UNL     1       6.135  41.866  49.708  1.00  0.00     0.000 C 
ATOM     27  C   UNL     1       5.061  41.112  48.932  1.00  0.00     0.000 C 
ENDBRANCH  22  23
ENDBRANCH  19  22
ENDBRANCH   1  18
TORSDOF 6
ENDMDL
MODEL 3
REMARK VINA RESULT:    -9.012      1.812      4.856
REMARK INTER + INTRA:         -13.575
REMARK INTER:                 -12.303
REMARK INTRA:                  -1.272
REMARK UNBOUND:                -1.402
REMARK SMILES CC(C)N(Cc1nc2ccccc2c(=O)[nH]1)C(=O)NCC1CCCC1
REMARK SMILES IDX 4 1 2 2 1 3 3 4 5 5 6 6 7 7 16 8 8 9 14 10 9 11 13 12 10 13
REMARK SMILES IDX 12 14 11 15 15 17 17 18 19 19 18 20 20 22 21 23 22 24 25 25
REMARK SMILES IDX 23 26 24 27
REMARK H PARENT 16 16 19 21
ROOT
ATOM      1  N   UNL     1       7.631  46.518  53.226  1.00  0.00    -0.315 N 
ENDROOT
BRANCH   1   2
ATOM      2  C   UNL     1       9.007  46.672  53.746  1.00  0.00     0.081 C 
ATOM      3  C   UNL     1      10.077  46.594  52.654  1.00  0.00     0.031 C 
ATOM      4  C   UNL     1       9.165  47.936  54.595  1.00  0.00     0.031 C 
ENDBRANCH   1   2
BRANCH   1   5
ATOM      5  C   UNL     1       7.464  46.732  51.780  1.00  0.00     0.197 C 
BRANCH   5   6
ATOM      6  C   UNL     1       7.083  45.431  51.087  1.00  0.00     0.129 C 
ATOM      7  N   UNL     1       6.004  44.794  51.415  1.00  0.00    -0.233 NA
ATOM      8  N   UNL     1       7.938  45.007  50.103  1.00  0.00    -0.308 N 
ATOM      9  C   UNL     1       5.715  43.601  50.729  1.00  0.00     0.078 A 
ATOM     10  C   UNL     1       7.746  43.862  49.374  1.00  0.00     0.258 C 
ATOM     11  C   UNL     1       4.562  42.891  51.068  1.00  0.00     0.029 A 
ATOM     12  C   UNL     1       6.537  43.095  49.716  1.00  0.00     0.065 A 
ATOM     13  C   UNL     1       4.239  41.700  50.410  1.00  0.00     0.002 A 
ATOM     14  C   UNL     1       6.225  41.904  49.051  1.00  0.00     0.016 A 
ATOM     15  C   UNL     1       5.070  41.207  49.402  1.00  0.00     0.001 A 
ATOM     16  H   UNL     1       8.793  45.520  49.920  1.00  0.00     0.171 HD
ATOM     17  O   UNL     1       8.521  43.506  48.494  1.00  0.00    -0.269 OA
ENDBRANCH   5   6
ENDBRANCH   1   5
BRANCH   1  18
ATOM     18  C   UNL     1       6.564  46.476  54.118  1.00  0.00     0.318 C 
ATOM     19  N   UNL     1       5.436  47.139  53.685  1.00  0.00    -0.338 N 
ATOM     20  O   UNL     1       6.611  45.940  55.219  1.00  0.00    -0.249 OA
ATOM     21  H   UNL     1       5.187  46.867  52.744  1.00  0.00     0.165 HD
BRANCH  19  22
ATOM     22  C   UNL     1       4.289  47.220  54.577  1.00  0.00     0.121 C 
BRANCH  22  23
ATOM     23  C   UNL     1       3.057  46.563  53.966  1.00  0.00     0.008 C 
ATOM     24  C   UNL     1       3.133  45.037  53.913  1.00  0.00     0.005 C 
ATOM     25  C   UNL     1       2.834  46.966  52.503  1.00  0.00     0.005 C 
ATOM     26  C   UNL     1       2.059  44.685  52.898  1.00  0.00     0.000 C 
ATOM     27  C   UNL     1       2.209  45.749  51.817  1.00  0.00     0.000 C 
ENDBRANCH  22  23
ENDBRANCH  19  22
ENDBRANCH   1  18
TORSDOF 6
ENDMDL
MODEL 4
REMARK VINA RESULT:    -8.544      1.753      4.864
REMARK INTER + INTRA:         -12.943
REMARK INTER:                 -11.919
REMARK INTRA:                  -1.024
REMARK UNBOUND:                -1.402
REMARK SMILES CC(C)N(Cc1nc2ccccc2c(=O)[nH]1)C(=O)NCC1CCCC1
REMARK SMILES IDX 4 1 2 2 1 3 3 4 5 5 6 6 7 7 16 8 8 9 14 10 9 11 13 12 10 13
REMARK SMILES IDX 12 14 11 15 15 17 17 18 19 19 18 20 20 22 21 23 22 24 25 25
REMARK SMILES IDX 23 26 24 27
REMARK H PARENT 16 16 19 21
ROOT
ATOM      1  N   UNL     1       3.314  45.690  52.988  1.00  0.00    -0.315 N 
ENDROOT
BRANCH   1   2
ATOM      2  C   UNL     1       2.738  45.829  54.343  1.00  0.00     0.081 C 
ATOM      3  C   UNL     1       1.351  45.194  54.477  1.00  0.00     0.031 C 
ATOM      4  C   UNL     1       3.691  45.324  55.429  1.00  0.00     0.031 C 
ENDBRANCH   1   2
BRANCH   1   5
ATOM      5  C   UNL     1       3.980  46.885  52.449  1.00  0.00     0.197 C 
BRANCH   5   6
ATOM      6  C   UNL     1       5.493  46.738  52.531  1.00  0.00     0.129 C 
ATOM      7  N   UNL     1       6.168  46.239  51.545  1.00  0.00    -0.233 NA
ATOM      8  N   UNL     1       6.073  47.178  53.693  1.00  0.00    -0.308 N 
ATOM      9  C   UNL     1       7.562  46.137  51.690  1.00  0.00     0.078 A 
ATOM     10  C   UNL     1       7.422  47.126  53.933  1.00  0.00     0.258 C 
ATOM     11  C   UNL     1       8.311  45.596  50.645  1.00  0.00     0.029 A 
ATOM     12  C   UNL     1       8.233  46.557  52.845  1.00  0.00     0.065 A 
ATOM     13  C   UNL     1       9.701  45.477  50.751  1.00  0.00     0.002 A 
ATOM     14  C   UNL     1       9.622  46.442  52.963  1.00  0.00     0.016 A 
ATOM     15  C   UNL     1      10.356  45.899  51.910  1.00  0.00     0.001 A 
ATOM     16  H   UNL     1       5.492  47.516  54.452  1.00  0.00     0.171 HD
ATOM     17  O   UNL     1       7.919  47.532  54.977  1.00  0.00    -0.269 OA
ENDBRANCH   5   6
ENDBRANCH   1   5
BRANCH   1  18
ATOM     18  C   UNL     1       2.961  44.596  52.204  1.00  0.00     0.318 C 
ATOM     19  N   UNL     1       3.736  43.476  52.412  1.00  0.00    -0.338 N 
ATOM     20  O   UNL     1       2.071  44.614  51.361  1.00  0.00    -0.249 OA
ATOM     21  H   UNL     1       3.814  43.259  53.395  1.00  0.00     0.165 HD
BRANCH  19  22
ATOM     22  C   UNL     1       3.498  42.301  51.587  1.00  0.00     0.121 C 
BRANCH  22  23
ATOM     23  C   UNL     1       4.767  41.856  50.867  1.00  0.00     0.008 C 
ATOM     24  C   UNL     1       5.664  43.012  50.428  1.00  0.00     0.005 C 
ATOM     25  C   UNL     1       4.476  41.106  49.561  1.00  0.00     0.005 C 
ATOM     26  C   UNL     1       6.562  42.361  49.390  1.00  0.00     0.000 C 
ATOM     27  C   UNL     1       5.623  41.449  48.609  1.00  0.00     0.000 C 
ENDBRANCH  22  23
ENDBRANCH  19  22
ENDBRANCH   1  18
TORSDOF 6
ENDMDL
MODEL 5
REMARK VINA RESULT:    -8.401      2.046      4.976
REMARK INTER + INTRA:         -12.750
REMARK INTER:                 -11.454
REMARK INTRA:                  -1.296
REMARK UNBOUND:                -1.402
REMARK SMILES CC(C)N(Cc1nc2ccccc2c(=O)[nH]1)C(=O)NCC1CCCC1
REMARK SMILES IDX 4 1 2 2 1 3 3 4 5 5 6 6 7 7 16 8 8 9 14 10 9 11 13 12 10 13
REMARK SMILES IDX 12 14 11 15 15 17 17 18 19 19 18 20 20 22 21 23 22 24 25 25
REMARK SMILES IDX 23 26 24 27
REMARK H PARENT 16 16 19 21
ROOT
ATOM      1  N   UNL     1       5.619  46.843  53.252  1.00  0.00    -0.315 N 
ENDROOT
BRANCH   1   2
ATOM      2  C   UNL     1       6.259  46.684  54.576  1.00  0.00     0.081 C 
ATOM      3  C   UNL     1       5.930  45.349  55.248  1.00  0.00     0.031 C 
ATOM      4  C   UNL     1       7.770  46.924  54.519  1.00  0.00     0.031 C 
ENDBRANCH   1   2
BRANCH   1   5
ATOM      5  C   UNL     1       6.534  46.922  52.103  1.00  0.00     0.197 C 
BRANCH   5   6
ATOM      6  C   UNL     1       6.522  45.617  51.320  1.00  0.00     0.129 C 
ATOM      7  N   UNL     1       5.566  44.757  51.473  1.00  0.00    -0.233 NA
ATOM      8  N   UNL     1       7.565  45.434  50.448  1.00  0.00    -0.308 N 
ATOM      9  C   UNL     1       5.619  43.575  50.713  1.00  0.00     0.078 A 
ATOM     10  C   UNL     1       7.708  44.322  49.661  1.00  0.00     0.258 C 
ATOM     11  C   UNL     1       4.605  42.629  50.866  1.00  0.00     0.029 A 
ATOM     12  C   UNL     1       6.651  43.308  49.806  1.00  0.00     0.065 A 
ATOM     13  C   UNL     1       4.622  41.440  50.129  1.00  0.00     0.002 A 
ATOM     14  C   UNL     1       6.680  42.122  49.063  1.00  0.00     0.016 A 
ATOM     15  C   UNL     1       5.659  41.188  49.228  1.00  0.00     0.001 A 
ATOM     16  H   UNL     1       8.311  46.119  50.402  1.00  0.00     0.171 HD
ATOM     17  O   UNL     1       8.645  44.184  48.884  1.00  0.00    -0.269 OA
ENDBRANCH   5   6
ENDBRANCH   1   5
BRANCH   1  18
ATOM     18  C   UNL     1       4.274  47.194  53.181  1.00  0.00     0.318 C 
ATOM     19  N   UNL     1       3.428  46.142  52.906  1.00  0.00    -0.338 N 
ATOM     20  O   UNL     1       3.857  48.339  53.304  1.00  0.00    -0.249 OA
ATOM     21  H   UNL     1       3.608  45.355  53.513  1.00  0.00     0.165 HD
BRANCH  19  22
ATOM     22  C   UNL     1       2.009  46.415  52.734  1.00  0.00     0.121 C 
BRANCH  22  23
ATOM     23  C   UNL     1       1.187  45.131  52.739  1.00  0.00     0.008 C 
ATOM     24  C   UNL     1       1.710  44.067  53.703  1.00  0.00     0.005 C 
ATOM     25  C   UNL     1       1.187  44.421  51.380  1.00  0.00     0.005 C 
ATOM     26  C   UNL     1       1.036  42.802  53.200  1.00  0.00     0.000 C 
ATOM     27  C   UNL     1       1.109  42.923  51.682  1.00  0.00     0.000 C 
ENDBRANCH  22  23
ENDBRANCH  19  22
ENDBRANCH   1  18
TORSDOF 6
ENDMDL
MODEL 6
REMARK VINA RESULT:    -8.164      2.457      5.723
REMARK INTER + INTRA:         -12.429
REMARK INTER:                 -11.753
REMARK INTRA:                  -0.676
REMARK UNBOUND:                -1.402
REMARK SMILES CC(C)N(Cc1nc2ccccc2c(=O)[nH]1)C(=O)NCC1CCCC1
REMARK SMILES IDX 4 1 2 2 1 3 3 4 5 5 6 6 7 7 16 8 8 9 14 10 9 11 13 12 10 13
REMARK SMILES IDX 12 14 11 15 15 17 17 18 19 19 18 20 20 22 21 23 22 24 25 25
REMARK SMILES IDX 23 26 24 27
REMARK H PARENT 16 16 19 21
ROOT
ATOM      1  N   UNL     1       3.256  46.359  53.603  1.00  0.00    -0.315 N 
ENDROOT
BRANCH   1   2
ATOM      2  C   UNL     1       3.223  45.882  55.002  1.00  0.00     0.081 C 
ATOM      3  C   UNL     1       1.896  45.222  55.384  1.00  0.00     0.031 C 
ATOM      4  C   UNL     1       4.412  44.975  55.331  1.00  0.00     0.031 C 
ENDBRANCH   1   2
BRANCH   1   5
ATOM      5  C   UNL     1       4.049  47.573  53.358  1.00  0.00     0.197 C 
BRANCH   5   6
ATOM      6  C   UNL     1       5.473  47.210  52.958  1.00  0.00     0.129 C 
ATOM      7  N   UNL     1       6.479  47.551  53.698  1.00  0.00    -0.233 NA
ATOM      8  N   UNL     1       5.602  46.498  51.793  1.00  0.00    -0.308 N 
ATOM      9  C   UNL     1       7.765  47.178  53.267  1.00  0.00     0.078 A 
ATOM     10  C   UNL     1       6.808  46.084  51.288  1.00  0.00     0.258 C 
ATOM     11  C   UNL     1       8.867  47.540  54.043  1.00  0.00     0.029 A 
ATOM     12  C   UNL     1       7.986  46.456  52.089  1.00  0.00     0.065 A 
ATOM     13  C   UNL     1      10.162  47.190  53.648  1.00  0.00     0.002 A 
ATOM     14  C   UNL     1       9.277  46.100  51.683  1.00  0.00     0.016 A 
ATOM     15  C   UNL     1      10.366  46.470  52.469  1.00  0.00     0.001 A 
ATOM     16  H   UNL     1       4.784  46.298  51.229  1.00  0.00     0.171 HD
ATOM     17  O   UNL     1       6.898  45.442  50.248  1.00  0.00    -0.269 OA
ENDBRANCH   5   6
ENDBRANCH   1   5
BRANCH   1  18
ATOM     18  C   UNL     1       2.346  45.845  52.684  1.00  0.00     0.318 C 
ATOM     19  N   UNL     1       2.770  44.699  52.046  1.00  0.00    -0.338 N 
ATOM     20  O   UNL     1       1.273  46.371  52.414  1.00  0.00    -0.249 OA
ATOM     21  H   UNL     1       3.108  44.013  52.706  1.00  0.00     0.165 HD
BRANCH  19  22
ATOM     22  C   UNL     1       1.925  44.125  51.010  1.00  0.00     0.121 C 
BRANCH  22  23
ATOM     23  C   UNL     1       1.093  42.964  51.546  1.00  0.00     0.008 C 
ATOM     24  C   UNL     1      -0.407  43.251  51.596  1.00  0.00     0.005 C 
ATOM     25  C   UNL     1       1.443  42.603  52.995  1.00  0.00     0.005 C 
ATOM     26  C   UNL     1      -0.919  42.181  52.545  1.00  0.00     0.000 C 
ATOM     27  C   UNL     1       0.143  42.118  53.638  1.00  0.00     0.000 C 
ENDBRANCH  22  23
ENDBRANCH  19  22
ENDBRANCH   1  18
TORSDOF 6
ENDMDL
MODEL 7
REMARK VINA RESULT:    -8.087      1.718      2.469
REMARK INTER + INTRA:         -12.326
REMARK INTER:                 -11.804
REMARK INTRA:                  -0.522
REMARK UNBOUND:                -1.402
REMARK SMILES CC(C)N(Cc1nc2ccccc2c(=O)[nH]1)C(=O)NCC1CCCC1
REMARK SMILES IDX 4 1 2 2 1 3 3 4 5 5 6 6 7 7 16 8 8 9 14 10 9 11 13 12 10 13
REMARK SMILES IDX 12 14 11 15 15 17 17 18 19 19 18 20 20 22 21 23 22 24 25 25
REMARK SMILES IDX 23 26 24 27
REMARK H PARENT 16 16 19 21
ROOT
ATOM      1  N   UNL     1       3.797  46.616  53.436  1.00  0.00    -0.315 N 
ENDROOT
BRANCH   1   2
ATOM      2  C   UNL     1       3.005  45.613  54.179  1.00  0.00     0.081 C 
ATOM      3  C   UNL     1       3.143  45.740  55.698  1.00  0.00     0.031 C 
ATOM      4  C   UNL     1       1.534  45.607  53.751  1.00  0.00     0.031 C 
ENDBRANCH   1   2
BRANCH   1   5
ATOM      5  C   UNL     1       3.619  46.620  51.976  1.00  0.00     0.197 C 
BRANCH   5   6
ATOM      6  C   UNL     1       4.403  45.482  51.338  1.00  0.00     0.129 C 
ATOM      7  N   UNL     1       3.901  44.290  51.260  1.00  0.00    -0.233 NA
ATOM      8  N   UNL     1       5.640  45.810  50.848  1.00  0.00    -0.308 N 
ATOM      9  C   UNL     1       4.681  43.290  50.654  1.00  0.00     0.078 A 
ATOM     10  C   UNL     1       6.477  44.912  50.238  1.00  0.00     0.258 C 
ATOM     11  C   UNL     1       4.167  41.996  50.566  1.00  0.00     0.029 A 
ATOM     12  C   UNL     1       5.956  43.539  50.134  1.00  0.00     0.065 A 
ATOM     13  C   UNL     1       4.911  40.972  49.971  1.00  0.00     0.002 A 
ATOM     14  C   UNL     1       6.711  42.523  49.537  1.00  0.00     0.016 A 
ATOM     15  C   UNL     1       6.183  41.236  49.457  1.00  0.00     0.001 A 
ATOM     16  H   UNL     1       6.003  46.748  50.977  1.00  0.00     0.171 HD
ATOM     17  O   UNL     1       7.576  45.230  49.801  1.00  0.00    -0.269 OA
ENDBRANCH   5   6
ENDBRANCH   1   5
BRANCH   1  18
ATOM     18  C   UNL     1       4.842  47.274  54.077  1.00  0.00     0.318 C 
ATOM     19  N   UNL     1       6.047  46.608  54.029  1.00  0.00    -0.338 N 
ATOM     20  O   UNL     1       4.717  48.335  54.679  1.00  0.00    -0.249 OA
ATOM     21  H   UNL     1       6.270  46.318  53.087  1.00  0.00     0.165 HD
BRANCH  19  22
ATOM     22  C   UNL     1       7.186  47.175  54.735  1.00  0.00     0.121 C 
BRANCH  22  23
ATOM     23  C   UNL     1       8.315  47.538  53.778  1.00  0.00     0.008 C 
ATOM     24  C   UNL     1       7.858  47.738  52.333  1.00  0.00     0.005 C 
ATOM     25  C   UNL     1       9.381  46.440  53.673  1.00  0.00     0.005 C 
ATOM     26  C   UNL     1       9.160  47.632  51.555  1.00  0.00     0.000 C 
ATOM     27  C   UNL     1       9.907  46.493  52.238  1.00  0.00     0.000 C 
ENDBRANCH  22  23
ENDBRANCH  19  22
ENDBRANCH   1  18
TORSDOF 6
ENDMDL
MODEL 8
REMARK VINA RESULT:    -8.080      2.014      4.803
REMARK INTER + INTRA:         -12.316
REMARK INTER:                 -10.831
REMARK INTRA:                  -1.485
REMARK UNBOUND:                -1.402
REMARK SMILES CC(C)N(Cc1nc2ccccc2c(=O)[nH]1)C(=O)NCC1CCCC1
REMARK SMILES IDX 4 1 2 2 1 3 3 4 5 5 6 6 7 7 16 8 8 9 14 10 9 11 13 12 10 13
REMARK SMILES IDX 12 14 11 15 15 17 17 18 19 19 18 20 20 22 21 23 22 24 25 25
REMARK SMILES IDX 23 26 24 27
REMARK H PARENT 16 16 19 21
ROOT
ATOM      1  N   UNL     1       1.126  43.408  53.618  1.00  0.00    -0.315 N 
ENDROOT
BRANCH   1   2
ATOM      2  C   UNL     1      -0.190  42.773  53.842  1.00  0.00     0.081 C 
ATOM      3  C   UNL     1      -1.240  43.738  54.397  1.00  0.00     0.031 C 
ATOM      4  C   UNL     1      -0.701  42.049  52.594  1.00  0.00     0.031 C 
ENDBRANCH   1   2
BRANCH   1   5
ATOM      5  C   UNL     1       1.585  44.323  54.674  1.00  0.00     0.197 C 
BRANCH   5   6
ATOM      6  C   UNL     1       2.763  45.155  54.187  1.00  0.00     0.129 C 
ATOM      7  N   UNL     1       3.981  44.763  54.384  1.00  0.00    -0.233 NA
ATOM      8  N   UNL     1       2.443  46.312  53.524  1.00  0.00    -0.308 N 
ATOM      9  C   UNL     1       5.019  45.581  53.903  1.00  0.00     0.078 A 
ATOM     10  C   UNL     1       3.377  47.176  53.014  1.00  0.00     0.258 C 
ATOM     11  C   UNL     1       6.341  45.185  54.109  1.00  0.00     0.029 A 
ATOM     12  C   UNL     1       4.779  46.780  53.222  1.00  0.00     0.065 A 
ATOM     13  C   UNL     1       7.401  45.971  53.646  1.00  0.00     0.002 A 
ATOM     14  C   UNL     1       5.831  47.576  52.755  1.00  0.00     0.016 A 
ATOM     15  C   UNL     1       7.146  47.166  52.970  1.00  0.00     0.001 A 
ATOM     16  H   UNL     1       1.473  46.594  53.439  1.00  0.00     0.171 HD
ATOM     17  O   UNL     1       3.067  48.201  52.419  1.00  0.00    -0.269 OA
ENDBRANCH   5   6
ENDBRANCH   1   5
BRANCH   1  18
ATOM     18  C   UNL     1       1.706  43.352  52.355  1.00  0.00     0.318 C 
ATOM     19  N   UNL     1       2.684  42.390  52.222  1.00  0.00    -0.338 N 
ATOM     20  O   UNL     1       1.421  44.109  51.435  1.00  0.00    -0.249 OA
ATOM     21  H   UNL     1       2.367  41.493  52.561  1.00  0.00     0.165 HD
BRANCH  19  22
ATOM     22  C   UNL     1       3.406  42.300  50.962  1.00  0.00     0.121 C 
BRANCH  22  23
ATOM     23  C   UNL     1       4.801  42.905  51.071  1.00  0.00     0.008 C 
ATOM     24  C   UNL     1       4.878  44.363  50.619  1.00  0.00     0.005 C 
ATOM     25  C   UNL     1       5.828  42.195  50.181  1.00  0.00     0.005 C 
ATOM     26  C   UNL     1       6.368  44.565  50.399  1.00  0.00     0.000 C 
ATOM     27  C   UNL     1       6.822  43.269  49.736  1.00  0.00     0.000 C 
ENDBRANCH  22  23
ENDBRANCH  19  22
ENDBRANCH   1  18
TORSDOF 6
ENDMDL
MODEL 9
REMARK VINA RESULT:    -7.938      1.991      5.305
REMARK INTER + INTRA:         -12.125
REMARK INTER:                 -11.337
REMARK INTRA:                  -0.788
REMARK UNBOUND:                -1.402
REMARK SMILES CC(C)N(Cc1nc2ccccc2c(=O)[nH]1)C(=O)NCC1CCCC1
REMARK SMILES IDX 4 1 2 2 1 3 3 4 5 5 6 6 7 7 16 8 8 9 14 10 9 11 13 12 10 13
REMARK SMILES IDX 12 14 11 15 15 17 17 18 19 19 18 20 20 22 21 23 22 24 25 25
REMARK SMILES IDX 23 26 24 27
REMARK H PARENT 16 16 19 21
ROOT
ATOM      1  N   UNL     1       5.620  43.554  50.793  1.00  0.00    -0.315 N 
ENDROOT
BRANCH   1   2
ATOM      2  C   UNL     1       6.162  43.031  49.520  1.00  0.00     0.081 C 
ATOM      3  C   UNL     1       7.611  43.451  49.263  1.00  0.00     0.031 C 
ATOM      4  C   UNL     1       5.990  41.515  49.400  1.00  0.00     0.031 C 
ENDBRANCH   1   2
BRANCH   1   5
ATOM      5  C   UNL     1       4.844  42.601  51.599  1.00  0.00     0.197 C 
BRANCH   5   6
ATOM      6  C   UNL     1       3.506  43.206  52.002  1.00  0.00     0.129 C 
ATOM      7  N   UNL     1       2.474  43.116  51.225  1.00  0.00    -0.233 NA
ATOM      8  N   UNL     1       3.473  43.821  53.227  1.00  0.00    -0.308 N 
ATOM      9  C   UNL     1       1.270  43.694  51.664  1.00  0.00     0.078 A 
ATOM     10  C   UNL     1       2.352  44.413  53.748  1.00  0.00     0.258 C 
ATOM     11  C   UNL     1       0.146  43.618  50.841  1.00  0.00     0.029 A 
ATOM     12  C   UNL     1       1.153  44.346  52.897  1.00  0.00     0.065 A 
ATOM     13  C   UNL     1      -1.070  44.182  51.242  1.00  0.00     0.002 A 
ATOM     14  C   UNL     1      -0.057  44.915  53.308  1.00  0.00     0.016 A 
ATOM     15  C   UNL     1      -1.171  44.830  52.475  1.00  0.00     0.001 A 
ATOM     16  H   UNL     1       4.323  43.904  53.774  1.00  0.00     0.171 HD
ATOM     17  O   UNL     1       2.345  44.951  54.848  1.00  0.00    -0.269 OA
ENDBRANCH   5   6
ENDBRANCH   1   5
BRANCH   1  18
ATOM     18  C   UNL     1       5.612  44.927  51.019  1.00  0.00     0.318 C 
ATOM     19  N   UNL     1       6.405  45.333  52.071  1.00  0.00    -0.338 N 
ATOM     20  O   UNL     1       4.934  45.724  50.381  1.00  0.00    -0.249 OA
ATOM     21  H   UNL     1       7.333  44.940  52.006  1.00  0.00     0.165 HD
BRANCH  19  22
ATOM     22  C   UNL     1       6.407  46.741  52.439  1.00  0.00     0.121 C 
BRANCH  22  23
ATOM     23  C   UNL     1       7.825  47.267  52.634  1.00  0.00     0.008 C 
ATOM     24  C   UNL     1       8.898  46.412  51.961  1.00  0.00     0.005 C 
ATOM     25  C   UNL     1       8.251  47.292  54.107  1.00  0.00     0.005 C 
ATOM     26  C   UNL     1      10.169  46.863  52.660  1.00  0.00     0.000 C 
ATOM     27  C   UNL     1       9.756  47.013  54.119  1.00  0.00     0.000 C 
ENDBRANCH  22  23
ENDBRANCH  19  22
ENDBRANCH   1  18
TORSDOF 6
ENDMDL
MODEL 10
REMARK VINA RESULT:    -7.869      1.938      5.220
REMARK INTER + INTRA:         -12.031
REMARK INTER:                 -11.157
REMARK INTRA:                  -0.874
REMARK UNBOUND:                -1.402
REMARK SMILES CC(C)N(Cc1nc2ccccc2c(=O)[nH]1)C(=O)NCC1CCCC1
REMARK SMILES IDX 4 1 2 2 1 3 3 4 5 5 6 6 7 7 16 8 8 9 14 10 9 11 13 12 10 13
REMARK SMILES IDX 12 14 11 15 15 17 17 18 19 19 18 20 20 22 21 23 22 24 25 25
REMARK SMILES IDX 23 26 24 27
REMARK H PARENT 16 16 19 21
ROOT
ATOM      1  N   UNL     1       5.587  43.434  50.735  1.00  0.00    -0.315 N 
ENDROOT
BRANCH   1   2
ATOM      2  C   UNL     1       6.152  43.031  49.429  1.00  0.00     0.081 C 
ATOM      3  C   UNL     1       7.621  43.425  49.260  1.00  0.00     0.031 C 
ATOM      4  C   UNL     1       5.935  41.543  49.140  1.00  0.00     0.031 C 
ENDBRANCH   1   2
BRANCH   1   5
ATOM      5  C   UNL     1       4.829  42.398  51.453  1.00  0.00     0.197 C 
BRANCH   5   6
ATOM      6  C   UNL     1       3.476  42.935  51.896  1.00  0.00     0.129 C 
ATOM      7  N   UNL     1       3.336  43.522  53.042  1.00  0.00    -0.233 NA
ATOM      8  N   UNL     1       2.447  42.769  51.006  1.00  0.00    -0.308 N 
ATOM      9  C   UNL     1       2.057  43.996  53.383  1.00  0.00     0.078 A 
ATOM     10  C   UNL     1       1.166  43.197  51.240  1.00  0.00     0.258 C 
ATOM     11  C   UNL     1       1.879  44.626  54.616  1.00  0.00     0.029 A 
ATOM     12  C   UNL     1       0.952  43.863  52.535  1.00  0.00     0.065 A 
ATOM     13  C   UNL     1       0.622  45.111  54.993  1.00  0.00     0.002 A 
ATOM     14  C   UNL     1      -0.310  44.343  52.901  1.00  0.00     0.016 A 
ATOM     15  C   UNL     1      -0.471  44.969  54.136  1.00  0.00     0.001 A 
ATOM     16  H   UNL     1       2.602  42.260  50.143  1.00  0.00     0.171 HD
ATOM     17  O   UNL     1       0.263  43.044  50.426  1.00  0.00    -0.269 OA
ENDBRANCH   5   6
ENDBRANCH   1   5
BRANCH   1  18
ATOM     18  C   UNL     1       5.540  44.783  51.073  1.00  0.00     0.318 C 
ATOM     19  N   UNL     1       6.206  45.099  52.238  1.00  0.00    -0.338 N 
ATOM     20  O   UNL     1       4.931  45.630  50.431  1.00  0.00    -0.249 OA
ATOM     21  H   UNL     1       7.139  44.712  52.246  1.00  0.00     0.165 HD
BRANCH  19  22
ATOM     22  C   UNL     1       6.153  46.471  52.721  1.00  0.00     0.121 C 
BRANCH  22  23
ATOM     23  C   UNL     1       7.521  47.141  52.653  1.00  0.00     0.008 C 
ATOM     24  C   UNL     1       8.522  46.411  51.759  1.00  0.00     0.005 C 
ATOM     25  C   UNL     1       8.223  47.194  54.016  1.00  0.00     0.005 C 
ATOM     26  C   UNL     1       9.854  46.986  52.212  1.00  0.00     0.000 C 
ATOM     27  C   UNL     1       9.721  47.076  53.728  1.00  0.00     0.000 C 
ENDBRANCH  22  23
ENDBRANCH  19  22
ENDBRANCH   1  18
TORSDOF 6
ENDMDL
