MODEL 1
REMARK VINA RESULT:    -8.673      0.000      0.000
REMARK INTER + INTRA:         -11.739
REMARK INTER:                 -10.701
REMARK INTRA:                  -1.039
REMARK UNBOUND:                -1.039
REMARK SMILES Cc1cc(C)n(CC2CCCC[NH+]2Cc2nc3cccnc3[nH]2)n1
REMARK SMILES IDX 8 1 9 2 10 3 11 4 12 5 13 6 7 8 6 9 2 10 3 11 24 12 4 13
REMARK SMILES IDX 1 14 5 15 14 16 15 17 16 18 23 19 17 20 22 21 18 22 21 23
REMARK SMILES IDX 19 24 20 25
REMARK H PARENT 13 7 23 26
ROOT
ATOM      1  C   UNL     1       4.386  43.259  51.251  1.00  0.00     0.206 C 
ATOM      2  C   UNL     1       4.281  41.848  50.644  1.00  0.00     0.067 C 
ATOM      3  C   UNL     1       5.649  41.193  50.532  1.00  0.00     0.012 C 
ATOM      4  C   UNL     1       6.561  41.978  49.593  1.00  0.00     0.062 C 
ATOM      5  C   UNL     1       6.154  43.436  49.411  1.00  0.00     0.262 C 
ATOM      6  N   UNL     1       5.632  43.986  50.708  1.00  0.00    -0.325 N 
ATOM      7  H   UNL     1       6.362  43.787  51.414  1.00  0.00     0.348 HD
ENDROOT
BRANCH   1   8
ATOM      8  C   UNL     1       3.035  44.010  51.232  1.00  0.00     0.209 C 
BRANCH   8   9
ATOM      9  N   UNL     1       2.647  44.703  52.444  1.00  0.00    -0.264 N 
ATOM     10  C   UNL     1       2.910  45.585  54.355  1.00  0.00     0.060 A 
ATOM     11  C   UNL     1       1.540  45.690  54.055  1.00  0.00     0.048 A 
ATOM     12  N   UNL     1       3.584  44.958  53.380  1.00  0.00    -0.178 NA
ATOM     13  C   UNL     1       1.390  45.109  52.815  1.00  0.00     0.036 A 
ATOM     14  C   UNL     1       3.611  46.072  55.568  1.00  0.00     0.069 C 
ATOM     15  C   UNL     1       0.165  44.920  51.995  1.00  0.00     0.066 C 
ENDBRANCH   8   9
ENDBRANCH   1   8
BRANCH   6  16
ATOM     16  C   UNL     1       5.612  45.502  50.731  1.00  0.00     0.339 C 
BRANCH  16  17
ATOM     17  C   UNL     1       6.665  46.021  51.652  1.00  0.00     0.163 A 
ATOM     18  N   UNL     1       7.965  45.970  51.420  1.00  0.00    -0.226 NA
ATOM     19  N   UNL     1       6.389  46.593  52.869  1.00  0.00    -0.322 N 
ATOM     20  C   UNL     1       8.550  46.535  52.533  1.00  0.00     0.108 A 
ATOM     21  C   UNL     1       7.582  46.920  53.446  1.00  0.00     0.157 A 
ATOM     22  C   UNL     1       9.889  46.762  52.872  1.00  0.00     0.034 A 
ATOM     23  N   UNL     1       7.749  47.482  54.650  1.00  0.00    -0.237 NA
ATOM     24  C   UNL     1      10.131  47.352  54.115  1.00  0.00     0.022 A 
ATOM     25  C   UNL     1       9.057  47.682  54.941  1.00  0.00     0.113 A 
ATOM     26  H   UNL     1       5.485  46.759  53.298  1.00  0.00     0.170 HD
ENDBRANCH  16  17
ENDBRANCH   6  16
TORSDOF 4
ENDMDL
MODEL 2
REMARK VINA RESULT:    -8.481      0.981      1.052
REMARK INTER + INTRA:         -11.503
REMARK INTER:                 -10.741
REMARK INTRA:                  -0.762
REMARK UNBOUND:                -1.039
REMARK SMILES Cc1cc(C)n(CC2CCCC[NH+]2Cc2nc3cccnc3[nH]2)n1
REMARK SMILES IDX 8 1 9 2 10 3 11 4 12 5 13 6 7 8 6 9 2 10 3 11 24 12 4 13
REMARK SMILES IDX 1 14 5 15 14 16 15 17 16 18 23 19 17 20 22 21 18 22 21 23
REMARK SMILES IDX 19 24 20 25
REMARK H PARENT 13 7 23 26
ROOT
ATOM      1  C   UNL     1       4.028  43.453  51.546  1.00  0.00     0.206 C 
ATOM      2  C   UNL     1       3.853  42.048  50.940  1.00  0.00     0.067 C 
ATOM      3  C   UNL     1       5.186  41.323  50.836  1.00  0.00     0.012 C 
ATOM      4  C   UNL     1       6.141  42.058  49.900  1.00  0.00     0.062 C 
ATOM      5  C   UNL     1       5.811  43.535  49.713  1.00  0.00     0.262 C 
ATOM      6  N   UNL     1       5.313  44.114  51.007  1.00  0.00    -0.325 N 
ATOM      7  H   UNL     1       6.028  43.878  51.717  1.00  0.00     0.348 HD
ENDROOT
BRANCH   1   8
ATOM      8  C   UNL     1       2.718  44.272  51.519  1.00  0.00     0.209 C 
BRANCH   8   9
ATOM      9  N   UNL     1       1.900  44.251  52.716  1.00  0.00    -0.264 N 
ATOM     10  C   UNL     1       1.357  44.712  54.714  1.00  0.00     0.060 A 
ATOM     11  C   UNL     1       0.369  43.839  54.225  1.00  0.00     0.048 A 
ATOM     12  N   UNL     1       2.309  44.945  53.798  1.00  0.00    -0.178 NA
ATOM     13  C   UNL     1       0.742  43.550  52.930  1.00  0.00     0.036 A 
ATOM     14  C   UNL     1       1.425  45.342  56.054  1.00  0.00     0.069 C 
ATOM     15  C   UNL     1       0.087  42.672  51.925  1.00  0.00     0.066 C 
ENDBRANCH   8   9
ENDBRANCH   1   8
BRANCH   6  16
ATOM     16  C   UNL     1       5.371  45.628  51.028  1.00  0.00     0.339 C 
BRANCH  16  17
ATOM     17  C   UNL     1       6.524  46.092  51.852  1.00  0.00     0.163 A 
ATOM     18  N   UNL     1       7.797  45.938  51.528  1.00  0.00    -0.226 NA
ATOM     19  N   UNL     1       6.383  46.716  53.067  1.00  0.00    -0.322 N 
ATOM     20  C   UNL     1       8.503  46.488  52.576  1.00  0.00     0.108 A 
ATOM     21  C   UNL     1       7.636  46.969  53.545  1.00  0.00     0.157 A 
ATOM     22  C   UNL     1       9.876  46.624  52.810  1.00  0.00     0.034 A 
ATOM     23  N   UNL     1       7.933  47.549  54.714  1.00  0.00    -0.237 NA
ATOM     24  C   UNL     1      10.253  47.227  54.012  1.00  0.00     0.022 A 
ATOM     25  C   UNL     1       9.271  47.659  54.902  1.00  0.00     0.113 A 
ATOM     26  H   UNL     1       5.528  46.961  53.555  1.00  0.00     0.170 HD
ENDBRANCH  16  17
ENDBRANCH   6  16
TORSDOF 4
ENDMDL
MODEL 3
REMARK VINA RESULT:    -8.465      0.994      1.602
REMARK INTER + INTRA:         -11.483
REMARK INTER:                 -10.751
REMARK INTRA:                  -0.732
REMARK UNBOUND:                -1.039
REMARK SMILES Cc1cc(C)n(CC2CCCC[NH+]2Cc2nc3cccnc3[nH]2)n1
REMARK SMILES IDX 8 1 9 2 10 3 11 4 12 5 13 6 7 8 6 9 2 10 3 11 24 12 4 13
REMARK SMILES IDX 1 14 5 15 14 16 15 17 16 18 23 19 17 20 22 21 18 22 21 23
REMARK SMILES IDX 19 24 20 25
REMARK H PARENT 13 7 23 26
ROOT
ATOM      1  C   UNL     1       3.932  43.471  51.369  1.00  0.00     0.206 C 
ATOM      2  C   UNL     1       3.772  42.043  50.813  1.00  0.00     0.067 C 
ATOM      3  C   UNL     1       5.084  41.278  50.873  1.00  0.00     0.012 C 
ATOM      4  C   UNL     1       6.149  41.940  50.003  1.00  0.00     0.062 C 
ATOM      5  C   UNL     1       5.886  43.415  49.718  1.00  0.00     0.262 C 
ATOM      6  N   UNL     1       5.284  44.069  50.929  1.00  0.00    -0.325 N 
ATOM      7  H   UNL     1       5.918  43.849  51.715  1.00  0.00     0.348 HD
ENDROOT
BRANCH   1   8
ATOM      8  C   UNL     1       2.658  44.323  51.175  1.00  0.00     0.209 C 
BRANCH   8   9
ATOM      9  N   UNL     1       1.836  44.558  52.347  1.00  0.00    -0.264 N 
ATOM     10  C   UNL     1       0.310  44.166  53.768  1.00  0.00     0.060 A 
ATOM     11  C   UNL     1       0.873  45.406  54.120  1.00  0.00     0.048 A 
ATOM     12  N   UNL     1       0.883  43.658  52.667  1.00  0.00    -0.178 NA
ATOM     13  C   UNL     1       1.856  45.643  53.184  1.00  0.00     0.036 A 
ATOM     14  C   UNL     1      -0.779  43.437  54.460  1.00  0.00     0.069 C 
ATOM     15  C   UNL     1       2.776  46.802  53.043  1.00  0.00     0.066 C 
ENDBRANCH   8   9
ENDBRANCH   1   8
BRANCH   6  16
ATOM     16  C   UNL     1       5.388  45.581  50.886  1.00  0.00     0.339 C 
BRANCH  16  17
ATOM     17  C   UNL     1       6.522  46.047  51.735  1.00  0.00     0.163 A 
ATOM     18  N   UNL     1       7.801  45.928  51.422  1.00  0.00    -0.226 NA
ATOM     19  N   UNL     1       6.354  46.636  52.965  1.00  0.00    -0.322 N 
ATOM     20  C   UNL     1       8.483  46.465  52.493  1.00  0.00     0.108 A 
ATOM     21  C   UNL     1       7.596  46.902  53.463  1.00  0.00     0.157 A 
ATOM     22  C   UNL     1       9.851  46.624  52.746  1.00  0.00     0.034 A 
ATOM     23  N   UNL     1       7.868  47.458  54.651  1.00  0.00    -0.237 NA
ATOM     24  C   UNL     1      10.202  47.203  53.967  1.00  0.00     0.022 A 
ATOM     25  C   UNL     1       9.201  47.591  54.857  1.00  0.00     0.113 A 
ATOM     26  H   UNL     1       5.488  46.850  53.449  1.00  0.00     0.170 HD
ENDBRANCH  16  17
ENDBRANCH   6  16
TORSDOF 4
ENDMDL
MODEL 4
REMARK VINA RESULT:    -8.410      1.398      6.032
REMARK INTER + INTRA:         -11.415
REMARK INTER:                 -10.258
REMARK INTRA:                  -1.157
REMARK UNBOUND:                -1.039
REMARK SMILES Cc1cc(C)n(CC2CCCC[NH+]2Cc2nc3cccnc3[nH]2)n1
REMARK SMILES IDX 8 1 9 2 10 3 11 4 12 5 13 6 7 8 6 9 2 10 3 11 24 12 4 13
REMARK SMILES IDX 1 14 5 15 14 16 15 17 16 18 23 19 17 20 22 21 18 22 21 23
REMARK SMILES IDX 19 24 20 25
REMARK H PARENT 13 7 23 26
ROOT
ATOM      1  C   UNL     1       7.586  45.959  52.162  1.00  0.00     0.206 C 
ATOM      2  C   UNL     1       9.117  45.809  52.098  1.00  0.00     0.067 C 
ATOM      3  C   UNL     1       9.763  46.168  53.428  1.00  0.00     0.012 C 
ATOM      4  C   UNL     1       9.507  47.629  53.788  1.00  0.00     0.062 C 
ATOM      5  C   UNL     1       8.294  48.236  53.091  1.00  0.00     0.262 C 
ATOM      6  N   UNL     1       7.203  47.209  52.981  1.00  0.00    -0.325 N 
ATOM      7  H   UNL     1       7.061  46.843  53.937  1.00  0.00     0.348 HD
ENDROOT
BRANCH   1   8
ATOM      8  C   UNL     1       6.917  45.755  50.784  1.00  0.00     0.209 C 
BRANCH   8   9
ATOM      9  N   UNL     1       6.503  44.408  50.444  1.00  0.00    -0.264 N 
ATOM     10  C   UNL     1       5.310  42.656  50.527  1.00  0.00     0.060 A 
ATOM     11  C   UNL     1       6.362  42.378  49.636  1.00  0.00     0.048 A 
ATOM     12  N   UNL     1       5.410  43.890  51.042  1.00  0.00    -0.178 NA
ATOM     13  C   UNL     1       7.125  43.525  49.599  1.00  0.00     0.036 A 
ATOM     14  C   UNL     1       4.191  41.762  50.913  1.00  0.00     0.069 C 
ATOM     15  C   UNL     1       8.369  43.816  48.840  1.00  0.00     0.066 C 
ENDBRANCH   8   9
ENDBRANCH   1   8
BRANCH   6  16
ATOM     16  C   UNL     1       5.847  47.827  52.702  1.00  0.00     0.339 C 
BRANCH  16  17
ATOM     17  C   UNL     1       4.766  47.011  53.326  1.00  0.00     0.163 A 
ATOM     18  N   UNL     1       4.451  47.026  54.609  1.00  0.00    -0.226 NA
ATOM     19  N   UNL     1       3.988  46.123  52.623  1.00  0.00    -0.322 N 
ATOM     20  C   UNL     1       3.426  46.113  54.737  1.00  0.00     0.108 A 
ATOM     21  C   UNL     1       3.134  45.538  53.512  1.00  0.00     0.157 A 
ATOM     22  C   UNL     1       2.682  45.692  55.846  1.00  0.00     0.034 A 
ATOM     23  N   UNL     1       2.223  44.598  53.229  1.00  0.00    -0.237 NA
ATOM     24  C   UNL     1       1.711  44.714  55.616  1.00  0.00     0.022 A 
ATOM     25  C   UNL     1       1.527  44.216  54.327  1.00  0.00     0.113 A 
ATOM     26  H   UNL     1       4.012  45.911  51.631  1.00  0.00     0.170 HD
ENDBRANCH  16  17
ENDBRANCH   6  16
TORSDOF 4
ENDMDL
MODEL 5
REMARK VINA RESULT:    -8.333      1.350      4.587
REMARK INTER + INTRA:         -11.321
REMARK INTER:                 -10.238
REMARK INTRA:                  -1.083
REMARK UNBOUND:                -1.039
REMARK SMILES Cc1cc(C)n(CC2CCCC[NH+]2Cc2nc3cccnc3[nH]2)n1
REMARK SMILES IDX 8 1 9 2 10 3 11 4 12 5 13 6 7 8 6 9 2 10 3 11 24 12 4 13
REMARK SMILES IDX 1 14 5 15 14 16 15 17 16 18 23 19 17 20 22 21 18 22 21 23
REMARK SMILES IDX 19 24 20 25
REMARK H PARENT 13 7 23 26
ROOT
ATOM      1  C   UNL     1       3.129  43.873  51.888  1.00  0.00     0.206 C 
ATOM      2  C   UNL     1       1.644  43.918  51.486  1.00  0.00     0.067 C 
ATOM      3  C   UNL     1       1.025  45.268  51.813  1.00  0.00     0.012 C 
ATOM      4  C   UNL     1       1.052  45.537  53.316  1.00  0.00     0.062 C 
ATOM      5  C   UNL     1       2.105  44.731  54.070  1.00  0.00     0.262 C 
ATOM      6  N   UNL     1       3.344  44.600  53.231  1.00  0.00    -0.325 N 
ATOM      7  H   UNL     1       3.600  45.563  52.951  1.00  0.00     0.348 HD
ENDROOT
BRANCH   1   8
ATOM      8  C   UNL     1       3.743  42.465  51.713  1.00  0.00     0.209 C 
BRANCH   8   9
ATOM      9  N   UNL     1       4.716  42.296  50.651  1.00  0.00    -0.264 N 
ATOM     10  C   UNL     1       6.465  42.710  49.526  1.00  0.00     0.060 A 
ATOM     11  C   UNL     1       5.805  41.662  48.861  1.00  0.00     0.048 A 
ATOM     12  N   UNL     1       5.786  43.116  50.609  1.00  0.00    -0.178 NA
ATOM     13  C   UNL     1       4.672  41.411  49.605  1.00  0.00     0.036 A 
ATOM     14  C   UNL     1       7.749  43.352  49.152  1.00  0.00     0.069 C 
ATOM     15  C   UNL     1       3.587  40.420  49.381  1.00  0.00     0.066 C 
ENDBRANCH   8   9
ENDBRANCH   1   8
BRANCH   6  16
ATOM     16  C   UNL     1       4.559  44.202  54.045  1.00  0.00     0.339 C 
BRANCH  16  17
ATOM     17  C   UNL     1       5.719  45.077  53.710  1.00  0.00     0.163 A 
ATOM     18  N   UNL     1       6.476  45.703  54.594  1.00  0.00    -0.226 NA
ATOM     19  N   UNL     1       6.113  45.349  52.423  1.00  0.00    -0.322 N 
ATOM     20  C   UNL     1       7.397  46.405  53.845  1.00  0.00     0.108 A 
ATOM     21  C   UNL     1       7.178  46.200  52.493  1.00  0.00     0.157 A 
ATOM     22  C   UNL     1       8.451  47.249  54.212  1.00  0.00     0.034 A 
ATOM     23  N   UNL     1       7.842  46.722  51.453  1.00  0.00    -0.237 NA
ATOM     24  C   UNL     1       9.188  47.822  53.172  1.00  0.00     0.022 A 
ATOM     25  C   UNL     1       8.852  47.533  51.850  1.00  0.00     0.113 A 
ATOM     26  H   UNL     1       5.716  45.005  51.555  1.00  0.00     0.170 HD
ENDBRANCH  16  17
ENDBRANCH   6  16
TORSDOF 4
ENDMDL
MODEL 6
REMARK VINA RESULT:    -8.152      2.214      7.176
REMARK INTER + INTRA:         -11.097
REMARK INTER:                 -10.025
REMARK INTRA:                  -1.072
REMARK UNBOUND:                -1.039
REMARK SMILES Cc1cc(C)n(CC2CCCC[NH+]2Cc2nc3cccnc3[nH]2)n1
REMARK SMILES IDX 8 1 9 2 10 3 11 4 12 5 13 6 7 8 6 9 2 10 3 11 24 12 4 13
REMARK SMILES IDX 1 14 5 15 14 16 15 17 16 18 23 19 17 20 22 21 18 22 21 23
REMARK SMILES IDX 19 24 20 25
REMARK H PARENT 13 7 23 26
ROOT
ATOM      1  C   UNL     1       5.548  45.271  52.534  1.00  0.00     0.206 C 
ATOM      2  C   UNL     1       6.581  45.644  53.613  1.00  0.00     0.067 C 
ATOM      3  C   UNL     1       5.902  46.001  54.926  1.00  0.00     0.012 C 
ATOM      4  C   UNL     1       5.011  47.230  54.770  1.00  0.00     0.062 C 
ATOM      5  C   UNL     1       4.571  47.497  53.334  1.00  0.00     0.262 C 
ATOM      6  N   UNL     1       4.316  46.196  52.628  1.00  0.00    -0.325 N 
ATOM      7  H   UNL     1       3.659  45.670  53.230  1.00  0.00     0.348 HD
ENDROOT
BRANCH   1   8
ATOM      8  C   UNL     1       6.196  45.058  51.148  1.00  0.00     0.209 C 
BRANCH   8   9
ATOM      9  N   UNL     1       5.960  43.783  50.497  1.00  0.00    -0.264 N 
ATOM     10  C   UNL     1       4.940  41.975  50.064  1.00  0.00     0.060 A 
ATOM     11  C   UNL     1       6.121  41.956  49.302  1.00  0.00     0.048 A 
ATOM     12  N   UNL     1       4.853  43.082  50.816  1.00  0.00    -0.178 NA
ATOM     13  C   UNL     1       6.770  43.135  49.600  1.00  0.00     0.036 A 
ATOM     14  C   UNL     1       3.870  40.949  50.101  1.00  0.00     0.069 C 
ATOM     15  C   UNL     1       8.070  43.658  49.104  1.00  0.00     0.066 C 
ENDBRANCH   8   9
ENDBRANCH   1   8
BRANCH   6  16
ATOM     16  C   UNL     1       3.485  46.367  51.372  1.00  0.00     0.339 C 
BRANCH  16  17
ATOM     17  C   UNL     1       2.182  45.654  51.511  1.00  0.00     0.163 A 
ATOM     18  N   UNL     1       1.210  46.006  52.335  1.00  0.00    -0.226 NA
ATOM     19  N   UNL     1       1.860  44.523  50.802  1.00  0.00    -0.322 N 
ATOM     20  C   UNL     1       0.222  45.064  52.147  1.00  0.00     0.108 A 
ATOM     21  C   UNL     1       0.616  44.131  51.202  1.00  0.00     0.157 A 
ATOM     22  C   UNL     1      -1.040  44.903  52.730  1.00  0.00     0.034 A 
ATOM     23  N   UNL     1      -0.052  43.056  50.763  1.00  0.00    -0.237 NA
ATOM     24  C   UNL     1      -1.791  43.802  52.311  1.00  0.00     0.022 A 
ATOM     25  C   UNL     1      -1.266  42.936  51.353  1.00  0.00     0.113 A 
ATOM     26  H   UNL     1       2.414  44.037  50.104  1.00  0.00     0.170 HD
ENDBRANCH  16  17
ENDBRANCH   6  16
TORSDOF 4
ENDMDL
MODEL 7
REMARK VINA RESULT:    -8.073      1.588      5.249
REMARK INTER + INTRA:         -11.000
REMARK INTER:                 -10.005
REMARK INTRA:                  -0.994
REMARK UNBOUND:                -1.039
REMARK SMILES Cc1cc(C)n(CC2CCCC[NH+]2Cc2nc3cccnc3[nH]2)n1
REMARK SMILES IDX 8 1 9 2 10 3 11 4 12 5 13 6 7 8 6 9 2 10 3 11 24 12 4 13
REMARK SMILES IDX 1 14 5 15 14 16 15 17 16 18 23 19 17 20 22 21 18 22 21 23
REMARK SMILES IDX 19 24 20 25
REMARK H PARENT 13 7 23 26
ROOT
ATOM      1  C   UNL     1       3.031  45.585  54.123  1.00  0.00     0.206 C 
ATOM      2  C   UNL     1       2.025  45.306  55.256  1.00  0.00     0.067 C 
ATOM      3  C   UNL     1       1.094  44.159  54.897  1.00  0.00     0.012 C 
ATOM      4  C   UNL     1       0.249  44.498  53.672  1.00  0.00     0.062 C 
ATOM      5  C   UNL     1       0.847  45.589  52.790  1.00  0.00     0.262 C 
ATOM      6  N   UNL     1       2.342  45.450  52.750  1.00  0.00    -0.325 N 
ATOM      7  H   UNL     1       2.528  44.470  52.476  1.00  0.00     0.348 HD
ENDROOT
BRANCH   1   8
ATOM      8  C   UNL     1       3.885  46.844  54.392  1.00  0.00     0.209 C 
BRANCH   8   9
ATOM      9  N   UNL     1       5.305  46.752  54.109  1.00  0.00    -0.264 N 
ATOM     10  C   UNL     1       7.162  47.312  53.252  1.00  0.00     0.060 A 
ATOM     11  C   UNL     1       7.396  46.121  53.963  1.00  0.00     0.048 A 
ATOM     12  N   UNL     1       5.876  47.685  53.321  1.00  0.00    -0.178 NA
ATOM     13  C   UNL     1       6.179  45.773  54.507  1.00  0.00     0.036 A 
ATOM     14  C   UNL     1       8.146  48.120  52.492  1.00  0.00     0.069 C 
ATOM     15  C   UNL     1       5.812  44.603  55.348  1.00  0.00     0.066 C 
ENDBRANCH   8   9
ENDBRANCH   1   8
BRANCH   6  16
ATOM     16  C   UNL     1       2.966  46.198  51.589  1.00  0.00     0.339 C 
BRANCH  16  17
ATOM     17  C   UNL     1       4.154  45.459  51.072  1.00  0.00     0.163 A 
ATOM     18  N   UNL     1       4.203  44.154  50.868  1.00  0.00    -0.226 NA
ATOM     19  N   UNL     1       5.350  46.064  50.774  1.00  0.00    -0.322 N 
ATOM     20  C   UNL     1       5.483  43.910  50.417  1.00  0.00     0.108 A 
ATOM     21  C   UNL     1       6.210  45.088  50.361  1.00  0.00     0.157 A 
ATOM     22  C   UNL     1       6.131  42.729  50.036  1.00  0.00     0.034 A 
ATOM     23  N   UNL     1       7.487  45.263  49.998  1.00  0.00    -0.237 NA
ATOM     24  C   UNL     1       7.466  42.844  49.640  1.00  0.00     0.022 A 
ATOM     25  C   UNL     1       8.077  44.097  49.639  1.00  0.00     0.113 A 
ATOM     26  H   UNL     1       5.593  47.048  50.836  1.00  0.00     0.170 HD
ENDBRANCH  16  17
ENDBRANCH   6  16
TORSDOF 4
ENDMDL
MODEL 8
REMARK VINA RESULT:    -8.047      1.800      4.775
REMARK INTER + INTRA:         -10.967
REMARK INTER:                 -10.287
REMARK INTRA:                  -0.680
REMARK UNBOUND:                -1.039
REMARK SMILES Cc1cc(C)n(CC2CCCC[NH+]2Cc2nc3cccnc3[nH]2)n1
REMARK SMILES IDX 8 1 9 2 10 3 11 4 12 5 13 6 7 8 6 9 2 10 3 11 24 12 4 13
REMARK SMILES IDX 1 14 5 15 14 16 15 17 16 18 23 19 17 20 22 21 18 22 21 23
REMARK SMILES IDX 19 24 20 25
REMARK H PARENT 13 7 23 26
ROOT
ATOM      1  C   UNL     1       3.236  43.679  51.760  1.00  0.00     0.206 C 
ATOM      2  C   UNL     1       1.782  43.689  51.252  1.00  0.00     0.067 C 
ATOM      3  C   UNL     1       1.142  45.055  51.443  1.00  0.00     0.012 C 
ATOM      4  C   UNL     1       1.063  45.425  52.921  1.00  0.00     0.062 C 
ATOM      5  C   UNL     1       2.060  44.678  53.801  1.00  0.00     0.262 C 
ATOM      6  N   UNL     1       3.356  44.497  53.062  1.00  0.00    -0.325 N 
ATOM      7  H   UNL     1       3.631  45.439  52.736  1.00  0.00     0.348 HD
ENDROOT
BRANCH   1   8
ATOM      8  C   UNL     1       3.861  42.266  51.725  1.00  0.00     0.209 C 
BRANCH   8   9
ATOM      9  N   UNL     1       4.195  41.723  50.422  1.00  0.00    -0.264 N 
ATOM     10  C   UNL     1       3.933  40.556  48.671  1.00  0.00     0.060 A 
ATOM     11  C   UNL     1       5.191  41.173  48.552  1.00  0.00     0.048 A 
ATOM     12  N   UNL     1       3.333  40.872  49.828  1.00  0.00    -0.178 NA
ATOM     13  C   UNL     1       5.343  41.921  49.699  1.00  0.00     0.036 A 
ATOM     14  C   UNL     1       3.272  39.653  47.698  1.00  0.00     0.069 C 
ATOM     15  C   UNL     1       6.478  42.778  50.132  1.00  0.00     0.066 C 
ENDBRANCH   8   9
ENDBRANCH   1   8
BRANCH   6  16
ATOM     16  C   UNL     1       4.510  44.160  53.985  1.00  0.00     0.339 C 
BRANCH  16  17
ATOM     17  C   UNL     1       5.666  45.065  53.721  1.00  0.00     0.163 A 
ATOM     18  N   UNL     1       6.261  45.212  52.550  1.00  0.00    -0.226 NA
ATOM     19  N   UNL     1       6.259  45.836  54.691  1.00  0.00    -0.322 N 
ATOM     20  C   UNL     1       7.277  46.116  52.775  1.00  0.00     0.108 A 
ATOM     21  C   UNL     1       7.292  46.507  54.104  1.00  0.00     0.157 A 
ATOM     22  C   UNL     1       8.245  46.665  51.926  1.00  0.00     0.034 A 
ATOM     23  N   UNL     1       8.135  47.350  54.715  1.00  0.00    -0.237 NA
ATOM     24  C   UNL     1       9.154  47.557  52.502  1.00  0.00     0.022 A 
ATOM     25  C   UNL     1       9.057  47.856  53.860  1.00  0.00     0.113 A 
ATOM     26  H   UNL     1       6.009  45.921  55.671  1.00  0.00     0.170 HD
ENDBRANCH  16  17
ENDBRANCH   6  16
TORSDOF 4
ENDMDL
MODEL 9
REMARK VINA RESULT:    -8.035      1.628      1.932
REMARK INTER + INTRA:         -10.953
REMARK INTER:                 -10.424
REMARK INTRA:                  -0.529
REMARK UNBOUND:                -1.039
REMARK SMILES Cc1cc(C)n(CC2CCCC[NH+]2Cc2nc3cccnc3[nH]2)n1
REMARK SMILES IDX 8 1 9 2 10 3 11 4 12 5 13 6 7 8 6 9 2 10 3 11 24 12 4 13
REMARK SMILES IDX 1 14 5 15 14 16 15 17 16 18 23 19 17 20 22 21 18 22 21 23
REMARK SMILES IDX 19 24 20 25
REMARK H PARENT 13 7 23 26
ROOT
ATOM      1  C   UNL     1       2.961  44.085  52.504  1.00  0.00     0.206 C 
ATOM      2  C   UNL     1       2.676  42.789  51.723  1.00  0.00     0.067 C 
ATOM      3  C   UNL     1       3.946  41.977  51.519  1.00  0.00     0.012 C 
ATOM      4  C   UNL     1       4.963  42.747  50.682  1.00  0.00     0.062 C 
ATOM      5  C   UNL     1       4.755  44.258  50.689  1.00  0.00     0.262 C 
ATOM      6  N   UNL     1       4.299  44.703  52.049  1.00  0.00    -0.325 N 
ATOM      7  H   UNL     1       4.987  44.321  52.719  1.00  0.00     0.348 HD
ENDROOT
BRANCH   1   8
ATOM      8  C   UNL     1       1.722  45.005  52.589  1.00  0.00     0.209 C 
BRANCH   8   9
ATOM      9  N   UNL     1       0.937  44.946  53.807  1.00  0.00    -0.264 N 
ATOM     10  C   UNL     1       0.501  45.245  55.861  1.00  0.00     0.060 A 
ATOM     11  C   UNL     1      -0.594  44.547  55.320  1.00  0.00     0.048 A 
ATOM     12  N   UNL     1       1.451  45.468  54.940  1.00  0.00    -0.178 NA
ATOM     13  C   UNL     1      -0.289  44.360  53.989  1.00  0.00     0.036 A 
ATOM     14  C   UNL     1       0.675  45.714  57.257  1.00  0.00     0.069 C 
ATOM     15  C   UNL     1      -1.066  43.676  52.922  1.00  0.00     0.066 C 
ENDBRANCH   8   9
ENDBRANCH   1   8
BRANCH   6  16
ATOM     16  C   UNL     1       4.479  46.193  52.265  1.00  0.00     0.339 C 
BRANCH  16  17
ATOM     17  C   UNL     1       5.881  46.490  52.680  1.00  0.00     0.163 A 
ATOM     18  N   UNL     1       6.951  46.285  51.933  1.00  0.00    -0.226 NA
ATOM     19  N   UNL     1       6.213  46.994  53.914  1.00  0.00    -0.322 N 
ATOM     20  C   UNL     1       8.016  46.676  52.717  1.00  0.00     0.108 A 
ATOM     21  C   UNL     1       7.572  47.111  53.955  1.00  0.00     0.157 A 
ATOM     22  C   UNL     1       9.395  46.694  52.480  1.00  0.00     0.034 A 
ATOM     23  N   UNL     1       8.296  47.548  54.994  1.00  0.00    -0.237 NA
ATOM     24  C   UNL     1      10.207  47.144  53.524  1.00  0.00     0.022 A 
ATOM     25  C   UNL     1       9.624  47.547  54.724  1.00  0.00     0.113 A 
ATOM     26  H   UNL     1       5.596  47.245  54.680  1.00  0.00     0.170 HD
ENDBRANCH  16  17
ENDBRANCH   6  16
TORSDOF 4
ENDMDL
MODEL 10
REMARK VINA RESULT:    -7.751      1.373      3.960
REMARK INTER + INTRA:         -10.602
REMARK INTER:                  -9.912
REMARK INTRA:                  -0.690
REMARK UNBOUND:                -1.039
REMARK SMILES Cc1cc(C)n(CC2CCCC[NH+]2Cc2nc3cccnc3[nH]2)n1
REMARK SMILES IDX 8 1 9 2 10 3 11 4 12 5 13 6 7 8 6 9 2 10 3 11 24 12 4 13
REMARK SMILES IDX 1 14 5 15 14 16 15 17 16 18 23 19 17 20 22 21 18 22 21 23
REMARK SMILES IDX 19 24 20 25
REMARK H PARENT 13 7 23 26
ROOT
ATOM      1  C   UNL     1       2.254  45.902  53.279  1.00  0.00     0.206 C 
ATOM      2  C   UNL     1       1.988  44.802  54.323  1.00  0.00     0.067 C 
ATOM      3  C   UNL     1       2.392  45.255  55.717  1.00  0.00     0.012 C 
ATOM      4  C   UNL     1       3.890  45.540  55.791  1.00  0.00     0.062 C 
ATOM      5  C   UNL     1       4.533  45.832  54.440  1.00  0.00     0.262 C 
ATOM      6  N   UNL     1       3.584  46.622  53.584  1.00  0.00    -0.325 N 
ATOM      7  H   UNL     1       3.298  47.436  54.155  1.00  0.00     0.348 HD
ENDROOT
BRANCH   1   8
ATOM      8  C   UNL     1       2.002  45.415  51.834  1.00  0.00     0.209 C 
BRANCH   8   9
ATOM      9  N   UNL     1       2.659  44.188  51.426  1.00  0.00    -0.264 N 
ATOM     10  C   UNL     1       4.267  42.950  50.810  1.00  0.00     0.060 A 
ATOM     11  C   UNL     1       3.119  42.138  50.811  1.00  0.00     0.048 A 
ATOM     12  N   UNL     1       3.982  44.212  51.162  1.00  0.00    -0.178 NA
ATOM     13  C   UNL     1       2.087  42.961  51.210  1.00  0.00     0.036 A 
ATOM     14  C   UNL     1       5.655  42.553  50.474  1.00  0.00     0.069 C 
ATOM     15  C   UNL     1       0.642  42.659  51.384  1.00  0.00     0.066 C 
ENDBRANCH   8   9
ENDBRANCH   1   8
BRANCH   6  16
ATOM     16  C   UNL     1       4.278  47.309  52.425  1.00  0.00     0.339 C 
BRANCH  16  17
ATOM     17  C   UNL     1       5.754  47.119  52.519  1.00  0.00     0.163 A 
ATOM     18  N   UNL     1       6.534  47.678  53.428  1.00  0.00    -0.226 NA
ATOM     19  N   UNL     1       6.475  46.348  51.639  1.00  0.00    -0.322 N 
ATOM     20  C   UNL     1       7.808  47.248  53.122  1.00  0.00     0.108 A 
ATOM     21  C   UNL     1       7.786  46.427  52.007  1.00  0.00     0.157 A 
ATOM     22  C   UNL     1       9.048  47.500  53.719  1.00  0.00     0.034 A 
ATOM     23  N   UNL     1       8.816  45.833  51.391  1.00  0.00    -0.237 NA
ATOM     24  C   UNL     1      10.164  46.905  53.126  1.00  0.00     0.022 A 
ATOM     25  C   UNL     1       9.997  46.104  51.997  1.00  0.00     0.113 A 
ATOM     26  H   UNL     1       6.136  45.808  50.850  1.00  0.00     0.170 HD
ENDBRANCH  16  17
ENDBRANCH   6  16
TORSDOF 4
ENDMDL
