MODEL 1
REMARK VINA RESULT:    -9.727      0.000      0.000
REMARK INTER + INTRA:         -12.259
REMARK INTER:                 -12.570
REMARK INTRA:                   0.310
REMARK UNBOUND:                 0.310
REMARK SMILES Cc1ccccc1-c1noc(C[NH+]2CCCC(Cn3cncn3)C2)n1
REMARK SMILES IDX 12 1 11 2 8 3 9 4 25 5 10 6 7 7 2 8 3 9 4 10 6 11 5 12 1 13
REMARK SMILES IDX 13 14 14 15 24 16 15 17 17 18 16 19 18 21 19 22 20 23 23 24
REMARK SMILES IDX 21 25 22 26
REMARK H PARENT 13 20
ROOT
ATOM      1  C   UNL     1       2.647  47.008  52.527  1.00  0.00     0.364 C 
ENDROOT
BRANCH   1   2
ATOM      2  C   UNL     1       4.053  47.039  53.000  1.00  0.00     0.282 A 
ATOM      3  C   UNL     1       6.136  46.967  53.277  1.00  0.00     0.202 A 
ATOM      4  N   UNL     1       5.643  47.218  54.501  1.00  0.00    -0.057 NA
ATOM      5  N   UNL     1       5.152  46.860  52.303  1.00  0.00    -0.186 NA
ATOM      6  O   UNL     1       4.267  47.259  54.320  1.00  0.00    -0.333 OA
BRANCH   3   7
ATOM      7  C   UNL     1       7.557  46.841  52.954  1.00  0.00     0.026 A 
ATOM      8  C   UNL     1       8.038  46.232  51.773  1.00  0.00    -0.040 A 
ATOM      9  C   UNL     1       9.429  46.145  51.567  1.00  0.00     0.004 A 
ATOM     10  C   UNL     1      10.330  46.664  52.494  1.00  0.00     0.000 A 
ATOM     11  C   UNL     1       8.487  47.368  53.874  1.00  0.00     0.012 A 
ATOM     12  C   UNL     1       9.861  47.279  53.647  1.00  0.00     0.001 A 
ATOM     13  C   UNL     1       7.134  45.654  50.717  1.00  0.00     0.045 C 
ENDBRANCH   3   7
ENDBRANCH   1   2
BRANCH   1  14
ATOM     14  N   UNL     1       2.252  45.643  51.938  1.00  0.00    -0.327 N 
ATOM     15  C   UNL     1       0.852  45.217  52.309  1.00  0.00     0.262 C 
ATOM     16  C   UNL     1       3.335  44.598  52.194  1.00  0.00     0.268 C 
ATOM     17  C   UNL     1       0.885  44.175  53.413  1.00  0.00     0.062 C 
ATOM     18  C   UNL     1       2.757  43.198  51.970  1.00  0.00     0.066 C 
ATOM     19  C   UNL     1       1.642  42.912  52.993  1.00  0.00     0.017 C 
ATOM     20  H   UNL     1       2.260  45.810  50.919  1.00  0.00     0.348 HD
BRANCH  18  21
ATOM     21  C   UNL     1       3.831  42.092  51.943  1.00  0.00     0.155 C 
BRANCH  21  22
ATOM     22  N   UNL     1       4.217  41.638  50.628  1.00  0.00    -0.252 N 
ATOM     23  C   UNL     1       5.437  41.709  50.038  1.00  0.00     0.219 A 
ATOM     24  N   UNL     1       3.315  41.051  49.819  1.00  0.00    -0.160 NA
ATOM     25  N   UNL     1       5.367  41.182  48.838  1.00  0.00    -0.224 NA
ATOM     26  C   UNL     1       4.070  40.771  48.750  1.00  0.00     0.246 A 
ENDBRANCH  21  22
ENDBRANCH  18  21
ENDBRANCH   1  14
TORSDOF 5
ENDMDL
MODEL 2
REMARK VINA RESULT:    -9.396      3.001      5.051
REMARK INTER + INTRA:         -11.833
REMARK INTER:                 -11.549
REMARK INTRA:                  -0.283
REMARK UNBOUND:                 0.310
REMARK SMILES Cc1ccccc1-c1noc(C[NH+]2CCCC(Cn3cncn3)C2)n1
REMARK SMILES IDX 12 1 11 2 8 3 9 4 25 5 10 6 7 7 2 8 3 9 4 10 6 11 5 12 1 13
REMARK SMILES IDX 13 14 14 15 24 16 15 17 17 18 16 19 18 21 19 22 20 23 23 24
REMARK SMILES IDX 21 25 22 26
REMARK H PARENT 13 20
ROOT
ATOM      1  C   UNL     1       3.441  45.553  55.748  1.00  0.00     0.364 C 
ENDROOT
BRANCH   1   2
ATOM      2  C   UNL     1       4.502  46.216  54.949  1.00  0.00     0.282 A 
ATOM      3  C   UNL     1       6.234  46.818  53.921  1.00  0.00     0.202 A 
ATOM      4  N   UNL     1       5.395  47.860  53.804  1.00  0.00    -0.057 NA
ATOM      5  N   UNL     1       5.690  45.756  54.631  1.00  0.00    -0.186 NA
ATOM      6  O   UNL     1       4.253  47.466  54.489  1.00  0.00    -0.333 OA
BRANCH   3   7
ATOM      7  C   UNL     1       7.578  46.753  53.347  1.00  0.00     0.026 A 
ATOM      8  C   UNL     1       7.853  46.247  52.057  1.00  0.00    -0.040 A 
ATOM      9  C   UNL     1       9.187  46.210  51.607  1.00  0.00     0.004 A 
ATOM     10  C   UNL     1      10.230  46.682  52.401  1.00  0.00     0.000 A 
ATOM     11  C   UNL     1       8.647  47.234  54.131  1.00  0.00     0.012 A 
ATOM     12  C   UNL     1       9.962  47.198  53.662  1.00  0.00     0.001 A 
ATOM     13  C   UNL     1       6.785  45.725  51.132  1.00  0.00     0.045 C 
ENDBRANCH   3   7
ENDBRANCH   1   2
BRANCH   1  14
ATOM     14  N   UNL     1       2.476  44.729  54.879  1.00  0.00    -0.327 N 
ATOM     15  C   UNL     1       2.922  44.610  53.442  1.00  0.00     0.262 C 
ATOM     16  C   UNL     1       1.032  45.186  55.072  1.00  0.00     0.268 C 
ATOM     17  C   UNL     1       2.128  45.552  52.555  1.00  0.00     0.062 C 
ATOM     18  C   UNL     1       0.169  44.647  53.928  1.00  0.00     0.066 C 
ATOM     19  C   UNL     1       0.628  45.247  52.586  1.00  0.00     0.017 C 
ATOM     20  H   UNL     1       2.528  43.784  55.293  1.00  0.00     0.348 HD
BRANCH  18  21
ATOM     21  C   UNL     1      -1.344  44.828  54.169  1.00  0.00     0.155 C 
BRANCH  21  22
ATOM     22  N   UNL     1      -1.798  44.519  55.504  1.00  0.00    -0.252 N 
ATOM     23  C   UNL     1      -1.996  45.370  56.543  1.00  0.00     0.219 A 
ATOM     24  N   UNL     1      -2.091  43.251  55.847  1.00  0.00    -0.160 NA
ATOM     25  N   UNL     1      -2.414  44.689  57.584  1.00  0.00    -0.224 NA
ATOM     26  C   UNL     1      -2.484  43.409  57.116  1.00  0.00     0.246 A 
ENDBRANCH  21  22
ENDBRANCH  18  21
ENDBRANCH   1  14
TORSDOF 5
ENDMDL
MODEL 3
REMARK VINA RESULT:    -9.272      2.906      4.139
REMARK INTER + INTRA:         -11.671
REMARK INTER:                 -11.216
REMARK INTRA:                  -0.455
REMARK UNBOUND:                 0.310
REMARK SMILES Cc1ccccc1-c1noc(C[NH+]2CCCC(Cn3cncn3)C2)n1
REMARK SMILES IDX 12 1 11 2 8 3 9 4 25 5 10 6 7 7 2 8 3 9 4 10 6 11 5 12 1 13
REMARK SMILES IDX 13 14 14 15 24 16 15 17 17 18 16 19 18 21 19 22 20 23 23 24
REMARK SMILES IDX 21 25 22 26
REMARK H PARENT 13 20
ROOT
ATOM      1  C   UNL     1       3.330  45.443  55.481  1.00  0.00     0.364 C 
ENDROOT
BRANCH   1   2
ATOM      2  C   UNL     1       4.432  46.156  54.788  1.00  0.00     0.282 A 
ATOM      3  C   UNL     1       6.210  46.813  53.879  1.00  0.00     0.202 A 
ATOM      4  N   UNL     1       5.403  47.887  53.853  1.00  0.00    -0.057 NA
ATOM      5  N   UNL     1       5.617  45.698  54.454  1.00  0.00    -0.186 NA
ATOM      6  O   UNL     1       4.231  47.455  54.460  1.00  0.00    -0.333 OA
BRANCH   3   7
ATOM      7  C   UNL     1       7.569  46.771  53.338  1.00  0.00     0.026 A 
ATOM      8  C   UNL     1       7.878  46.313  52.038  1.00  0.00    -0.040 A 
ATOM      9  C   UNL     1       9.223  46.295  51.621  1.00  0.00     0.004 A 
ATOM     10  C   UNL     1      10.245  46.737  52.460  1.00  0.00     0.000 A 
ATOM     11  C   UNL     1       8.617  47.223  54.167  1.00  0.00     0.012 A 
ATOM     12  C   UNL     1       9.943  47.205  53.732  1.00  0.00     0.001 A 
ATOM     13  C   UNL     1       6.836  45.826  51.067  1.00  0.00     0.045 C 
ENDBRANCH   3   7
ENDBRANCH   1   2
BRANCH   1  14
ATOM     14  N   UNL     1       2.486  44.588  54.522  1.00  0.00    -0.327 N 
ATOM     15  C   UNL     1       2.773  44.866  53.066  1.00  0.00     0.262 C 
ATOM     16  C   UNL     1       1.009  44.622  54.907  1.00  0.00     0.268 C 
ATOM     17  C   UNL     1       1.683  45.732  52.461  1.00  0.00     0.062 C 
ATOM     18  C   UNL     1       0.163  44.117  53.736  1.00  0.00     0.066 C 
ATOM     19  C   UNL     1       0.308  45.061  52.528  1.00  0.00     0.017 C 
ATOM     20  H   UNL     1       2.803  43.625  54.716  1.00  0.00     0.348 HD
BRANCH  18  21
ATOM     21  C   UNL     1      -1.311  43.862  54.112  1.00  0.00     0.155 C 
BRANCH  21  22
ATOM     22  N   UNL     1      -2.154  43.405  53.033  1.00  0.00    -0.252 N 
ATOM     23  C   UNL     1      -3.284  43.978  52.546  1.00  0.00     0.219 A 
ATOM     24  N   UNL     1      -1.851  42.276  52.364  1.00  0.00    -0.160 NA
ATOM     25  N   UNL     1      -3.749  43.247  51.561  1.00  0.00    -0.224 NA
ATOM     26  C   UNL     1      -2.839  42.236  51.463  1.00  0.00     0.246 A 
ENDBRANCH  21  22
ENDBRANCH  18  21
ENDBRANCH   1  14
TORSDOF 5
ENDMDL
MODEL 4
REMARK VINA RESULT:    -9.212      2.717      5.103
REMARK INTER + INTRA:         -11.594
REMARK INTER:                 -11.453
REMARK INTRA:                  -0.141
REMARK UNBOUND:                 0.310
REMARK SMILES Cc1ccccc1-c1noc(C[NH+]2CCCC(Cn3cncn3)C2)n1
REMARK SMILES IDX 12 1 11 2 8 3 9 4 25 5 10 6 7 7 2 8 3 9 4 10 6 11 5 12 1 13
REMARK SMILES IDX 13 14 14 15 24 16 15 17 17 18 16 19 18 21 19 22 20 23 23 24
REMARK SMILES IDX 21 25 22 26
REMARK H PARENT 13 20
ROOT
ATOM      1  C   UNL     1       2.803  45.310  52.047  1.00  0.00     0.364 C 
ENDROOT
BRANCH   1   2
ATOM      2  C   UNL     1       4.043  46.021  52.446  1.00  0.00     0.282 A 
ATOM      3  C   UNL     1       5.993  46.687  52.865  1.00  0.00     0.202 A 
ATOM      4  N   UNL     1       5.196  47.632  53.391  1.00  0.00    -0.057 NA
ATOM      5  N   UNL     1       5.290  45.660  52.249  1.00  0.00    -0.186 NA
ATOM      6  O   UNL     1       3.908  47.190  53.120  1.00  0.00    -0.333 OA
BRANCH   3   7
ATOM      7  C   UNL     1       7.455  46.713  52.889  1.00  0.00     0.026 A 
ATOM      8  C   UNL     1       8.262  46.288  51.810  1.00  0.00    -0.040 A 
ATOM      9  C   UNL     1       9.663  46.336  51.943  1.00  0.00     0.004 A 
ATOM     10  C   UNL     1      10.262  46.812  53.108  1.00  0.00     0.000 A 
ATOM     11  C   UNL     1       8.082  47.199  54.056  1.00  0.00     0.012 A 
ATOM     12  C   UNL     1       9.473  47.247  54.164  1.00  0.00     0.001 A 
ATOM     13  C   UNL     1       7.697  45.769  50.514  1.00  0.00     0.045 C 
ENDBRANCH   3   7
ENDBRANCH   1   2
BRANCH   1  14
ATOM     14  N   UNL     1       2.179  44.516  53.206  1.00  0.00    -0.327 N 
ATOM     15  C   UNL     1       2.003  43.049  52.897  1.00  0.00     0.262 C 
ATOM     16  C   UNL     1       0.935  45.216  53.748  1.00  0.00     0.268 C 
ATOM     17  C   UNL     1       0.554  42.742  52.562  1.00  0.00     0.062 C 
ATOM     18  C   UNL     1       0.123  44.233  54.595  1.00  0.00     0.066 C 
ATOM     19  C   UNL     1      -0.389  43.073  53.722  1.00  0.00     0.017 C 
ATOM     20  H   UNL     1       2.887  44.587  53.955  1.00  0.00     0.348 HD
BRANCH  18  21
ATOM     21  C   UNL     1      -1.005  44.909  55.400  1.00  0.00     0.155 C 
BRANCH  21  22
ATOM     22  N   UNL     1      -0.572  45.698  56.529  1.00  0.00    -0.252 N 
ATOM     23  C   UNL     1       0.580  45.589  57.239  1.00  0.00     0.219 A 
ATOM     24  N   UNL     1      -1.345  46.694  57.000  1.00  0.00    -0.160 NA
ATOM     25  N   UNL     1       0.590  46.497  58.186  1.00  0.00    -0.224 NA
ATOM     26  C   UNL     1      -0.584  47.165  57.994  1.00  0.00     0.246 A 
ENDBRANCH  21  22
ENDBRANCH  18  21
ENDBRANCH   1  14
TORSDOF 5
ENDMDL
MODEL 5
REMARK VINA RESULT:    -9.143      1.341      1.490
REMARK INTER + INTRA:         -11.505
REMARK INTER:                 -11.521
REMARK INTRA:                   0.015
REMARK UNBOUND:                 0.310
REMARK SMILES Cc1ccccc1-c1noc(C[NH+]2CCCC(Cn3cncn3)C2)n1
REMARK SMILES IDX 12 1 11 2 8 3 9 4 25 5 10 6 7 7 2 8 3 9 4 10 6 11 5 12 1 13
REMARK SMILES IDX 13 14 14 15 24 16 15 17 17 18 16 19 18 21 19 22 20 23 23 24
REMARK SMILES IDX 21 25 22 26
REMARK H PARENT 13 20
ROOT
ATOM      1  C   UNL     1       3.075  45.337  54.928  1.00  0.00     0.364 C 
ENDROOT
BRANCH   1   2
ATOM      2  C   UNL     1       4.267  46.096  54.473  1.00  0.00     0.282 A 
ATOM      3  C   UNL     1       6.150  46.800  53.857  1.00  0.00     0.202 A 
ATOM      4  N   UNL     1       5.392  47.905  53.948  1.00  0.00    -0.057 NA
ATOM      5  N   UNL     1       5.460  45.637  54.172  1.00  0.00    -0.186 NA
ATOM      6  O   UNL     1       4.150  47.442  54.362  1.00  0.00    -0.333 OA
BRANCH   3   7
ATOM      7  C   UNL     1       7.552  46.775  53.442  1.00  0.00     0.026 A 
ATOM      8  C   UNL     1       7.977  46.403  52.147  1.00  0.00    -0.040 A 
ATOM      9  C   UNL     1       9.355  46.394  51.856  1.00  0.00     0.004 A 
ATOM     10  C   UNL     1      10.298  46.763  52.813  1.00  0.00     0.000 A 
ATOM     11  C   UNL     1       8.523  47.154  54.393  1.00  0.00     0.012 A 
ATOM     12  C   UNL     1       9.883  47.147  54.082  1.00  0.00     0.001 A 
ATOM     13  C   UNL     1       7.025  45.998  51.053  1.00  0.00     0.045 C 
ENDBRANCH   3   7
ENDBRANCH   1   2
BRANCH   1  14
ATOM     14  N   UNL     1       2.125  44.983  53.772  1.00  0.00    -0.327 N 
ATOM     15  C   UNL     1       0.692  44.805  54.211  1.00  0.00     0.262 C 
ATOM     16  C   UNL     1       2.687  43.843  52.925  1.00  0.00     0.268 C 
ATOM     17  C   UNL     1       0.337  43.332  54.298  1.00  0.00     0.062 C 
ATOM     18  C   UNL     1       1.572  43.252  52.059  1.00  0.00     0.066 C 
ATOM     19  C   UNL     1       0.484  42.622  52.949  1.00  0.00     0.017 C 
ATOM     20  H   UNL     1       2.157  45.820  53.169  1.00  0.00     0.348 HD
BRANCH  18  21
ATOM     21  C   UNL     1       2.089  42.278  50.981  1.00  0.00     0.155 C 
BRANCH  21  22
ATOM     22  N   UNL     1       3.520  42.267  50.793  1.00  0.00    -0.252 N 
ATOM     23  C   UNL     1       4.372  43.323  50.750  1.00  0.00     0.219 A 
ATOM     24  N   UNL     1       4.178  41.102  50.640  1.00  0.00    -0.160 NA
ATOM     25  N   UNL     1       5.594  42.884  50.564  1.00  0.00    -0.224 NA
ATOM     26  C   UNL     1       5.440  41.529  50.527  1.00  0.00     0.246 A 
ENDBRANCH  21  22
ENDBRANCH  18  21
ENDBRANCH   1  14
TORSDOF 5
ENDMDL
MODEL 6
REMARK VINA RESULT:    -9.068      2.687      5.069
REMARK INTER + INTRA:         -11.408
REMARK INTER:                 -10.884
REMARK INTRA:                  -0.525
REMARK UNBOUND:                 0.310
REMARK SMILES Cc1ccccc1-c1noc(C[NH+]2CCCC(Cn3cncn3)C2)n1
REMARK SMILES IDX 12 1 11 2 8 3 9 4 25 5 10 6 7 7 2 8 3 9 4 10 6 11 5 12 1 13
REMARK SMILES IDX 13 14 14 15 24 16 15 17 17 18 16 19 18 21 19 22 20 23 23 24
REMARK SMILES IDX 21 25 22 26
REMARK H PARENT 13 20
ROOT
ATOM      1  C   UNL     1       3.780  42.944  51.309  1.00  0.00     0.364 C 
ENDROOT
BRANCH   1   2
ATOM      2  C   UNL     1       4.672  44.126  51.413  1.00  0.00     0.282 A 
ATOM      3  C   UNL     1       6.157  45.556  51.823  1.00  0.00     0.202 A 
ATOM      4  N   UNL     1       5.260  46.211  51.067  1.00  0.00    -0.057 NA
ATOM      5  N   UNL     1       5.817  44.229  52.048  1.00  0.00    -0.186 NA
ATOM      6  O   UNL     1       4.275  45.269  50.801  1.00  0.00    -0.333 OA
BRANCH   3   7
ATOM      7  C   UNL     1       7.394  46.134  52.348  1.00  0.00     0.026 A 
ATOM      8  C   UNL     1       7.508  46.690  53.642  1.00  0.00    -0.040 A 
ATOM      9  C   UNL     1       8.740  47.241  54.044  1.00  0.00     0.004 A 
ATOM     10  C   UNL     1       9.847  47.227  53.198  1.00  0.00     0.000 A 
ATOM     11  C   UNL     1       8.529  46.123  51.511  1.00  0.00     0.012 A 
ATOM     12  C   UNL     1       9.744  46.665  51.932  1.00  0.00     0.001 A 
ATOM     13  C   UNL     1       6.365  46.738  54.621  1.00  0.00     0.045 C 
ENDBRANCH   3   7
ENDBRANCH   1   2
BRANCH   1  14
ATOM     14  N   UNL     1       2.513  43.084  52.169  1.00  0.00    -0.327 N 
ATOM     15  C   UNL     1       1.287  43.452  51.368  1.00  0.00     0.262 C 
ATOM     16  C   UNL     1       2.771  43.957  53.394  1.00  0.00     0.268 C 
ATOM     17  C   UNL     1       0.962  44.925  51.535  1.00  0.00     0.062 C 
ATOM     18  C   UNL     1       1.435  44.404  53.993  1.00  0.00     0.066 C 
ATOM     19  C   UNL     1       0.673  45.292  52.993  1.00  0.00     0.017 C 
ATOM     20  H   UNL     1       2.363  42.129  52.533  1.00  0.00     0.348 HD
BRANCH  18  21
ATOM     21  C   UNL     1       1.579  45.066  55.379  1.00  0.00     0.155 C 
BRANCH  21  22
ATOM     22  N   UNL     1       0.353  45.199  56.130  1.00  0.00    -0.252 N 
ATOM     23  C   UNL     1       0.060  46.089  57.112  1.00  0.00     0.219 A 
ATOM     24  N   UNL     1      -0.686  44.379  55.887  1.00  0.00    -0.160 NA
ATOM     25  N   UNL     1      -1.163  45.876  57.537  1.00  0.00    -0.224 NA
ATOM     26  C   UNL     1      -1.593  44.846  56.752  1.00  0.00     0.246 A 
ENDBRANCH  21  22
ENDBRANCH  18  21
ENDBRANCH   1  14
TORSDOF 5
ENDMDL
MODEL 7
REMARK VINA RESULT:    -9.053      2.988      5.215
REMARK INTER + INTRA:         -11.389
REMARK INTER:                 -10.975
REMARK INTRA:                  -0.414
REMARK UNBOUND:                 0.310
REMARK SMILES Cc1ccccc1-c1noc(C[NH+]2CCCC(Cn3cncn3)C2)n1
REMARK SMILES IDX 12 1 11 2 8 3 9 4 25 5 10 6 7 7 2 8 3 9 4 10 6 11 5 12 1 13
REMARK SMILES IDX 13 14 14 15 24 16 15 17 17 18 16 19 18 21 19 22 20 23 23 24
REMARK SMILES IDX 21 25 22 26
REMARK H PARENT 13 20
ROOT
ATOM      1  C   UNL     1       3.619  45.795  55.326  1.00  0.00     0.364 C 
ENDROOT
BRANCH   1   2
ATOM      2  C   UNL     1       4.743  46.361  54.539  1.00  0.00     0.282 A 
ATOM      3  C   UNL     1       6.517  46.793  53.498  1.00  0.00     0.202 A 
ATOM      4  N   UNL     1       5.826  47.945  53.474  1.00  0.00    -0.057 NA
ATOM      5  N   UNL     1       5.850  45.769  54.155  1.00  0.00    -0.186 NA
ATOM      6  O   UNL     1       4.656  47.662  54.167  1.00  0.00    -0.333 OA
BRANCH   3   7
ATOM      7  C   UNL     1       7.827  46.588  52.880  1.00  0.00     0.026 A 
ATOM      8  C   UNL     1       9.041  47.017  53.462  1.00  0.00    -0.040 A 
ATOM      9  C   UNL     1      10.248  46.787  52.774  1.00  0.00     0.004 A 
ATOM     10  C   UNL     1      10.265  46.129  51.546  1.00  0.00     0.000 A 
ATOM     11  C   UNL     1       7.868  45.916  51.640  1.00  0.00     0.012 A 
ATOM     12  C   UNL     1       9.076  45.690  50.979  1.00  0.00     0.001 A 
ATOM     13  C   UNL     1       9.113  47.727  54.788  1.00  0.00     0.045 C 
ENDBRANCH   3   7
ENDBRANCH   1   2
BRANCH   1  14
ATOM     14  N   UNL     1       2.754  44.824  54.505  1.00  0.00    -0.327 N 
ATOM     15  C   UNL     1       2.795  45.099  53.021  1.00  0.00     0.262 C 
ATOM     16  C   UNL     1       1.353  44.696  55.099  1.00  0.00     0.268 C 
ATOM     17  C   UNL     1       1.535  45.818  52.574  1.00  0.00     0.062 C 
ATOM     18  C   UNL     1       0.415  44.068  54.066  1.00  0.00     0.066 C 
ATOM     19  C   UNL     1       0.273  44.993  52.844  1.00  0.00     0.017 C 
ATOM     20  H   UNL     1       3.207  43.910  54.658  1.00  0.00     0.348 HD
BRANCH  18  21
ATOM     21  C   UNL     1      -0.949  43.652  54.653  1.00  0.00     0.155 C 
BRANCH  21  22
ATOM     22  N   UNL     1      -1.478  44.532  55.668  1.00  0.00    -0.252 N 
ATOM     23  C   UNL     1      -1.411  44.398  57.017  1.00  0.00     0.219 A 
ATOM     24  N   UNL     1      -2.132  45.657  55.321  1.00  0.00    -0.160 NA
ATOM     25  N   UNL     1      -2.016  45.416  57.583  1.00  0.00    -0.224 NA
ATOM     26  C   UNL     1      -2.419  46.172  56.522  1.00  0.00     0.246 A 
ENDBRANCH  21  22
ENDBRANCH  18  21
ENDBRANCH   1  14
TORSDOF 5
ENDMDL
MODEL 8
REMARK VINA RESULT:    -8.972      2.557      4.723
REMARK INTER + INTRA:         -11.284
REMARK INTER:                 -11.029
REMARK INTRA:                  -0.254
REMARK UNBOUND:                 0.310
REMARK SMILES Cc1ccccc1-c1noc(C[NH+]2CCCC(Cn3cncn3)C2)n1
REMARK SMILES IDX 12 1 11 2 8 3 9 4 25 5 10 6 7 7 2 8 3 9 4 10 6 11 5 12 1 13
REMARK SMILES IDX 13 14 14 15 24 16 15 17 17 18 16 19 18 21 19 22 20 23 23 24
REMARK SMILES IDX 21 25 22 26
REMARK H PARENT 13 20
ROOT
ATOM      1  C   UNL     1       4.403  43.338  51.156  1.00  0.00     0.364 C 
ENDROOT
BRANCH   1   2
ATOM      2  C   UNL     1       5.549  44.272  51.286  1.00  0.00     0.282 A 
ATOM      3  C   UNL     1       7.098  45.562  51.881  1.00  0.00     0.202 A 
ATOM      4  N   UNL     1       7.099  45.634  50.539  1.00  0.00    -0.057 NA
ATOM      5  N   UNL     1       6.135  44.697  52.381  1.00  0.00    -0.186 NA
ATOM      6  O   UNL     1       6.071  44.787  50.145  1.00  0.00    -0.333 OA
BRANCH   3   7
ATOM      7  C   UNL     1       8.020  46.280  52.760  1.00  0.00     0.026 A 
ATOM      8  C   UNL     1       9.418  46.322  52.559  1.00  0.00    -0.040 A 
ATOM      9  C   UNL     1      10.221  47.026  53.477  1.00  0.00     0.004 A 
ATOM     10  C   UNL     1       9.658  47.696  54.563  1.00  0.00     0.000 A 
ATOM     11  C   UNL     1       7.471  46.972  53.860  1.00  0.00     0.012 A 
ATOM     12  C   UNL     1       8.283  47.672  54.754  1.00  0.00     0.001 A 
ATOM     13  C   UNL     1      10.106  45.634  51.409  1.00  0.00     0.045 C 
ENDBRANCH   3   7
ENDBRANCH   1   2
BRANCH   1  14
ATOM     14  N   UNL     1       3.069  43.977  51.577  1.00  0.00    -0.327 N 
ATOM     15  C   UNL     1       2.779  45.274  50.861  1.00  0.00     0.262 C 
ATOM     16  C   UNL     1       2.940  44.034  53.097  1.00  0.00     0.268 C 
ATOM     17  C   UNL     1       3.063  46.460  51.766  1.00  0.00     0.062 C 
ATOM     18  C   UNL     1       1.829  45.015  53.479  1.00  0.00     0.066 C 
ATOM     19  C   UNL     1       2.200  46.441  53.031  1.00  0.00     0.017 C 
ATOM     20  H   UNL     1       2.365  43.291  51.262  1.00  0.00     0.348 HD
BRANCH  18  21
ATOM     21  C   UNL     1       1.441  44.947  54.970  1.00  0.00     0.155 C 
BRANCH  21  22
ATOM     22  N   UNL     1       0.107  44.464  55.239  1.00  0.00    -0.252 N 
ATOM     23  C   UNL     1      -0.667  43.657  54.470  1.00  0.00     0.219 A 
ATOM     24  N   UNL     1      -0.522  44.805  56.380  1.00  0.00    -0.160 NA
ATOM     25  N   UNL     1      -1.813  43.454  55.077  1.00  0.00    -0.224 NA
ATOM     26  C   UNL     1      -1.678  44.146  56.244  1.00  0.00     0.246 A 
ENDBRANCH  21  22
ENDBRANCH  18  21
ENDBRANCH   1  14
TORSDOF 5
ENDMDL
MODEL 9
REMARK VINA RESULT:    -8.956      1.715      6.237
REMARK INTER + INTRA:         -11.263
REMARK INTER:                 -10.753
REMARK INTRA:                  -0.510
REMARK UNBOUND:                 0.310
REMARK SMILES Cc1ccccc1-c1noc(C[NH+]2CCCC(Cn3cncn3)C2)n1
REMARK SMILES IDX 12 1 11 2 8 3 9 4 25 5 10 6 7 7 2 8 3 9 4 10 6 11 5 12 1 13
REMARK SMILES IDX 13 14 14 15 24 16 15 17 17 18 16 19 18 21 19 22 20 23 23 24
REMARK SMILES IDX 21 25 22 26
REMARK H PARENT 13 20
ROOT
ATOM      1  C   UNL     1       5.598  47.233  54.602  1.00  0.00     0.364 C 
ENDROOT
BRANCH   1   2
ATOM      2  C   UNL     1       4.268  46.745  54.160  1.00  0.00     0.282 A 
ATOM      3  C   UNL     1       2.485  45.710  53.750  1.00  0.00     0.202 A 
ATOM      4  N   UNL     1       2.395  46.834  53.021  1.00  0.00    -0.057 NA
ATOM      5  N   UNL     1       3.655  45.632  54.492  1.00  0.00    -0.186 NA
ATOM      6  O   UNL     1       3.575  47.516  53.286  1.00  0.00    -0.333 OA
BRANCH   3   7
ATOM      7  C   UNL     1       1.464  44.664  53.809  1.00  0.00     0.026 A 
ATOM      8  C   UNL     1       1.605  43.399  53.195  1.00  0.00    -0.040 A 
ATOM      9  C   UNL     1       0.552  42.469  53.295  1.00  0.00     0.004 A 
ATOM     10  C   UNL     1      -0.610  42.768  54.004  1.00  0.00     0.000 A 
ATOM     11  C   UNL     1       0.283  44.942  54.528  1.00  0.00     0.012 A 
ATOM     12  C   UNL     1      -0.745  44.003  54.624  1.00  0.00     0.001 A 
ATOM     13  C   UNL     1       2.830  42.992  52.419  1.00  0.00     0.045 C 
ENDBRANCH   3   7
ENDBRANCH   1   2
BRANCH   1  14
ATOM     14  N   UNL     1       6.756  46.495  53.912  1.00  0.00    -0.327 N 
ATOM     15  C   UNL     1       8.115  47.027  54.296  1.00  0.00     0.262 C 
ATOM     16  C   UNL     1       6.513  46.369  52.409  1.00  0.00     0.268 C 
ATOM     17  C   UNL     1       8.677  47.909  53.195  1.00  0.00     0.062 C 
ATOM     18  C   UNL     1       7.825  46.010  51.708  1.00  0.00     0.066 C 
ATOM     19  C   UNL     1       8.849  47.148  51.877  1.00  0.00     0.017 C 
ATOM     20  H   UNL     1       6.688  45.535  54.287  1.00  0.00     0.348 HD
BRANCH  18  21
ATOM     21  C   UNL     1       7.636  45.602  50.233  1.00  0.00     0.155 C 
BRANCH  21  22
ATOM     22  N   UNL     1       7.060  44.296  50.022  1.00  0.00    -0.252 N 
ATOM     23  C   UNL     1       5.849  43.835  50.429  1.00  0.00     0.219 A 
ATOM     24  N   UNL     1       7.738  43.354  49.340  1.00  0.00    -0.160 NA
ATOM     25  N   UNL     1       5.706  42.592  50.034  1.00  0.00    -0.224 NA
ATOM     26  C   UNL     1       6.863  42.342  49.354  1.00  0.00     0.246 A 
ENDBRANCH  21  22
ENDBRANCH  18  21
ENDBRANCH   1  14
TORSDOF 5
ENDMDL
MODEL 10
REMARK VINA RESULT:    -8.742      2.620      7.841
REMARK INTER + INTRA:         -10.987
REMARK INTER:                 -10.572
REMARK INTRA:                  -0.414
REMARK UNBOUND:                 0.310
REMARK SMILES Cc1ccccc1-c1noc(C[NH+]2CCCC(Cn3cncn3)C2)n1
REMARK SMILES IDX 12 1 11 2 8 3 9 4 25 5 10 6 7 7 2 8 3 9 4 10 6 11 5 12 1 13
REMARK SMILES IDX 13 14 14 15 24 16 15 17 17 18 16 19 18 21 19 22 20 23 23 24
REMARK SMILES IDX 21 25 22 26
REMARK H PARENT 13 20
ROOT
ATOM      1  C   UNL     1       4.752  44.543  53.178  1.00  0.00     0.364 C 
ENDROOT
BRANCH   1   2
ATOM      2  C   UNL     1       3.360  44.933  53.513  1.00  0.00     0.282 A 
ATOM      3  C   UNL     1       1.372  45.111  54.174  1.00  0.00     0.202 A 
ATOM      4  N   UNL     1       1.576  46.209  53.427  1.00  0.00    -0.057 NA
ATOM      5  N   UNL     1       2.489  44.291  54.257  1.00  0.00    -0.186 NA
ATOM      6  O   UNL     1       2.887  46.089  52.984  1.00  0.00    -0.333 OA
BRANCH   3   7
ATOM      7  C   UNL     1       0.127  44.791  54.872  1.00  0.00     0.026 A 
ATOM      8  C   UNL     1      -0.098  45.076  56.237  1.00  0.00    -0.040 A 
ATOM      9  C   UNL     1      -1.327  44.707  56.819  1.00  0.00     0.004 A 
ATOM     10  C   UNL     1      -2.325  44.088  56.068  1.00  0.00     0.000 A 
ATOM     11  C   UNL     1      -0.899  44.172  54.128  1.00  0.00     0.012 A 
ATOM     12  C   UNL     1      -2.114  43.823  54.721  1.00  0.00     0.001 A 
ATOM     13  C   UNL     1       0.921  45.749  57.118  1.00  0.00     0.045 C 
ENDBRANCH   3   7
ENDBRANCH   1   2
BRANCH   1  14
ATOM     14  N   UNL     1       5.350  45.399  52.050  1.00  0.00    -0.327 N 
ATOM     15  C   UNL     1       5.317  44.718  50.703  1.00  0.00     0.262 C 
ATOM     16  C   UNL     1       6.707  45.971  52.452  1.00  0.00     0.268 C 
ATOM     17  C   UNL     1       6.688  44.175  50.344  1.00  0.00     0.062 C 
ATOM     18  C   UNL     1       7.445  46.462  51.203  1.00  0.00     0.066 C 
ATOM     19  C   UNL     1       7.744  45.280  50.263  1.00  0.00     0.017 C 
ATOM     20  H   UNL     1       4.711  46.208  51.998  1.00  0.00     0.348 HD
BRANCH  18  21
ATOM     21  C   UNL     1       8.703  47.293  51.525  1.00  0.00     0.155 C 
BRANCH  21  22
ATOM     22  N   UNL     1       9.060  47.357  52.923  1.00  0.00    -0.252 N 
ATOM     23  C   UNL     1       9.890  46.539  53.618  1.00  0.00     0.219 A 
ATOM     24  N   UNL     1       8.554  48.325  53.711  1.00  0.00    -0.160 NA
ATOM     25  N   UNL     1       9.946  46.940  54.866  1.00  0.00    -0.224 NA
ATOM     26  C   UNL     1       9.142  48.042  54.879  1.00  0.00     0.246 A 
ENDBRANCH  21  22
ENDBRANCH  18  21
ENDBRANCH   1  14
TORSDOF 5
ENDMDL
