MODEL 1
REMARK VINA RESULT:    -8.597      0.000      0.000
REMARK INTER + INTRA:         -11.260
REMARK INTER:                 -10.607
REMARK INTRA:                  -0.653
REMARK UNBOUND:                -0.653
REMARK SMILES Clc1ccc(-c2noc(CNc3ncnc4nc[nH]c34)n2)cc1
REMARK SMILES IDX 10 1 9 2 6 3 7 4 21 5 8 6 5 7 2 8 3 9 23 10 4 11 22 12 1 13
REMARK SMILES IDX 11 14 12 16 13 17 20 18 14 19 19 20 16 21 15 22 18 23 17 24
REMARK H PARENT 11 15 19 25
ROOT
ATOM      1  C   UNL     1       1.305  42.993  51.326  1.00  0.00     0.215 C 
ENDROOT
BRANCH   1   2
ATOM      2  C   UNL     1       2.356  44.050  51.234  1.00  0.00     0.246 A 
ATOM      3  C   UNL     1       4.062  45.279  51.195  1.00  0.00     0.202 A 
ATOM      4  N   UNL     1       3.074  46.089  50.778  1.00  0.00    -0.057 NA
ATOM      5  N   UNL     1       3.647  43.992  51.468  1.00  0.00    -0.190 NA
ATOM      6  O   UNL     1       1.944  45.278  50.803  1.00  0.00    -0.337 OA
BRANCH   3   7
ATOM      7  C   UNL     1       5.453  45.696  51.341  1.00  0.00     0.023 A 
ATOM      8  C   UNL     1       8.123  46.511  51.642  1.00  0.00     0.041 A 
ATOM      9  C   UNL     1       7.780  45.624  50.625  1.00  0.00     0.021 A 
ATOM     10  C   UNL     1       7.149  46.997  52.510  1.00  0.00     0.021 A 
ATOM     11  C   UNL     1       6.450  45.217  50.475  1.00  0.00     0.014 A 
ATOM     12  C   UNL     1       5.819  46.591  52.360  1.00  0.00     0.014 A 
ATOM     13  Cl  UNL     1       9.759  47.009  51.827  1.00  0.00    -0.084 Cl
ENDBRANCH   3   7
ENDBRANCH   1   2
BRANCH   1  14
ATOM     14  N   UNL     1       1.133  42.328  52.626  1.00  0.00    -0.359 N 
ATOM     15  H   UNL     1       0.738  41.398  52.543  1.00  0.00     0.162 HD
BRANCH  14  16
ATOM     16  C   UNL     1       0.477  43.087  53.594  1.00  0.00     0.156 A 
ATOM     17  N   UNL     1      -0.856  42.995  53.775  1.00  0.00    -0.217 NA
ATOM     18  C   UNL     1       1.142  43.986  54.410  1.00  0.00     0.128 A 
ATOM     19  C   UNL     1      -1.442  43.746  54.734  1.00  0.00     0.226 A 
ATOM     20  N   UNL     1       2.440  44.406  54.522  1.00  0.00    -0.340 N 
ATOM     21  C   UNL     1       0.459  44.716  55.366  1.00  0.00     0.182 A 
ATOM     22  N   UNL     1      -0.865  44.616  55.568  1.00  0.00    -0.215 NA
ATOM     23  C   UNL     1       2.490  45.334  55.526  1.00  0.00     0.199 A 
ATOM     24  N   UNL     1       1.306  45.540  56.058  1.00  0.00    -0.217 NA
ATOM     25  H   UNL     1       3.216  44.106  53.952  1.00  0.00     0.168 HD
ENDBRANCH  14  16
ENDBRANCH   1  14
TORSDOF 4
ENDMDL
MODEL 2
REMARK VINA RESULT:    -8.572      1.729      3.243
REMARK INTER + INTRA:         -11.230
REMARK INTER:                 -10.455
REMARK INTRA:                  -0.775
REMARK UNBOUND:                -0.653
REMARK SMILES Clc1ccc(-c2noc(CNc3ncnc4nc[nH]c34)n2)cc1
REMARK SMILES IDX 10 1 9 2 6 3 7 4 21 5 8 6 5 7 2 8 3 9 23 10 4 11 22 12 1 13
REMARK SMILES IDX 11 14 12 16 13 17 20 18 14 19 19 20 16 21 15 22 18 23 17 24
REMARK H PARENT 11 15 19 25
ROOT
ATOM      1  C   UNL     1       1.780  45.167  54.925  1.00  0.00     0.215 C 
ENDROOT
BRANCH   1   2
ATOM      2  C   UNL     1       2.917  45.756  54.154  1.00  0.00     0.246 A 
ATOM      3  C   UNL     1       4.710  46.319  53.210  1.00  0.00     0.202 A 
ATOM      4  N   UNL     1       3.803  47.179  52.715  1.00  0.00    -0.057 NA
ATOM      5  N   UNL     1       4.182  45.404  54.097  1.00  0.00    -0.190 NA
ATOM      6  O   UNL     1       2.616  46.807  53.339  1.00  0.00    -0.337 OA
BRANCH   3   7
ATOM      7  C   UNL     1       6.123  46.326  52.849  1.00  0.00     0.023 A 
ATOM      8  C   UNL     1       8.849  46.343  52.176  1.00  0.00     0.041 A 
ATOM      9  C   UNL     1       7.899  46.026  51.209  1.00  0.00     0.021 A 
ATOM     10  C   UNL     1       8.455  46.652  53.475  1.00  0.00     0.021 A 
ATOM     11  C   UNL     1       6.541  46.017  51.543  1.00  0.00     0.014 A 
ATOM     12  C   UNL     1       7.097  46.644  53.809  1.00  0.00     0.014 A 
ATOM     13  Cl  UNL     1      10.520  46.353  51.764  1.00  0.00    -0.084 Cl
ENDBRANCH   3   7
ENDBRANCH   1   2
BRANCH   1  14
ATOM     14  N   UNL     1       1.388  43.789  54.596  1.00  0.00    -0.359 N 
ATOM     15  H   UNL     1       1.982  43.096  55.036  1.00  0.00     0.162 HD
BRANCH  14  16
ATOM     16  C   UNL     1       1.210  43.535  53.237  1.00  0.00     0.156 A 
ATOM     17  N   UNL     1       0.065  43.865  52.605  1.00  0.00    -0.217 NA
ATOM     18  C   UNL     1       2.178  42.922  52.462  1.00  0.00     0.128 A 
ATOM     19  C   UNL     1      -0.054  43.608  51.283  1.00  0.00     0.226 A 
ATOM     20  N   UNL     1       3.421  42.404  52.707  1.00  0.00    -0.340 N 
ATOM     21  C   UNL     1       1.970  42.695  51.114  1.00  0.00     0.182 A 
ATOM     22  N   UNL     1       0.842  43.039  50.471  1.00  0.00    -0.215 NA
ATOM     23  C   UNL     1       3.908  41.915  51.525  1.00  0.00     0.199 A 
ATOM     24  N   UNL     1       3.052  42.081  50.542  1.00  0.00    -0.217 NA
ATOM     25  H   UNL     1       3.887  42.365  53.602  1.00  0.00     0.168 HD
ENDBRANCH  14  16
ENDBRANCH   1  14
TORSDOF 4
ENDMDL
MODEL 3
REMARK VINA RESULT:    -8.568      0.070      1.010
REMARK INTER + INTRA:         -11.225
REMARK INTER:                 -10.596
REMARK INTRA:                  -0.629
REMARK UNBOUND:                -0.653
REMARK SMILES Clc1ccc(-c2noc(CNc3ncnc4nc[nH]c34)n2)cc1
REMARK SMILES IDX 10 1 9 2 6 3 7 4 21 5 8 6 5 7 2 8 3 9 23 10 4 11 22 12 1 13
REMARK SMILES IDX 11 14 12 16 13 17 20 18 14 19 19 20 16 21 15 22 18 23 17 24
REMARK H PARENT 11 15 19 25
ROOT
ATOM      1  C   UNL     1       1.331  43.025  51.252  1.00  0.00     0.215 C 
ENDROOT
BRANCH   1   2
ATOM      2  C   UNL     1       2.385  44.082  51.196  1.00  0.00     0.246 A 
ATOM      3  C   UNL     1       4.096  45.305  51.201  1.00  0.00     0.202 A 
ATOM      4  N   UNL     1       3.112  46.131  50.805  1.00  0.00    -0.057 NA
ATOM      5  N   UNL     1       3.676  44.012  51.434  1.00  0.00    -0.190 NA
ATOM      6  O   UNL     1       1.979  45.323  50.801  1.00  0.00    -0.337 OA
BRANCH   3   7
ATOM      7  C   UNL     1       5.488  45.712  51.365  1.00  0.00     0.023 A 
ATOM      8  C   UNL     1       8.171  46.483  51.660  1.00  0.00     0.041 A 
ATOM      9  C   UNL     1       7.201  47.017  52.503  1.00  0.00     0.021 A 
ATOM     10  C   UNL     1       7.819  45.569  50.671  1.00  0.00     0.021 A 
ATOM     11  C   UNL     1       5.863  46.633  52.357  1.00  0.00     0.014 A 
ATOM     12  C   UNL     1       6.482  45.185  50.525  1.00  0.00     0.014 A 
ATOM     13  Cl  UNL     1       9.815  46.957  51.840  1.00  0.00    -0.084 Cl
ENDBRANCH   3   7
ENDBRANCH   1   2
BRANCH   1  14
ATOM     14  N   UNL     1       1.142  42.332  52.536  1.00  0.00    -0.359 N 
ATOM     15  H   UNL     1       0.729  41.413  52.428  1.00  0.00     0.162 HD
BRANCH  14  16
ATOM     16  C   UNL     1       0.498  43.081  53.520  1.00  0.00     0.156 A 
ATOM     17  N   UNL     1      -0.835  42.995  53.709  1.00  0.00    -0.217 NA
ATOM     18  C   UNL     1       1.175  43.962  54.344  1.00  0.00     0.128 A 
ATOM     19  C   UNL     1      -1.409  43.734  54.684  1.00  0.00     0.226 A 
ATOM     20  N   UNL     1       2.476  44.372  54.454  1.00  0.00    -0.340 N 
ATOM     21  C   UNL     1       0.504  44.682  55.317  1.00  0.00     0.182 A 
ATOM     22  N   UNL     1      -0.819  44.587  55.527  1.00  0.00    -0.215 NA
ATOM     23  C   UNL     1       2.541  45.283  55.472  1.00  0.00     0.199 A 
ATOM     24  N   UNL     1       1.362  45.489  56.016  1.00  0.00    -0.217 NA
ATOM     25  H   UNL     1       3.246  44.075  53.873  1.00  0.00     0.168 HD
ENDBRANCH  14  16
ENDBRANCH   1  14
TORSDOF 4
ENDMDL
MODEL 4
REMARK VINA RESULT:    -8.340      1.134      1.322
REMARK INTER + INTRA:         -10.944
REMARK INTER:                 -10.111
REMARK INTRA:                  -0.833
REMARK UNBOUND:                -0.653
REMARK SMILES Clc1ccc(-c2noc(CNc3ncnc4nc[nH]c34)n2)cc1
REMARK SMILES IDX 10 1 9 2 6 3 7 4 21 5 8 6 5 7 2 8 3 9 23 10 4 11 22 12 1 13
REMARK SMILES IDX 11 14 12 16 13 17 20 18 14 19 19 20 16 21 15 22 18 23 17 24
REMARK H PARENT 11 15 19 25
ROOT
ATOM      1  C   UNL     1       1.099  42.680  51.581  1.00  0.00     0.215 C 
ENDROOT
BRANCH   1   2
ATOM      2  C   UNL     1       2.556  42.963  51.416  1.00  0.00     0.246 A 
ATOM      3  C   UNL     1       4.536  43.669  51.351  1.00  0.00     0.202 A 
ATOM      4  N   UNL     1       4.619  42.434  50.828  1.00  0.00    -0.057 NA
ATOM      5  N   UNL     1       3.263  44.021  51.747  1.00  0.00    -0.190 NA
ATOM      6  O   UNL     1       3.309  41.965  50.870  1.00  0.00    -0.337 OA
BRANCH   3   7
ATOM      7  C   UNL     1       5.675  44.568  51.508  1.00  0.00     0.023 A 
ATOM      8  C   UNL     1       7.861  46.300  51.832  1.00  0.00     0.041 A 
ATOM      9  C   UNL     1       7.694  45.613  50.632  1.00  0.00     0.021 A 
ATOM     10  C   UNL     1       6.951  46.132  52.872  1.00  0.00     0.021 A 
ATOM     11  C   UNL     1       6.605  44.751  50.470  1.00  0.00     0.014 A 
ATOM     12  C   UNL     1       5.862  45.270  52.710  1.00  0.00     0.014 A 
ATOM     13  Cl  UNL     1       9.202  47.360  52.031  1.00  0.00    -0.084 Cl
ENDBRANCH   3   7
ENDBRANCH   1   2
BRANCH   1  14
ATOM     14  N   UNL     1       0.663  42.126  52.872  1.00  0.00    -0.359 N 
ATOM     15  H   UNL     1       0.132  41.269  52.772  1.00  0.00     0.162 HD
BRANCH  14  16
ATOM     16  C   UNL     1       0.032  43.035  53.719  1.00  0.00     0.156 A 
ATOM     17  N   UNL     1      -1.313  43.098  53.807  1.00  0.00    -0.217 NA
ATOM     18  C   UNL     1       0.735  43.932  54.504  1.00  0.00     0.128 A 
ATOM     19  C   UNL     1      -1.876  43.989  54.651  1.00  0.00     0.226 A 
ATOM     20  N   UNL     1       2.061  44.225  54.679  1.00  0.00    -0.340 N 
ATOM     21  C   UNL     1       0.074  44.813  55.341  1.00  0.00     0.182 A 
ATOM     22  N   UNL     1      -1.263  44.868  55.450  1.00  0.00    -0.215 NA
ATOM     23  C   UNL     1       2.146  45.231  55.602  1.00  0.00     0.199 A 
ATOM     24  N   UNL     1       0.959  45.606  56.024  1.00  0.00    -0.217 NA
ATOM     25  H   UNL     1       2.836  43.796  54.196  1.00  0.00     0.168 HD
ENDBRANCH  14  16
ENDBRANCH   1  14
TORSDOF 4
ENDMDL
MODEL 5
REMARK VINA RESULT:    -8.324      1.923      3.254
REMARK INTER + INTRA:         -10.924
REMARK INTER:                 -10.056
REMARK INTRA:                  -0.868
REMARK UNBOUND:                -0.653
REMARK SMILES Clc1ccc(-c2noc(CNc3ncnc4nc[nH]c34)n2)cc1
REMARK SMILES IDX 10 1 9 2 6 3 7 4 21 5 8 6 5 7 2 8 3 9 23 10 4 11 22 12 1 13
REMARK SMILES IDX 11 14 12 16 13 17 20 18 14 19 19 20 16 21 15 22 18 23 17 24
REMARK H PARENT 11 15 19 25
ROOT
ATOM      1  C   UNL     1       2.803  45.980  55.753  1.00  0.00     0.215 C 
ENDROOT
BRANCH   1   2
ATOM      2  C   UNL     1       3.851  46.215  54.714  1.00  0.00     0.246 A 
ATOM      3  C   UNL     1       5.263  46.208  53.156  1.00  0.00     0.202 A 
ATOM      4  N   UNL     1       5.291  47.473  53.608  1.00  0.00    -0.057 NA
ATOM      5  N   UNL     1       4.357  45.402  53.815  1.00  0.00    -0.190 NA
ATOM      6  O   UNL     1       4.357  47.480  54.640  1.00  0.00    -0.337 OA
BRANCH   3   7
ATOM      7  C   UNL     1       6.094  45.712  52.063  1.00  0.00     0.023 A 
ATOM      8  C   UNL     1       7.674  44.745  49.953  1.00  0.00     0.041 A 
ATOM      9  C   UNL     1       8.149  45.778  50.757  1.00  0.00     0.021 A 
ATOM     10  C   UNL     1       6.420  44.189  50.190  1.00  0.00     0.021 A 
ATOM     11  C   UNL     1       7.362  46.260  51.809  1.00  0.00     0.014 A 
ATOM     12  C   UNL     1       5.633  44.671  51.241  1.00  0.00     0.014 A 
ATOM     13  Cl  UNL     1       8.642  44.153  48.660  1.00  0.00    -0.084 Cl
ENDBRANCH   3   7
ENDBRANCH   1   2
BRANCH   1  14
ATOM     14  N   UNL     1       2.261  44.618  55.864  1.00  0.00    -0.359 N 
ATOM     15  H   UNL     1       2.977  43.904  55.798  1.00  0.00     0.162 HD
BRANCH  14  16
ATOM     16  C   UNL     1       1.176  44.346  55.032  1.00  0.00     0.156 A 
ATOM     17  N   UNL     1      -0.084  44.661  55.395  1.00  0.00    -0.217 NA
ATOM     18  C   UNL     1       1.319  43.727  53.802  1.00  0.00     0.128 A 
ATOM     19  C   UNL     1      -1.100  44.386  54.548  1.00  0.00     0.226 A 
ATOM     20  N   UNL     1       2.376  43.219  53.097  1.00  0.00    -0.340 N 
ATOM     21  C   UNL     1       0.220  43.482  53.000  1.00  0.00     0.182 A 
ATOM     22  N   UNL     1      -1.036  43.812  53.343  1.00  0.00    -0.215 NA
ATOM     23  C   UNL     1       1.889  42.718  51.921  1.00  0.00     0.199 A 
ATOM     24  N   UNL     1       0.586  42.866  51.832  1.00  0.00    -0.217 NA
ATOM     25  H   UNL     1       3.339  43.195  53.400  1.00  0.00     0.168 HD
ENDBRANCH  14  16
ENDBRANCH   1  14
TORSDOF 4
ENDMDL
MODEL 6
REMARK VINA RESULT:    -8.216      2.060      2.716
REMARK INTER + INTRA:         -10.791
REMARK INTER:                 -10.361
REMARK INTRA:                  -0.430
REMARK UNBOUND:                -0.653
REMARK SMILES Clc1ccc(-c2noc(CNc3ncnc4nc[nH]c34)n2)cc1
REMARK SMILES IDX 10 1 9 2 6 3 7 4 21 5 8 6 5 7 2 8 3 9 23 10 4 11 22 12 1 13
REMARK SMILES IDX 11 14 12 16 13 17 20 18 14 19 19 20 16 21 15 22 18 23 17 24
REMARK H PARENT 11 15 19 25
ROOT
ATOM      1  C   UNL     1       2.011  44.424  54.308  1.00  0.00     0.215 C 
ENDROOT
BRANCH   1   2
ATOM      2  C   UNL     1       3.136  45.129  53.622  1.00  0.00     0.246 A 
ATOM      3  C   UNL     1       4.921  45.853  52.781  1.00  0.00     0.202 A 
ATOM      4  N   UNL     1       3.987  46.711  52.338  1.00  0.00    -0.057 NA
ATOM      5  N   UNL     1       4.416  44.841  53.569  1.00  0.00    -0.190 NA
ATOM      6  O   UNL     1       2.804  46.234  52.894  1.00  0.00    -0.337 OA
BRANCH   3   7
ATOM      7  C   UNL     1       6.341  45.955  52.459  1.00  0.00     0.023 A 
ATOM      8  C   UNL     1       9.078  46.155  51.865  1.00  0.00     0.041 A 
ATOM      9  C   UNL     1       8.174  45.818  50.861  1.00  0.00     0.021 A 
ATOM     10  C   UNL     1       8.633  46.393  53.163  1.00  0.00     0.021 A 
ATOM     11  C   UNL     1       6.811  45.719  51.156  1.00  0.00     0.014 A 
ATOM     12  C   UNL     1       7.269  46.294  53.458  1.00  0.00     0.014 A 
ATOM     13  Cl  UNL     1      10.755  46.276  51.501  1.00  0.00    -0.084 Cl
ENDBRANCH   3   7
ENDBRANCH   1   2
BRANCH   1  14
ATOM     14  N   UNL     1       1.915  44.573  55.768  1.00  0.00    -0.359 N 
ATOM     15  H   UNL     1       2.117  43.712  56.263  1.00  0.00     0.162 HD
BRANCH  14  16
ATOM     16  C   UNL     1       0.743  45.175  56.223  1.00  0.00     0.156 A 
ATOM     17  N   UNL     1      -0.434  44.990  55.590  1.00  0.00    -0.217 NA
ATOM     18  C   UNL     1       0.716  46.004  57.331  1.00  0.00     0.128 A 
ATOM     19  C   UNL     1      -1.543  45.588  56.078  1.00  0.00     0.226 A 
ATOM     20  N   UNL     1       1.658  46.476  58.203  1.00  0.00    -0.340 N 
ATOM     21  C   UNL     1      -0.469  46.576  57.759  1.00  0.00     0.182 A 
ATOM     22  N   UNL     1      -1.649  46.381  57.148  1.00  0.00    -0.215 NA
ATOM     23  C   UNL     1       1.020  47.278  59.110  1.00  0.00     0.199 A 
ATOM     24  N   UNL     1      -0.269  47.355  58.868  1.00  0.00    -0.217 NA
ATOM     25  H   UNL     1       2.649  46.289  58.171  1.00  0.00     0.168 HD
ENDBRANCH  14  16
ENDBRANCH   1  14
TORSDOF 4
ENDMDL
MODEL 7
REMARK VINA RESULT:    -8.061      3.856      7.212
REMARK INTER + INTRA:         -10.599
REMARK INTER:                  -9.693
REMARK INTRA:                  -0.906
REMARK UNBOUND:                -0.653
REMARK SMILES Clc1ccc(-c2noc(CNc3ncnc4nc[nH]c34)n2)cc1
REMARK SMILES IDX 10 1 9 2 6 3 7 4 21 5 8 6 5 7 2 8 3 9 23 10 4 11 22 12 1 13
REMARK SMILES IDX 11 14 12 16 13 17 20 18 14 19 19 20 16 21 15 22 18 23 17 24
REMARK H PARENT 11 15 19 25
ROOT
ATOM      1  C   UNL     1       7.009  44.243  50.198  1.00  0.00     0.215 C 
ENDROOT
BRANCH   1   2
ATOM      2  C   UNL     1       5.746  43.732  50.812  1.00  0.00     0.246 A 
ATOM      3  C   UNL     1       3.936  43.343  51.808  1.00  0.00     0.202 A 
ATOM      4  N   UNL     1       4.192  42.199  51.150  1.00  0.00    -0.057 NA
ATOM      5  N   UNL     1       4.879  44.327  51.600  1.00  0.00    -0.190 NA
ATOM      6  O   UNL     1       5.390  42.455  50.490  1.00  0.00    -0.337 OA
BRANCH   3   7
ATOM      7  C   UNL     1       2.768  43.551  52.659  1.00  0.00     0.023 A 
ATOM      8  C   UNL     1       0.512  43.932  54.286  1.00  0.00     0.041 A 
ATOM      9  C   UNL     1       1.605  44.787  54.406  1.00  0.00     0.021 A 
ATOM     10  C   UNL     1       0.532  42.889  53.364  1.00  0.00     0.021 A 
ATOM     11  C   UNL     1       2.729  44.598  53.595  1.00  0.00     0.014 A 
ATOM     12  C   UNL     1       1.656  42.700  52.553  1.00  0.00     0.014 A 
ATOM     13  Cl  UNL     1      -0.869  44.164  55.285  1.00  0.00    -0.084 Cl
ENDBRANCH   3   7
ENDBRANCH   1   2
BRANCH   1  14
ATOM     14  N   UNL     1       7.284  45.682  50.327  1.00  0.00    -0.359 N 
ATOM     15  H   UNL     1       7.615  46.097  49.464  1.00  0.00     0.162 HD
BRANCH  14  16
ATOM     16  C   UNL     1       8.082  46.034  51.414  1.00  0.00     0.156 A 
ATOM     17  N   UNL     1       9.428  46.003  51.337  1.00  0.00    -0.217 NA
ATOM     18  C   UNL     1       7.550  46.417  52.633  1.00  0.00     0.128 A 
ATOM     19  C   UNL     1      10.156  46.364  52.416  1.00  0.00     0.226 A 
ATOM     20  N   UNL     1       6.283  46.537  53.136  1.00  0.00    -0.340 N 
ATOM     21  C   UNL     1       8.374  46.769  53.687  1.00  0.00     0.182 A 
ATOM     22  N   UNL     1       9.715  46.762  53.613  1.00  0.00    -0.215 NA
ATOM     23  C   UNL     1       6.388  46.962  54.432  1.00  0.00     0.199 A 
ATOM     24  N   UNL     1       7.643  47.115  54.793  1.00  0.00    -0.217 NA
ATOM     25  H   UNL     1       5.425  46.326  52.648  1.00  0.00     0.168 HD
ENDBRANCH  14  16
ENDBRANCH   1  14
TORSDOF 4
ENDMDL
MODEL 8
REMARK VINA RESULT:    -7.776      4.239      7.801
REMARK INTER + INTRA:         -10.248
REMARK INTER:                  -9.478
REMARK INTRA:                  -0.770
REMARK UNBOUND:                -0.653
REMARK SMILES Clc1ccc(-c2noc(CNc3ncnc4nc[nH]c34)n2)cc1
REMARK SMILES IDX 10 1 9 2 6 3 7 4 21 5 8 6 5 7 2 8 3 9 23 10 4 11 22 12 1 13
REMARK SMILES IDX 11 14 12 16 13 17 20 18 14 19 19 20 16 21 15 22 18 23 17 24
REMARK H PARENT 11 15 19 25
ROOT
ATOM      1  C   UNL     1       5.595  45.618  54.971  1.00  0.00     0.215 C 
ENDROOT
BRANCH   1   2
ATOM      2  C   UNL     1       4.677  44.876  54.056  1.00  0.00     0.246 A 
ATOM      3  C   UNL     1       3.122  43.975  52.965  1.00  0.00     0.202 A 
ATOM      4  N   UNL     1       4.232  43.616  52.297  1.00  0.00    -0.057 NA
ATOM      5  N   UNL     1       3.366  44.780  54.057  1.00  0.00    -0.190 NA
ATOM      6  O   UNL     1       5.262  44.211  53.018  1.00  0.00    -0.337 OA
BRANCH   3   7
ATOM      7  C   UNL     1       1.772  43.573  52.580  1.00  0.00     0.023 A 
ATOM      8  C   UNL     1      -0.823  42.816  51.822  1.00  0.00     0.041 A 
ATOM      9  C   UNL     1      -0.201  42.179  52.892  1.00  0.00     0.021 A 
ATOM     10  C   UNL     1      -0.166  43.827  51.125  1.00  0.00     0.021 A 
ATOM     11  C   UNL     1       1.092  42.556  53.271  1.00  0.00     0.014 A 
ATOM     12  C   UNL     1       1.127  44.204  51.504  1.00  0.00     0.014 A 
ATOM     13  Cl  UNL     1      -2.412  42.350  51.356  1.00  0.00    -0.084 Cl
ENDBRANCH   3   7
ENDBRANCH   1   2
BRANCH   1  14
ATOM     14  N   UNL     1       6.064  46.939  54.527  1.00  0.00    -0.359 N 
ATOM     15  H   UNL     1       5.459  47.356  53.830  1.00  0.00     0.162 HD
BRANCH  14  16
ATOM     16  C   UNL     1       7.405  46.993  54.153  1.00  0.00     0.156 A 
ATOM     17  N   UNL     1       8.346  47.496  54.978  1.00  0.00    -0.217 NA
ATOM     18  C   UNL     1       7.851  46.554  52.918  1.00  0.00     0.128 A 
ATOM     19  C   UNL     1       9.635  47.516  54.572  1.00  0.00     0.226 A 
ATOM     20  N   UNL     1       7.246  46.035  51.806  1.00  0.00    -0.340 N 
ATOM     21  C   UNL     1       9.192  46.614  52.585  1.00  0.00     0.182 A 
ATOM     22  N   UNL     1      10.138  47.093  53.408  1.00  0.00    -0.215 NA
ATOM     23  C   UNL     1       8.221  45.791  50.878  1.00  0.00     0.199 A 
ATOM     24  N   UNL     1       9.411  46.129  51.323  1.00  0.00    -0.217 NA
ATOM     25  H   UNL     1       6.256  45.881  51.681  1.00  0.00     0.168 HD
ENDBRANCH  14  16
ENDBRANCH   1  14
TORSDOF 4
ENDMDL
MODEL 9
REMARK VINA RESULT:    -7.773      1.524      2.607
REMARK INTER + INTRA:         -10.244
REMARK INTER:                  -9.727
REMARK INTRA:                  -0.517
REMARK UNBOUND:                -0.653
REMARK SMILES Clc1ccc(-c2noc(CNc3ncnc4nc[nH]c34)n2)cc1
REMARK SMILES IDX 10 1 9 2 6 3 7 4 21 5 8 6 5 7 2 8 3 9 23 10 4 11 22 12 1 13
REMARK SMILES IDX 11 14 12 16 13 17 20 18 14 19 19 20 16 21 15 22 18 23 17 24
REMARK H PARENT 11 15 19 25
ROOT
ATOM      1  C   UNL     1       1.221  43.018  53.348  1.00  0.00     0.215 C 
ENDROOT
BRANCH   1   2
ATOM      2  C   UNL     1       2.527  43.323  52.690  1.00  0.00     0.246 A 
ATOM      3  C   UNL     1       4.408  43.990  52.027  1.00  0.00     0.202 A 
ATOM      4  N   UNL     1       4.105  42.992  51.179  1.00  0.00    -0.057 NA
ATOM      5  N   UNL     1       3.450  44.207  52.995  1.00  0.00    -0.190 NA
ATOM      6  O   UNL     1       2.860  42.550  51.616  1.00  0.00    -0.337 OA
BRANCH   3   7
ATOM      7  C   UNL     1       5.636  44.775  51.957  1.00  0.00     0.023 A 
ATOM      8  C   UNL     1       7.998  46.290  51.847  1.00  0.00     0.041 A 
ATOM      9  C   UNL     1       7.503  45.693  50.690  1.00  0.00     0.021 A 
ATOM     10  C   UNL     1       7.328  46.140  53.058  1.00  0.00     0.021 A 
ATOM     11  C   UNL     1       6.326  44.939  50.744  1.00  0.00     0.014 A 
ATOM     12  C   UNL     1       6.151  45.386  53.112  1.00  0.00     0.014 A 
ATOM     13  Cl  UNL     1       9.446  47.217  51.779  1.00  0.00    -0.084 Cl
ENDBRANCH   3   7
ENDBRANCH   1   2
BRANCH   1  14
ATOM     14  N   UNL     1       0.297  44.142  53.561  1.00  0.00    -0.359 N 
ATOM     15  H   UNL     1       0.445  44.901  52.906  1.00  0.00     0.162 HD
BRANCH  14  16
ATOM     16  C   UNL     1       0.217  44.597  54.876  1.00  0.00     0.156 A 
ATOM     17  N   UNL     1       1.235  45.269  55.451  1.00  0.00    -0.217 NA
ATOM     18  C   UNL     1      -0.894  44.377  55.672  1.00  0.00     0.128 A 
ATOM     19  C   UNL     1       1.103  45.698  56.725  1.00  0.00     0.226 A 
ATOM     20  N   UNL     1      -2.084  43.724  55.503  1.00  0.00    -0.340 N 
ATOM     21  C   UNL     1      -0.942  44.852  56.970  1.00  0.00     0.182 A 
ATOM     22  N   UNL     1       0.059  45.540  57.544  1.00  0.00    -0.215 NA
ATOM     23  C   UNL     1      -2.792  43.843  56.668  1.00  0.00     0.199 A 
ATOM     24  N   UNL     1      -2.127  44.524  57.574  1.00  0.00    -0.217 NA
ATOM     25  H   UNL     1      -2.379  43.222  54.678  1.00  0.00     0.168 HD
ENDBRANCH  14  16
ENDBRANCH   1  14
TORSDOF 4
ENDMDL
MODEL 10
REMARK VINA RESULT:    -7.602      2.903      4.148
REMARK INTER + INTRA:         -10.032
REMARK INTER:                  -9.570
REMARK INTRA:                  -0.462
REMARK UNBOUND:                -0.653
REMARK SMILES Clc1ccc(-c2noc(CNc3ncnc4nc[nH]c34)n2)cc1
REMARK SMILES IDX 10 1 9 2 6 3 7 4 21 5 8 6 5 7 2 8 3 9 23 10 4 11 22 12 1 13
REMARK SMILES IDX 11 14 12 16 13 17 20 18 14 19 19 20 16 21 15 22 18 23 17 24
REMARK H PARENT 11 15 19 25
ROOT
ATOM      1  C   UNL     1       1.334  44.890  55.799  1.00  0.00     0.215 C 
ENDROOT
BRANCH   1   2
ATOM      2  C   UNL     1       2.389  45.410  54.877  1.00  0.00     0.246 A 
ATOM      3  C   UNL     1       4.104  45.988  53.807  1.00  0.00     0.202 A 
ATOM      4  N   UNL     1       3.087  46.415  53.038  1.00  0.00    -0.057 NA
ATOM      5  N   UNL     1       3.699  45.338  54.953  1.00  0.00    -0.190 NA
ATOM      6  O   UNL     1       1.951  46.033  53.745  1.00  0.00    -0.337 OA
BRANCH   3   7
ATOM      7  C   UNL     1       5.512  46.172  53.473  1.00  0.00     0.023 A 
ATOM      8  C   UNL     1       8.228  46.530  52.855  1.00  0.00     0.041 A 
ATOM      9  C   UNL     1       7.323  46.219  51.844  1.00  0.00     0.021 A 
ATOM     10  C   UNL     1       7.794  46.666  54.171  1.00  0.00     0.021 A 
ATOM     11  C   UNL     1       5.970  46.041  52.151  1.00  0.00     0.014 A 
ATOM     12  C   UNL     1       6.441  46.488  54.478  1.00  0.00     0.014 A 
ATOM     13  Cl  UNL     1       9.892  46.748  52.476  1.00  0.00    -0.084 Cl
ENDBRANCH   3   7
ENDBRANCH   1   2
BRANCH   1  14
ATOM     14  N   UNL     1       0.106  45.689  55.932  1.00  0.00    -0.359 N 
ATOM     15  H   UNL     1      -0.084  46.256  55.115  1.00  0.00     0.162 HD
BRANCH  14  16
ATOM     16  C   UNL     1       0.007  46.424  57.112  1.00  0.00     0.156 A 
ATOM     17  N   UNL     1       0.974  46.380  58.051  1.00  0.00    -0.217 NA
ATOM     18  C   UNL     1      -1.086  47.224  57.400  1.00  0.00     0.128 A 
ATOM     19  C   UNL     1       0.835  47.120  59.173  1.00  0.00     0.226 A 
ATOM     20  N   UNL     1      -2.265  47.508  56.766  1.00  0.00    -0.340 N 
ATOM     21  C   UNL     1      -1.145  47.947  58.577  1.00  0.00     0.182 A 
ATOM     22  N   UNL     1      -0.177  47.927  59.508  1.00  0.00    -0.215 NA
ATOM     23  C   UNL     1      -2.962  48.381  57.556  1.00  0.00     0.199 A 
ATOM     24  N   UNL     1      -2.307  48.668  58.658  1.00  0.00    -0.217 NA
ATOM     25  H   UNL     1      -2.577  47.123  55.887  1.00  0.00     0.168 HD
ENDBRANCH  14  16
ENDBRANCH   1  14
TORSDOF 4
ENDMDL
