MODEL 1
REMARK VINA RESULT:   -10.007      0.000      0.000
REMARK INTER + INTRA:         -14.614
REMARK INTER:                 -12.932
REMARK INTRA:                  -1.682
REMARK UNBOUND:                -1.682
REMARK SMILES O=C(Nc1nc2ccccc2c(=O)[nH]1)C1CCCN(C(=O)COc2ccccc2)C1
REMARK SMILES IDX 20 1 21 2 19 3 15 4 16 5 30 6 17 7 18 8 2 9 3 10 4 11 5 12
REMARK SMILES IDX 14 13 6 14 12 15 7 16 11 17 8 18 10 19 9 20 1 21 13 24 22 25
REMARK SMILES IDX 23 26 24 27 25 28 29 29 26 30 28 31 27 32
REMARK H PARENT 3 22 14 23
ROOT
ATOM      1  C   UNL     1       8.870  45.099  50.533  1.00  0.00     0.260 C 
ATOM      2  O   UNL     1       9.851  44.517  50.070  1.00  0.00    -0.271 OA
ENDROOT
BRANCH   1   3
ATOM      3  N   UNL     1       9.003  46.017  51.592  1.00  0.00    -0.339 N 
ATOM      4  C   UNL     1       8.002  47.997  52.743  1.00  0.00     0.098 C 
ATOM      5  C   UNL     1       9.209  48.019  53.687  1.00  0.00     0.017 C 
ATOM      6  C   UNL     1       8.331  47.314  51.415  1.00  0.00     0.133 C 
ATOM      7  C   UNL     1       9.894  46.660  53.814  1.00  0.00     0.022 C 
ATOM      8  C   UNL     1      10.188  46.034  52.455  1.00  0.00     0.119 C 
BRANCH   4   9
ATOM      9  C   UNL     1       6.771  47.397  53.419  1.00  0.00     0.231 C 
ATOM     10  N   UNL     1       5.767  46.989  52.562  1.00  0.00    -0.296 N 
ATOM     11  C   UNL     1       4.610  46.342  52.862  1.00  0.00     0.210 C 
ATOM     12  N   UNL     1       3.836  46.040  51.875  1.00  0.00    -0.214 NA
ATOM     13  N   UNL     1       4.348  46.044  54.157  1.00  0.00    -0.292 N 
ATOM     14  C   UNL     1       2.645  45.356  52.175  1.00  0.00     0.080 A 
ATOM     15  C   UNL     1       3.210  45.396  54.563  1.00  0.00     0.260 C 
ATOM     16  C   UNL     1       1.790  44.998  51.130  1.00  0.00     0.029 A 
ATOM     17  C   UNL     1       2.283  45.017  53.482  1.00  0.00     0.066 A 
ATOM     18  C   UNL     1       0.593  44.321  51.391  1.00  0.00     0.002 A 
ATOM     19  C   UNL     1       1.091  44.339  53.754  1.00  0.00     0.016 A 
ATOM     20  C   UNL     1       0.245  43.993  52.702  1.00  0.00     0.001 A 
ATOM     21  O   UNL     1       6.722  47.227  54.637  1.00  0.00    -0.274 OA
ATOM     22  H   UNL     1       5.864  47.197  51.576  1.00  0.00     0.173 HD
ATOM     23  H   UNL     1       5.010  46.326  54.874  1.00  0.00     0.173 HD
ATOM     24  O   UNL     1       2.972  45.144  55.738  1.00  0.00    -0.269 OA
ENDBRANCH   4   9
ENDBRANCH   1   3
BRANCH   1  25
ATOM     25  C   UNL     1       7.457  44.910  49.948  1.00  0.00     0.329 C 
BRANCH  25  26
ATOM     26  O   UNL     1       6.481  44.368  50.825  1.00  0.00    -0.484 OA
BRANCH  26  27
ATOM     27  C   UNL     1       5.802  43.252  50.424  1.00  0.00     0.120 A 
ATOM     28  C   UNL     1       6.306  42.654  49.265  1.00  0.00     0.046 A 
ATOM     29  C   UNL     1       4.683  42.696  51.043  1.00  0.00     0.046 A 
ATOM     30  C   UNL     1       5.706  41.511  48.733  1.00  0.00     0.004 A 
ATOM     31  C   UNL     1       4.077  41.556  50.507  1.00  0.00     0.004 A 
ATOM     32  C   UNL     1       4.589  40.961  49.356  1.00  0.00     0.000 A 
ENDBRANCH  26  27
ENDBRANCH  25  26
ENDBRANCH   1  25
TORSDOF 5
ENDMDL
MODEL 2
REMARK VINA RESULT:    -9.412      2.681      5.684
REMARK INTER + INTRA:         -13.844
REMARK INTER:                 -13.138
REMARK INTRA:                  -0.706
REMARK UNBOUND:                -1.682
REMARK SMILES O=C(Nc1nc2ccccc2c(=O)[nH]1)C1CCCN(C(=O)COc2ccccc2)C1
REMARK SMILES IDX 20 1 21 2 19 3 15 4 16 5 30 6 17 7 18 8 2 9 3 10 4 11 5 12
REMARK SMILES IDX 14 13 6 14 12 15 7 16 11 17 8 18 10 19 9 20 1 21 13 24 22 25
REMARK SMILES IDX 23 26 24 27 25 28 29 29 26 30 28 31 27 32
REMARK H PARENT 3 22 14 23
ROOT
ATOM      1  C   UNL     1       5.175  47.052  53.856  1.00  0.00     0.260 C 
ATOM      2  O   UNL     1       4.469  48.060  53.815  1.00  0.00    -0.271 OA
ENDROOT
BRANCH   1   3
ATOM      3  N   UNL     1       5.093  46.067  52.853  1.00  0.00    -0.339 N 
ATOM      4  C   UNL     1       4.803  43.632  52.373  1.00  0.00     0.098 C 
ATOM      5  C   UNL     1       4.991  43.935  50.883  1.00  0.00     0.017 C 
ATOM      6  C   UNL     1       5.450  44.698  53.257  1.00  0.00     0.133 C 
ATOM      7  C   UNL     1       4.641  45.375  50.516  1.00  0.00     0.022 C 
ATOM      8  C   UNL     1       5.315  46.385  51.439  1.00  0.00     0.119 C 
BRANCH   4   9
ATOM      9  C   UNL     1       3.332  43.402  52.717  1.00  0.00     0.231 C 
ATOM     10  N   UNL     1       2.857  44.129  53.791  1.00  0.00    -0.296 N 
ATOM     11  C   UNL     1       1.585  44.204  54.265  1.00  0.00     0.210 C 
ATOM     12  N   UNL     1       1.383  44.982  55.275  1.00  0.00    -0.214 NA
ATOM     13  N   UNL     1       0.618  43.480  53.653  1.00  0.00    -0.292 N 
ATOM     14  C   UNL     1       0.067  45.077  55.763  1.00  0.00     0.080 A 
ATOM     15  C   UNL     1      -0.692  43.485  54.056  1.00  0.00     0.260 C 
ATOM     16  C   UNL     1      -0.194  45.921  56.844  1.00  0.00     0.029 A 
ATOM     17  C   UNL     1      -0.994  44.359  55.203  1.00  0.00     0.066 A 
ATOM     18  C   UNL     1      -1.489  46.038  57.358  1.00  0.00     0.002 A 
ATOM     19  C   UNL     1      -2.293  44.468  55.708  1.00  0.00     0.016 A 
ATOM     20  C   UNL     1      -2.537  45.312  56.791  1.00  0.00     0.001 A 
ATOM     21  O   UNL     1       2.616  42.673  52.032  1.00  0.00    -0.274 OA
ATOM     22  H   UNL     1       3.516  44.678  54.328  1.00  0.00     0.173 HD
ATOM     23  H   UNL     1       0.867  42.887  52.867  1.00  0.00     0.173 HD
ATOM     24  O   UNL     1      -1.559  42.816  53.506  1.00  0.00    -0.269 OA
ENDBRANCH   4   9
ENDBRANCH   1   3
BRANCH   1  25
ATOM     25  C   UNL     1       6.228  46.837  54.959  1.00  0.00     0.329 C 
BRANCH  25  26
ATOM     26  O   UNL     1       7.437  47.569  54.825  1.00  0.00    -0.484 OA
BRANCH  26  27
ATOM     27  C   UNL     1       8.187  47.376  53.699  1.00  0.00     0.120 A 
ATOM     28  C   UNL     1       9.125  46.342  53.799  1.00  0.00     0.046 A 
ATOM     29  C   UNL     1       8.110  48.109  52.515  1.00  0.00     0.046 A 
ATOM     30  C   UNL     1       9.968  46.038  52.730  1.00  0.00     0.004 A 
ATOM     31  C   UNL     1       8.960  47.809  51.446  1.00  0.00     0.004 A 
ATOM     32  C   UNL     1       9.885  46.774  51.550  1.00  0.00     0.000 A 
ENDBRANCH  26  27
ENDBRANCH  25  26
ENDBRANCH   1  25
TORSDOF 5
ENDMDL
MODEL 3
REMARK VINA RESULT:    -9.104      3.810      6.847
REMARK INTER + INTRA:         -13.446
REMARK INTER:                 -12.741
REMARK INTRA:                  -0.705
REMARK UNBOUND:                -1.682
REMARK SMILES O=C(Nc1nc2ccccc2c(=O)[nH]1)C1CCCN(C(=O)COc2ccccc2)C1
REMARK SMILES IDX 20 1 21 2 19 3 15 4 16 5 30 6 17 7 18 8 2 9 3 10 4 11 5 12
REMARK SMILES IDX 14 13 6 14 12 15 7 16 11 17 8 18 10 19 9 20 1 21 13 24 22 25
REMARK SMILES IDX 23 26 24 27 25 28 29 29 26 30 28 31 27 32
REMARK H PARENT 3 22 14 23
ROOT
ATOM      1  C   UNL     1       4.563  47.210  53.997  1.00  0.00     0.260 C 
ATOM      2  O   UNL     1       4.301  48.410  53.914  1.00  0.00    -0.271 OA
ENDROOT
BRANCH   1   3
ATOM      3  N   UNL     1       3.766  46.246  53.350  1.00  0.00    -0.339 N 
ATOM      4  C   UNL     1       2.395  44.177  53.635  1.00  0.00     0.098 C 
ATOM      5  C   UNL     1       2.173  44.153  52.119  1.00  0.00     0.017 C 
ATOM      6  C   UNL     1       3.667  44.936  54.012  1.00  0.00     0.133 C 
ATOM      7  C   UNL     1       2.318  45.528  51.471  1.00  0.00     0.022 C 
ATOM      8  C   UNL     1       3.604  46.231  51.894  1.00  0.00     0.119 C 
BRANCH   4   9
ATOM      9  C   UNL     1       1.164  44.697  54.375  1.00  0.00     0.231 C 
ATOM     10  N   UNL     1       1.414  45.276  55.604  1.00  0.00    -0.296 N 
ATOM     11  C   UNL     1       0.542  45.903  56.436  1.00  0.00     0.210 C 
ATOM     12  N   UNL     1       1.026  46.391  57.529  1.00  0.00    -0.214 NA
ATOM     13  N   UNL     1      -0.759  45.989  56.072  1.00  0.00    -0.292 N 
ATOM     14  C   UNL     1       0.134  47.055  58.389  1.00  0.00     0.080 A 
ATOM     15  C   UNL     1      -1.715  46.599  56.842  1.00  0.00     0.260 C 
ATOM     16  C   UNL     1       0.624  47.611  59.573  1.00  0.00     0.029 A 
ATOM     17  C   UNL     1      -1.229  47.185  58.103  1.00  0.00     0.066 A 
ATOM     18  C   UNL     1      -0.235  48.275  60.455  1.00  0.00     0.002 A 
ATOM     19  C   UNL     1      -2.096  47.847  58.977  1.00  0.00     0.016 A 
ATOM     20  C   UNL     1      -1.593  48.393  60.157  1.00  0.00     0.001 A 
ATOM     21  O   UNL     1       0.044  44.663  53.866  1.00  0.00    -0.274 OA
ATOM     22  H   UNL     1       2.357  45.232  55.971  1.00  0.00     0.173 HD
ATOM     23  H   UNL     1      -1.057  45.570  55.196  1.00  0.00     0.173 HD
ATOM     24  O   UNL     1      -2.894  46.660  56.512  1.00  0.00    -0.269 OA
ENDBRANCH   4   9
ENDBRANCH   1   3
BRANCH   1  25
ATOM     25  C   UNL     1       5.804  46.695  54.752  1.00  0.00     0.329 C 
BRANCH  25  26
ATOM     26  O   UNL     1       6.985  47.472  54.622  1.00  0.00    -0.484 OA
BRANCH  26  27
ATOM     27  C   UNL     1       7.897  47.107  53.671  1.00  0.00     0.120 A 
ATOM     28  C   UNL     1       9.227  47.147  54.101  1.00  0.00     0.046 A 
ATOM     29  C   UNL     1       7.620  46.733  52.357  1.00  0.00     0.046 A 
ATOM     30  C   UNL     1      10.268  46.810  53.234  1.00  0.00     0.004 A 
ATOM     31  C   UNL     1       8.662  46.402  51.485  1.00  0.00     0.004 A 
ATOM     32  C   UNL     1       9.984  46.437  51.922  1.00  0.00     0.000 A 
ENDBRANCH  26  27
ENDBRANCH  25  26
ENDBRANCH   1  25
TORSDOF 5
ENDMDL
MODEL 4
REMARK VINA RESULT:    -9.004      3.042      8.471
REMARK INTER + INTRA:         -13.318
REMARK INTER:                 -12.554
REMARK INTRA:                  -0.764
REMARK UNBOUND:                -1.682
REMARK SMILES O=C(Nc1nc2ccccc2c(=O)[nH]1)C1CCCN(C(=O)COc2ccccc2)C1
REMARK SMILES IDX 20 1 21 2 19 3 15 4 16 5 30 6 17 7 18 8 2 9 3 10 4 11 5 12
REMARK SMILES IDX 14 13 6 14 12 15 7 16 11 17 8 18 10 19 9 20 1 21 13 24 22 25
REMARK SMILES IDX 23 26 24 27 25 28 29 29 26 30 28 31 27 32
REMARK H PARENT 3 22 14 23
ROOT
ATOM      1  C   UNL     1      -0.358  43.946  54.497  1.00  0.00     0.260 C 
ATOM      2  O   UNL     1      -1.432  43.346  54.531  1.00  0.00    -0.271 OA
ENDROOT
BRANCH   1   3
ATOM      3  N   UNL     1       0.434  43.954  53.332  1.00  0.00    -0.339 N 
ATOM      4  C   UNL     1       1.712  45.367  51.716  1.00  0.00     0.098 C 
ATOM      5  C   UNL     1       2.006  44.107  50.895  1.00  0.00     0.017 C 
ATOM      6  C   UNL     1       0.451  45.210  52.568  1.00  0.00     0.133 C 
ATOM      7  C   UNL     1       1.944  42.825  51.722  1.00  0.00     0.022 C 
ATOM      8  C   UNL     1       0.666  42.736  52.550  1.00  0.00     0.119 C 
BRANCH   4   9
ATOM      9  C   UNL     1       2.924  45.796  52.541  1.00  0.00     0.231 C 
ATOM     10  N   UNL     1       4.149  45.611  51.930  1.00  0.00    -0.296 N 
ATOM     11  C   UNL     1       5.379  45.980  52.373  1.00  0.00     0.210 C 
ATOM     12  N   UNL     1       6.381  45.719  51.602  1.00  0.00    -0.214 NA
ATOM     13  N   UNL     1       5.480  46.602  53.572  1.00  0.00    -0.292 N 
ATOM     14  C   UNL     1       7.656  46.111  52.046  1.00  0.00     0.080 A 
ATOM     15  C   UNL     1       6.674  47.011  54.108  1.00  0.00     0.260 C 
ATOM     16  C   UNL     1       8.762  45.861  51.232  1.00  0.00     0.029 A 
ATOM     17  C   UNL     1       7.861  46.748  53.274  1.00  0.00     0.066 A 
ATOM     18  C   UNL     1      10.047  46.233  51.643  1.00  0.00     0.002 A 
ATOM     19  C   UNL     1       9.139  47.126  53.695  1.00  0.00     0.016 A 
ATOM     20  C   UNL     1      10.234  46.864  52.873  1.00  0.00     0.001 A 
ATOM     21  O   UNL     1       2.798  46.334  53.640  1.00  0.00    -0.274 OA
ATOM     22  H   UNL     1       4.173  45.126  51.041  1.00  0.00     0.173 HD
ATOM     23  H   UNL     1       4.639  46.762  54.119  1.00  0.00     0.173 HD
ATOM     24  O   UNL     1       6.759  47.559  55.200  1.00  0.00    -0.269 OA
ENDBRANCH   4   9
ENDBRANCH   1   3
BRANCH   1  25
ATOM     25  C   UNL     1       0.154  44.773  55.692  1.00  0.00     0.329 C 
BRANCH  25  26
ATOM     26  O   UNL     1      -0.719  45.782  56.177  1.00  0.00    -0.484 OA
BRANCH  26  27
ATOM     27  C   UNL     1      -0.367  46.447  57.318  1.00  0.00     0.120 A 
ATOM     28  C   UNL     1      -1.394  47.210  57.883  1.00  0.00     0.046 A 
ATOM     29  C   UNL     1       0.888  46.442  57.927  1.00  0.00     0.046 A 
ATOM     30  C   UNL     1      -1.176  47.952  59.045  1.00  0.00     0.004 A 
ATOM     31  C   UNL     1       1.109  47.190  59.087  1.00  0.00     0.004 A 
ATOM     32  C   UNL     1       0.079  47.942  59.648  1.00  0.00     0.000 A 
ENDBRANCH  26  27
ENDBRANCH  25  26
ENDBRANCH   1  25
TORSDOF 5
ENDMDL
MODEL 5
REMARK VINA RESULT:    -8.857      2.983      8.428
REMARK INTER + INTRA:         -13.128
REMARK INTER:                 -12.362
REMARK INTRA:                  -0.765
REMARK UNBOUND:                -1.682
REMARK SMILES O=C(Nc1nc2ccccc2c(=O)[nH]1)C1CCCN(C(=O)COc2ccccc2)C1
REMARK SMILES IDX 20 1 21 2 19 3 15 4 16 5 30 6 17 7 18 8 2 9 3 10 4 11 5 12
REMARK SMILES IDX 14 13 6 14 12 15 7 16 11 17 8 18 10 19 9 20 1 21 13 24 22 25
REMARK SMILES IDX 23 26 24 27 25 28 29 29 26 30 28 31 27 32
REMARK H PARENT 3 22 14 23
ROOT
ATOM      1  C   UNL     1       2.131  45.276  55.356  1.00  0.00     0.260 C 
ATOM      2  O   UNL     1       3.217  45.758  55.677  1.00  0.00    -0.271 OA
ENDROOT
BRANCH   1   3
ATOM      3  N   UNL     1       1.870  44.897  54.025  1.00  0.00    -0.339 N 
ATOM      4  C   UNL     1       1.926  45.608  51.631  1.00  0.00     0.098 C 
ATOM      5  C   UNL     1       1.294  44.265  51.250  1.00  0.00     0.017 C 
ATOM      6  C   UNL     1       1.615  45.993  53.077  1.00  0.00     0.133 C 
ATOM      7  C   UNL     1       1.556  43.167  52.278  1.00  0.00     0.022 C 
ATOM      8  C   UNL     1       1.231  43.619  53.698  1.00  0.00     0.119 C 
BRANCH   4   9
ATOM      9  C   UNL     1       3.423  45.630  51.329  1.00  0.00     0.231 C 
ATOM     10  N   UNL     1       4.213  46.213  52.301  1.00  0.00    -0.296 N 
ATOM     11  C   UNL     1       5.568  46.293  52.354  1.00  0.00     0.210 C 
ATOM     12  N   UNL     1       6.079  46.869  53.389  1.00  0.00    -0.214 NA
ATOM     13  N   UNL     1       6.292  45.760  51.341  1.00  0.00    -0.292 N 
ATOM     14  C   UNL     1       7.482  46.942  53.460  1.00  0.00     0.080 A 
ATOM     15  C   UNL     1       7.662  45.790  51.300  1.00  0.00     0.260 C 
ATOM     16  C   UNL     1       8.073  47.544  54.573  1.00  0.00     0.029 A 
ATOM     17  C   UNL     1       8.312  46.430  52.457  1.00  0.00     0.066 A 
ATOM     18  C   UNL     1       9.465  47.638  54.676  1.00  0.00     0.002 A 
ATOM     19  C   UNL     1       9.704  46.518  52.549  1.00  0.00     0.016 A 
ATOM     20  C   UNL     1      10.279  47.126  53.665  1.00  0.00     0.001 A 
ATOM     21  O   UNL     1       3.886  45.096  50.322  1.00  0.00    -0.274 OA
ATOM     22  H   UNL     1       3.755  46.665  53.083  1.00  0.00     0.173 HD
ATOM     23  H   UNL     1       5.807  45.330  50.559  1.00  0.00     0.173 HD
ATOM     24  O   UNL     1       8.310  45.319  50.373  1.00  0.00    -0.269 OA
ENDBRANCH   4   9
ENDBRANCH   1   3
BRANCH   1  25
ATOM     25  C   UNL     1       1.023  44.998  56.390  1.00  0.00     0.329 C 
BRANCH  25  26
ATOM     26  O   UNL     1      -0.068  45.906  56.399  1.00  0.00    -0.484 OA
BRANCH  26  27
ATOM     27  C   UNL     1      -0.233  46.707  57.495  1.00  0.00     0.120 A 
ATOM     28  C   UNL     1       0.874  46.753  58.349  1.00  0.00     0.046 A 
ATOM     29  C   UNL     1      -1.376  47.434  57.825  1.00  0.00     0.046 A 
ATOM     30  C   UNL     1       0.845  47.522  59.513  1.00  0.00     0.004 A 
ATOM     31  C   UNL     1      -1.408  48.199  58.996  1.00  0.00     0.004 A 
ATOM     32  C   UNL     1      -0.299  48.247  59.837  1.00  0.00     0.000 A 
ENDBRANCH  26  27
ENDBRANCH  25  26
ENDBRANCH   1  25
TORSDOF 5
ENDMDL
MODEL 6
REMARK VINA RESULT:    -8.704      1.935      5.939
REMARK INTER + INTRA:         -12.930
REMARK INTER:                 -12.048
REMARK INTRA:                  -0.882
REMARK UNBOUND:                -1.682
REMARK SMILES O=C(Nc1nc2ccccc2c(=O)[nH]1)C1CCCN(C(=O)COc2ccccc2)C1
REMARK SMILES IDX 20 1 21 2 19 3 15 4 16 5 30 6 17 7 18 8 2 9 3 10 4 11 5 12
REMARK SMILES IDX 14 13 6 14 12 15 7 16 11 17 8 18 10 19 9 20 1 21 13 24 22 25
REMARK SMILES IDX 23 26 24 27 25 28 29 29 26 30 28 31 27 32
REMARK H PARENT 3 22 14 23
ROOT
ATOM      1  C   UNL     1       2.406  42.589  51.227  1.00  0.00     0.260 C 
ATOM      2  O   UNL     1       1.888  42.276  50.155  1.00  0.00    -0.271 OA
ENDROOT
BRANCH   1   3
ATOM      3  N   UNL     1       1.788  43.515  52.090  1.00  0.00    -0.339 N 
ATOM      4  C   UNL     1       1.607  44.342  54.440  1.00  0.00     0.098 C 
ATOM      5  C   UNL     1       0.521  45.319  53.981  1.00  0.00     0.017 C 
ATOM      6  C   UNL     1       1.719  43.134  53.509  1.00  0.00     0.133 C 
ATOM      7  C   UNL     1       0.611  45.659  52.495  1.00  0.00     0.022 C 
ATOM      8  C   UNL     1       0.725  44.412  51.625  1.00  0.00     0.119 C 
BRANCH   4   9
ATOM      9  C   UNL     1       2.947  45.047  54.645  1.00  0.00     0.231 C 
ATOM     10  N   UNL     1       3.845  44.922  53.603  1.00  0.00    -0.296 N 
ATOM     11  C   UNL     1       5.062  45.509  53.461  1.00  0.00     0.210 C 
ATOM     12  N   UNL     1       5.710  45.255  52.374  1.00  0.00    -0.214 NA
ATOM     13  N   UNL     1       5.511  46.324  54.445  1.00  0.00    -0.292 N 
ATOM     14  C   UNL     1       6.964  45.872  52.211  1.00  0.00     0.080 A 
ATOM     15  C   UNL     1       6.724  46.961  54.397  1.00  0.00     0.260 C 
ATOM     16  C   UNL     1       7.687  45.634  51.041  1.00  0.00     0.029 A 
ATOM     17  C   UNL     1       7.515  46.719  53.177  1.00  0.00     0.066 A 
ATOM     18  C   UNL     1       8.939  46.226  50.846  1.00  0.00     0.002 A 
ATOM     19  C   UNL     1       8.765  47.317  52.993  1.00  0.00     0.016 A 
ATOM     20  C   UNL     1       9.477  47.066  51.821  1.00  0.00     0.001 A 
ATOM     21  O   UNL     1       3.168  45.736  55.640  1.00  0.00    -0.274 OA
ATOM     22  H   UNL     1       3.606  44.307  52.835  1.00  0.00     0.173 HD
ATOM     23  H   UNL     1       4.939  46.463  55.272  1.00  0.00     0.173 HD
ATOM     24  O   UNL     1       7.131  47.685  55.298  1.00  0.00    -0.269 OA
ENDBRANCH   4   9
ENDBRANCH   1   3
BRANCH   1  25
ATOM     25  C   UNL     1       3.716  41.946  51.720  1.00  0.00     0.329 C 
BRANCH  25  26
ATOM     26  O   UNL     1       4.309  40.988  50.856  1.00  0.00    -0.484 OA
BRANCH  26  27
ATOM     27  C   UNL     1       5.012  41.441  49.775  1.00  0.00     0.120 A 
ATOM     28  C   UNL     1       5.987  42.397  50.078  1.00  0.00     0.046 A 
ATOM     29  C   UNL     1       4.829  41.056  48.447  1.00  0.00     0.046 A 
ATOM     30  C   UNL     1       6.776  42.956  49.072  1.00  0.00     0.004 A 
ATOM     31  C   UNL     1       5.613  41.622  47.437  1.00  0.00     0.004 A 
ATOM     32  C   UNL     1       6.588  42.567  47.748  1.00  0.00     0.000 A 
ENDBRANCH  26  27
ENDBRANCH  25  26
ENDBRANCH   1  25
TORSDOF 5
ENDMDL
MODEL 7
REMARK VINA RESULT:    -8.663      2.534      7.424
REMARK INTER + INTRA:         -12.877
REMARK INTER:                 -11.195
REMARK INTRA:                  -1.681
REMARK UNBOUND:                -1.682
REMARK SMILES O=C(Nc1nc2ccccc2c(=O)[nH]1)C1CCCN(C(=O)COc2ccccc2)C1
REMARK SMILES IDX 20 1 21 2 19 3 15 4 16 5 30 6 17 7 18 8 2 9 3 10 4 11 5 12
REMARK SMILES IDX 14 13 6 14 12 15 7 16 11 17 8 18 10 19 9 20 1 21 13 24 22 25
REMARK SMILES IDX 23 26 24 27 25 28 29 29 26 30 28 31 27 32
REMARK H PARENT 3 22 14 23
ROOT
ATOM      1  C   UNL     1       1.111  45.090  56.165  1.00  0.00     0.260 C 
ATOM      2  O   UNL     1       0.702  44.928  57.315  1.00  0.00    -0.271 OA
ENDROOT
BRANCH   1   3
ATOM      3  N   UNL     1       0.291  44.803  55.056  1.00  0.00    -0.339 N 
ATOM      4  C   UNL     1       0.007  45.043  52.586  1.00  0.00     0.098 C 
ATOM      5  C   UNL     1      -1.352  44.345  52.705  1.00  0.00     0.017 C 
ATOM      6  C   UNL     1       0.426  45.702  53.900  1.00  0.00     0.133 C 
ATOM      7  C   UNL     1      -1.458  43.449  53.937  1.00  0.00     0.022 C 
ATOM      8  C   UNL     1      -1.020  44.166  55.210  1.00  0.00     0.119 C 
BRANCH   4   9
ATOM      9  C   UNL     1       1.076  44.100  52.038  1.00  0.00     0.231 C 
ATOM     10  N   UNL     1       2.251  44.707  51.639  1.00  0.00    -0.296 N 
ATOM     11  C   UNL     1       3.400  44.124  51.206  1.00  0.00     0.210 C 
ATOM     12  N   UNL     1       4.380  44.911  50.914  1.00  0.00    -0.214 NA
ATOM     13  N   UNL     1       3.453  42.774  51.120  1.00  0.00    -0.292 N 
ATOM     14  C   UNL     1       5.578  44.316  50.480  1.00  0.00     0.080 A 
ATOM     15  C   UNL     1       4.562  42.092  50.693  1.00  0.00     0.260 C 
ATOM     16  C   UNL     1       6.666  45.134  50.170  1.00  0.00     0.029 A 
ATOM     17  C   UNL     1       5.723  42.931  50.348  1.00  0.00     0.066 A 
ATOM     18  C   UNL     1       7.872  44.577  49.731  1.00  0.00     0.002 A 
ATOM     19  C   UNL     1       6.924  42.364  49.911  1.00  0.00     0.016 A 
ATOM     20  C   UNL     1       8.000  43.194  49.601  1.00  0.00     0.001 A 
ATOM     21  O   UNL     1       0.917  42.880  52.028  1.00  0.00    -0.274 OA
ATOM     22  H   UNL     1       2.293  45.719  51.642  1.00  0.00     0.173 HD
ATOM     23  H   UNL     1       2.630  42.230  51.363  1.00  0.00     0.173 HD
ATOM     24  O   UNL     1       4.598  40.870  50.604  1.00  0.00    -0.269 OA
ENDBRANCH   4   9
ENDBRANCH   1   3
BRANCH   1  25
ATOM     25  C   UNL     1       2.506  45.671  55.868  1.00  0.00     0.329 C 
BRANCH  25  26
ATOM     26  O   UNL     1       3.360  44.873  55.062  1.00  0.00    -0.484 OA
BRANCH  26  27
ATOM     27  C   UNL     1       4.455  45.465  54.498  1.00  0.00     0.120 A 
ATOM     28  C   UNL     1       4.219  46.744  53.982  1.00  0.00     0.046 A 
ATOM     29  C   UNL     1       5.729  44.912  54.382  1.00  0.00     0.046 A 
ATOM     30  C   UNL     1       5.243  47.466  53.367  1.00  0.00     0.004 A 
ATOM     31  C   UNL     1       6.754  45.631  53.759  1.00  0.00     0.004 A 
ATOM     32  C   UNL     1       6.514  46.907  53.255  1.00  0.00     0.000 A 
ENDBRANCH  26  27
ENDBRANCH  25  26
ENDBRANCH   1  25
TORSDOF 5
ENDMDL
MODEL 8
REMARK VINA RESULT:    -8.441      2.235      6.611
REMARK INTER + INTRA:         -12.590
REMARK INTER:                 -11.422
REMARK INTRA:                  -1.167
REMARK UNBOUND:                -1.682
REMARK SMILES O=C(Nc1nc2ccccc2c(=O)[nH]1)C1CCCN(C(=O)COc2ccccc2)C1
REMARK SMILES IDX 20 1 21 2 19 3 15 4 16 5 30 6 17 7 18 8 2 9 3 10 4 11 5 12
REMARK SMILES IDX 14 13 6 14 12 15 7 16 11 17 8 18 10 19 9 20 1 21 13 24 22 25
REMARK SMILES IDX 23 26 24 27 25 28 29 29 26 30 28 31 27 32
REMARK H PARENT 3 22 14 23
ROOT
ATOM      1  C   UNL     1       4.297  47.062  54.775  1.00  0.00     0.260 C 
ATOM      2  O   UNL     1       4.267  48.265  54.517  1.00  0.00    -0.271 OA
ENDROOT
BRANCH   1   3
ATOM      3  N   UNL     1       3.108  46.315  54.893  1.00  0.00    -0.339 N 
ATOM      4  C   UNL     1       1.105  45.425  53.695  1.00  0.00     0.098 C 
ATOM      5  C   UNL     1       0.595  44.866  55.027  1.00  0.00     0.017 C 
ATOM      6  C   UNL     1       2.062  46.600  53.899  1.00  0.00     0.133 C 
ATOM      7  C   UNL     1       1.712  44.618  56.039  1.00  0.00     0.022 C 
ATOM      8  C   UNL     1       2.631  45.825  56.189  1.00  0.00     0.119 C 
BRANCH   4   9
ATOM      9  C   UNL     1       1.706  44.328  52.818  1.00  0.00     0.231 C 
ATOM     10  N   UNL     1       2.923  44.633  52.242  1.00  0.00    -0.296 N 
ATOM     11  C   UNL     1       3.733  43.832  51.501  1.00  0.00     0.210 C 
ATOM     12  N   UNL     1       4.845  44.343  51.091  1.00  0.00    -0.214 NA
ATOM     13  N   UNL     1       3.338  42.561  51.249  1.00  0.00    -0.292 N 
ATOM     14  C   UNL     1       5.696  43.516  50.336  1.00  0.00     0.080 A 
ATOM     15  C   UNL     1       4.081  41.676  50.511  1.00  0.00     0.260 C 
ATOM     16  C   UNL     1       6.915  44.029  49.890  1.00  0.00     0.029 A 
ATOM     17  C   UNL     1       5.369  42.194  50.017  1.00  0.00     0.066 A 
ATOM     18  C   UNL     1       7.785  43.237  49.133  1.00  0.00     0.002 A 
ATOM     19  C   UNL     1       6.230  41.393  49.262  1.00  0.00     0.016 A 
ATOM     20  C   UNL     1       7.442  41.921  48.819  1.00  0.00     0.001 A 
ATOM     21  O   UNL     1       1.168  43.227  52.703  1.00  0.00    -0.274 OA
ATOM     22  H   UNL     1       3.284  45.573  52.352  1.00  0.00     0.173 HD
ATOM     23  H   UNL     1       2.442  42.242  51.605  1.00  0.00     0.173 HD
ATOM     24  O   UNL     1       3.710  40.532  50.276  1.00  0.00    -0.269 OA
ENDBRANCH   4   9
ENDBRANCH   1   3
BRANCH   1  25
ATOM     25  C   UNL     1       5.622  46.290  54.919  1.00  0.00     0.329 C 
BRANCH  25  26
ATOM     26  O   UNL     1       6.804  47.074  54.962  1.00  0.00    -0.484 OA
BRANCH  26  27
ATOM     27  C   UNL     1       7.662  47.007  53.899  1.00  0.00     0.120 A 
ATOM     28  C   UNL     1       9.016  47.082  54.244  1.00  0.00     0.046 A 
ATOM     29  C   UNL     1       7.310  46.895  52.555  1.00  0.00     0.046 A 
ATOM     30  C   UNL     1      10.006  47.037  53.262  1.00  0.00     0.004 A 
ATOM     31  C   UNL     1       8.301  46.858  51.569  1.00  0.00     0.004 A 
ATOM     32  C   UNL     1       9.647  46.925  51.921  1.00  0.00     0.000 A 
ENDBRANCH  26  27
ENDBRANCH  25  26
ENDBRANCH   1  25
TORSDOF 5
ENDMDL
MODEL 9
REMARK VINA RESULT:    -8.320      2.633      8.215
REMARK INTER + INTRA:         -12.433
REMARK INTER:                 -11.531
REMARK INTRA:                  -0.902
REMARK UNBOUND:                -1.682
REMARK SMILES O=C(Nc1nc2ccccc2c(=O)[nH]1)C1CCCN(C(=O)COc2ccccc2)C1
REMARK SMILES IDX 20 1 21 2 19 3 15 4 16 5 30 6 17 7 18 8 2 9 3 10 4 11 5 12
REMARK SMILES IDX 14 13 6 14 12 15 7 16 11 17 8 18 10 19 9 20 1 21 13 24 22 25
REMARK SMILES IDX 23 26 24 27 25 28 29 29 26 30 28 31 27 32
REMARK H PARENT 3 22 14 23
ROOT
ATOM      1  C   UNL     1       2.180  45.307  55.560  1.00  0.00     0.260 C 
ATOM      2  O   UNL     1       3.164  46.013  55.777  1.00  0.00    -0.271 OA
ENDROOT
BRANCH   1   3
ATOM      3  N   UNL     1       1.831  44.928  54.249  1.00  0.00    -0.339 N 
ATOM      4  C   UNL     1       1.745  45.633  51.854  1.00  0.00     0.098 C 
ATOM      5  C   UNL     1       1.076  44.297  51.517  1.00  0.00     0.017 C 
ATOM      6  C   UNL     1       1.530  46.025  53.316  1.00  0.00     0.133 C 
ATOM      7  C   UNL     1       1.389  43.198  52.530  1.00  0.00     0.022 C 
ATOM      8  C   UNL     1       1.159  43.657  53.966  1.00  0.00     0.119 C 
BRANCH   4   9
ATOM      9  C   UNL     1       3.221  45.638  51.459  1.00  0.00     0.231 C 
ATOM     10  N   UNL     1       4.078  46.200  52.385  1.00  0.00    -0.296 N 
ATOM     11  C   UNL     1       5.436  46.259  52.353  1.00  0.00     0.210 C 
ATOM     12  N   UNL     1       6.019  46.818  53.360  1.00  0.00    -0.214 NA
ATOM     13  N   UNL     1       6.086  45.727  51.292  1.00  0.00    -0.292 N 
ATOM     14  C   UNL     1       7.424  46.870  53.343  1.00  0.00     0.080 A 
ATOM     15  C   UNL     1       7.451  45.738  51.165  1.00  0.00     0.260 C 
ATOM     16  C   UNL     1       8.092  47.453  54.422  1.00  0.00     0.029 A 
ATOM     17  C   UNL     1       8.182  46.357  52.285  1.00  0.00     0.066 A 
ATOM     18  C   UNL     1       9.489  47.526  54.438  1.00  0.00     0.002 A 
ATOM     19  C   UNL     1       9.578  46.424  52.290  1.00  0.00     0.016 A 
ATOM     20  C   UNL     1      10.231  47.013  53.373  1.00  0.00     0.001 A 
ATOM     21  O   UNL     1       3.612  45.108  50.420  1.00  0.00    -0.274 OA
ATOM     22  H   UNL     1       3.677  46.650  53.198  1.00  0.00     0.173 HD
ATOM     23  H   UNL     1       5.547  45.312  50.538  1.00  0.00     0.173 HD
ATOM     24  O   UNL     1       8.033  45.267  50.195  1.00  0.00    -0.269 OA
ENDBRANCH   4   9
ENDBRANCH   1   3
BRANCH   1  25
ATOM     25  C   UNL     1       1.312  44.743  56.702  1.00  0.00     0.329 C 
BRANCH  25  26
ATOM     26  O   UNL     1       0.580  45.692  57.461  1.00  0.00    -0.484 OA
BRANCH  26  27
ATOM     27  C   UNL     1      -0.675  46.030  57.037  1.00  0.00     0.120 A 
ATOM     28  C   UNL     1      -1.160  47.230  57.566  1.00  0.00     0.046 A 
ATOM     29  C   UNL     1      -1.483  45.294  56.171  1.00  0.00     0.046 A 
ATOM     30  C   UNL     1      -2.432  47.696  57.228  1.00  0.00     0.004 A 
ATOM     31  C   UNL     1      -2.760  45.756  55.838  1.00  0.00     0.004 A 
ATOM     32  C   UNL     1      -3.234  46.956  56.363  1.00  0.00     0.000 A 
ENDBRANCH  26  27
ENDBRANCH  25  26
ENDBRANCH   1  25
TORSDOF 5
ENDMDL
MODEL 10
REMARK VINA RESULT:    -8.169      4.106      7.061
REMARK INTER + INTRA:         -12.239
REMARK INTER:                 -11.554
REMARK INTRA:                  -0.685
REMARK UNBOUND:                -1.682
REMARK SMILES O=C(Nc1nc2ccccc2c(=O)[nH]1)C1CCCN(C(=O)COc2ccccc2)C1
REMARK SMILES IDX 20 1 21 2 19 3 15 4 16 5 30 6 17 7 18 8 2 9 3 10 4 11 5 12
REMARK SMILES IDX 14 13 6 14 12 15 7 16 11 17 8 18 10 19 9 20 1 21 13 24 22 25
REMARK SMILES IDX 23 26 24 27 25 28 29 29 26 30 28 31 27 32
REMARK H PARENT 3 22 14 23
ROOT
ATOM      1  C   UNL     1       3.994  43.577  52.438  1.00  0.00     0.260 C 
ATOM      2  O   UNL     1       4.256  42.525  51.855  1.00  0.00    -0.271 OA
ENDROOT
BRANCH   1   3
ATOM      3  N   UNL     1       2.665  44.032  52.552  1.00  0.00    -0.339 N 
ATOM      4  C   UNL     1       0.553  43.917  53.881  1.00  0.00     0.098 C 
ATOM      5  C   UNL     1      -0.110  44.833  52.848  1.00  0.00     0.017 C 
ATOM      6  C   UNL     1       1.741  43.157  53.290  1.00  0.00     0.133 C 
ATOM      7  C   UNL     1       0.890  45.698  52.084  1.00  0.00     0.022 C 
ATOM      8  C   UNL     1       2.050  44.879  51.526  1.00  0.00     0.119 C 
BRANCH   4   9
ATOM      9  C   UNL     1       0.923  44.679  55.153  1.00  0.00     0.231 C 
ATOM     10  N   UNL     1      -0.076  45.480  55.672  1.00  0.00    -0.296 N 
ATOM     11  C   UNL     1      -0.072  46.192  56.829  1.00  0.00     0.210 C 
ATOM     12  N   UNL     1      -1.146  46.849  57.114  1.00  0.00    -0.214 NA
ATOM     13  N   UNL     1       1.034  46.163  57.609  1.00  0.00    -0.292 N 
ATOM     14  C   UNL     1      -1.157  47.577  58.318  1.00  0.00     0.080 A 
ATOM     15  C   UNL     1       1.138  46.847  58.792  1.00  0.00     0.260 C 
ATOM     16  C   UNL     1      -2.308  48.286  58.669  1.00  0.00     0.029 A 
ATOM     17  C   UNL     1      -0.058  47.615  59.182  1.00  0.00     0.066 A 
ATOM     18  C   UNL     1      -2.353  49.025  59.856  1.00  0.00     0.002 A 
ATOM     19  C   UNL     1      -0.093  48.349  60.371  1.00  0.00     0.016 A 
ATOM     20  C   UNL     1      -1.247  49.056  60.705  1.00  0.00     0.001 A 
ATOM     21  O   UNL     1       2.011  44.523  55.705  1.00  0.00    -0.274 OA
ATOM     22  H   UNL     1      -0.931  45.586  55.140  1.00  0.00     0.173 HD
ATOM     23  H   UNL     1       1.840  45.625  57.305  1.00  0.00     0.173 HD
ATOM     24  O   UNL     1       2.148  46.828  59.486  1.00  0.00    -0.269 OA
ENDBRANCH   4   9
ENDBRANCH   1   3
BRANCH   1  25
ATOM     25  C   UNL     1       5.081  44.421  53.130  1.00  0.00     0.329 C 
BRANCH  25  26
ATOM     26  O   UNL     1       5.382  45.671  52.529  1.00  0.00    -0.484 OA
BRANCH  26  27
ATOM     27  C   UNL     1       6.598  46.238  52.792  1.00  0.00     0.120 A 
ATOM     28  C   UNL     1       7.387  46.465  51.659  1.00  0.00     0.046 A 
ATOM     29  C   UNL     1       7.100  46.576  54.048  1.00  0.00     0.046 A 
ATOM     30  C   UNL     1       8.658  47.030  51.777  1.00  0.00     0.004 A 
ATOM     31  C   UNL     1       8.376  47.136  54.167  1.00  0.00     0.004 A 
ATOM     32  C   UNL     1       9.153  47.365  53.034  1.00  0.00     0.000 A 
ENDBRANCH  26  27
ENDBRANCH  25  26
ENDBRANCH   1  25
TORSDOF 5
ENDMDL
