MODEL 1
REMARK VINA RESULT:    -7.918      0.000      0.000
REMARK INTER + INTRA:         -12.061
REMARK INTER:                 -10.927
REMARK INTRA:                  -1.135
REMARK UNBOUND:                -1.135
REMARK SMILES O=C(NC(CCO)C1CCCCC1)c1noc(-c2cccnc2)n1
REMARK SMILES IDX 4 1 3 2 2 3 1 4 14 6 15 7 24 8 16 9 17 10 18 11 19 12 23 13
REMARK SMILES IDX 20 14 22 15 21 16 5 17 6 18 7 19 8 21 9 22 13 23 10 24 12 25
REMARK SMILES IDX 11 26
REMARK H PARENT 3 5 7 20
ROOT
ATOM      1  C   UNL     1       6.003  46.343  51.659  1.00  0.00     0.087 C 
ENDROOT
BRANCH   1   2
ATOM      2  N   UNL     1       4.980  45.917  52.604  1.00  0.00    -0.346 N 
ATOM      3  C   UNL     1       3.701  46.448  52.617  1.00  0.00     0.292 C 
ATOM      4  O   UNL     1       3.270  47.180  51.730  1.00  0.00    -0.265 OA
ATOM      5  H   UNL     1       5.293  45.517  53.488  1.00  0.00     0.164 HD
BRANCH   3   6
ATOM      6  C   UNL     1       2.932  46.066  53.812  1.00  0.00     0.260 A 
ATOM      7  N   UNL     1       3.449  46.046  55.051  1.00  0.00    -0.051 NA
ATOM      8  N   UNL     1       1.603  45.671  53.751  1.00  0.00    -0.182 NA
ATOM      9  O   UNL     1       2.386  45.623  55.845  1.00  0.00    -0.333 OA
ATOM     10  C   UNL     1       1.323  45.418  55.012  1.00  0.00     0.259 A 
BRANCH  10  11
ATOM     11  C   UNL     1       0.084  44.961  55.612  1.00  0.00     0.058 A 
ATOM     12  C   UNL     1      -0.842  44.226  54.864  1.00  0.00     0.017 A 
ATOM     13  C   UNL     1      -0.247  45.221  56.940  1.00  0.00     0.124 A 
ATOM     14  C   UNL     1      -2.029  43.791  55.451  1.00  0.00     0.021 A 
ATOM     15  N   UNL     1      -1.393  44.810  57.538  1.00  0.00    -0.264 NA
ATOM     16  C   UNL     1      -2.258  44.104  56.780  1.00  0.00     0.111 A 
ENDBRANCH  10  11
ENDBRANCH   3   6
ENDBRANCH   1   2
BRANCH   1  17
ATOM     17  C   UNL     1       7.219  46.953  52.391  1.00  0.00     0.053 C 
BRANCH  17  18
ATOM     18  C   UNL     1       7.311  46.709  53.893  1.00  0.00     0.158 C 
BRANCH  18  19
ATOM     19  O   UNL     1       6.326  47.455  54.597  1.00  0.00    -0.396 OA
ATOM     20  H   UNL     1       6.065  46.924  55.371  1.00  0.00     0.210 HD
ENDBRANCH  18  19
ENDBRANCH  17  18
ENDBRANCH   1  17
BRANCH   1  21
ATOM     21  C   UNL     1       6.282  45.241  50.599  1.00  0.00     0.011 C 
ATOM     22  C   UNL     1       7.778  44.941  50.429  1.00  0.00     0.006 C 
ATOM     23  C   UNL     1       5.464  43.941  50.767  1.00  0.00     0.006 C 
ATOM     24  C   UNL     1       8.052  44.056  49.209  1.00  0.00     0.000 C 
ATOM     25  C   UNL     1       6.132  42.710  50.149  1.00  0.00     0.000 C 
ATOM     26  C   UNL     1       6.928  43.066  48.903  1.00  0.00     0.000 C 
ENDBRANCH   1  21
TORSDOF 7
ENDMDL
MODEL 2
REMARK VINA RESULT:    -7.784      2.297      8.120
REMARK INTER + INTRA:         -11.877
REMARK INTER:                 -10.883
REMARK INTRA:                  -0.993
REMARK UNBOUND:                -1.135
REMARK SMILES O=C(NC(CCO)C1CCCCC1)c1noc(-c2cccnc2)n1
REMARK SMILES IDX 4 1 3 2 2 3 1 4 14 6 15 7 24 8 16 9 17 10 18 11 19 12 23 13
REMARK SMILES IDX 20 14 22 15 21 16 5 17 6 18 7 19 8 21 9 22 13 23 10 24 12 25
REMARK SMILES IDX 11 26
REMARK H PARENT 3 5 7 20
ROOT
ATOM      1  C   UNL     1       1.116  44.622  53.481  1.00  0.00     0.087 C 
ENDROOT
BRANCH   1   2
ATOM      2  N   UNL     1       2.368  45.297  53.795  1.00  0.00    -0.346 N 
ATOM      3  C   UNL     1       2.763  46.473  53.180  1.00  0.00     0.292 C 
ATOM      4  O   UNL     1       2.019  47.135  52.462  1.00  0.00    -0.265 OA
ATOM      5  H   UNL     1       3.126  44.730  54.174  1.00  0.00     0.164 HD
BRANCH   3   6
ATOM      6  C   UNL     1       4.165  46.823  53.455  1.00  0.00     0.260 A 
ATOM      7  N   UNL     1       4.543  47.656  54.438  1.00  0.00    -0.051 NA
ATOM      8  N   UNL     1       5.220  46.334  52.696  1.00  0.00    -0.182 NA
ATOM      9  O   UNL     1       5.929  47.700  54.318  1.00  0.00    -0.333 OA
ATOM     10  C   UNL     1       6.264  46.895  53.267  1.00  0.00     0.259 A 
BRANCH  10  11
ATOM     11  C   UNL     1       7.673  46.782  52.936  1.00  0.00     0.058 A 
ATOM     12  C   UNL     1       8.653  47.222  53.832  1.00  0.00     0.017 A 
ATOM     13  C   UNL     1       8.120  46.240  51.733  1.00  0.00     0.124 A 
ATOM     14  C   UNL     1      10.003  47.109  53.505  1.00  0.00     0.021 A 
ATOM     15  N   UNL     1       9.426  46.116  51.388  1.00  0.00    -0.264 NA
ATOM     16  C   UNL     1      10.337  46.553  52.282  1.00  0.00     0.111 A 
ENDBRANCH  10  11
ENDBRANCH   3   6
ENDBRANCH   1   2
BRANCH   1  17
ATOM     17  C   UNL     1       1.364  43.159  53.049  1.00  0.00     0.053 C 
BRANCH  17  18
ATOM     18  C   UNL     1       2.628  42.885  52.243  1.00  0.00     0.158 C 
BRANCH  18  19
ATOM     19  O   UNL     1       3.776  42.844  53.082  1.00  0.00    -0.396 OA
ATOM     20  H   UNL     1       4.543  43.068  52.526  1.00  0.00     0.210 HD
ENDBRANCH  18  19
ENDBRANCH  17  18
ENDBRANCH   1  17
BRANCH   1  21
ATOM     21  C   UNL     1       0.051  44.874  54.585  1.00  0.00     0.011 C 
ATOM     22  C   UNL     1      -0.940  43.712  54.735  1.00  0.00     0.006 C 
ATOM     23  C   UNL     1       0.612  45.315  55.955  1.00  0.00     0.006 C 
ATOM     24  C   UNL     1      -2.128  44.081  55.628  1.00  0.00     0.000 C 
ATOM     25  C   UNL     1      -0.311  44.986  57.132  1.00  0.00     0.000 C 
ATOM     26  C   UNL     1      -1.778  45.071  56.739  1.00  0.00     0.000 C 
ENDBRANCH   1  21
TORSDOF 7
ENDMDL
MODEL 3
REMARK VINA RESULT:    -7.547      2.809      7.614
REMARK INTER + INTRA:         -11.550
REMARK INTER:                 -10.409
REMARK INTRA:                  -1.141
REMARK UNBOUND:                -1.135
REMARK SMILES O=C(NC(CCO)C1CCCCC1)c1noc(-c2cccnc2)n1
REMARK SMILES IDX 4 1 3 2 2 3 1 4 14 6 15 7 24 8 16 9 17 10 18 11 19 12 23 13
REMARK SMILES IDX 20 14 22 15 21 16 5 17 6 18 7 19 8 21 9 22 13 23 10 24 12 25
REMARK SMILES IDX 11 26
REMARK H PARENT 3 5 7 20
ROOT
ATOM      1  C   UNL     1       1.242  43.739  53.150  1.00  0.00     0.087 C 
ENDROOT
BRANCH   1   2
ATOM      2  N   UNL     1       2.494  44.324  52.688  1.00  0.00    -0.346 N 
ATOM      3  C   UNL     1       3.553  43.562  52.224  1.00  0.00     0.292 C 
ATOM      4  O   UNL     1       3.463  42.360  51.992  1.00  0.00    -0.265 OA
ATOM      5  H   UNL     1       2.747  45.242  53.052  1.00  0.00     0.164 HD
BRANCH   3   6
ATOM      6  C   UNL     1       4.794  44.337  52.068  1.00  0.00     0.260 A 
ATOM      7  N   UNL     1       5.394  44.546  50.885  1.00  0.00    -0.051 NA
ATOM      8  N   UNL     1       5.463  44.901  53.145  1.00  0.00    -0.182 NA
ATOM      9  O   UNL     1       6.516  45.303  51.214  1.00  0.00    -0.333 OA
ATOM     10  C   UNL     1       6.496  45.477  52.568  1.00  0.00     0.259 A 
BRANCH  10  11
ATOM     11  C   UNL     1       7.582  46.238  53.159  1.00  0.00     0.058 A 
ATOM     12  C   UNL     1       8.829  46.307  52.529  1.00  0.00     0.017 A 
ATOM     13  C   UNL     1       7.446  46.929  54.360  1.00  0.00     0.124 A 
ATOM     14  C   UNL     1       9.864  47.042  53.103  1.00  0.00     0.021 A 
ATOM     15  N   UNL     1       8.435  47.652  54.943  1.00  0.00    -0.264 NA
ATOM     16  C   UNL     1       9.621  47.692  54.301  1.00  0.00     0.111 A 
ENDBRANCH  10  11
ENDBRANCH   3   6
ENDBRANCH   1   2
BRANCH   1  17
ATOM     17  C   UNL     1       0.954  44.125  54.618  1.00  0.00     0.053 C 
BRANCH  17  18
ATOM     18  C   UNL     1       1.854  45.186  55.239  1.00  0.00     0.158 C 
BRANCH  18  19
ATOM     19  O   UNL     1       3.154  44.673  55.497  1.00  0.00    -0.396 OA
ATOM     20  H   UNL     1       3.115  44.214  56.355  1.00  0.00     0.210 HD
ENDBRANCH  18  19
ENDBRANCH  17  18
ENDBRANCH   1  17
BRANCH   1  21
ATOM     21  C   UNL     1       0.105  43.959  52.113  1.00  0.00     0.011 C 
ATOM     22  C   UNL     1      -0.836  42.752  51.994  1.00  0.00     0.006 C 
ATOM     23  C   UNL     1      -0.688  45.276  52.271  1.00  0.00     0.006 C 
ATOM     24  C   UNL     1      -1.780  42.875  50.794  1.00  0.00     0.000 C 
ATOM     25  C   UNL     1      -2.102  45.215  51.689  1.00  0.00     0.000 C 
ATOM     26  C   UNL     1      -2.171  44.316  50.465  1.00  0.00     0.000 C 
ENDBRANCH   1  21
TORSDOF 7
ENDMDL
MODEL 4
REMARK VINA RESULT:    -7.460      2.674      8.171
REMARK INTER + INTRA:         -11.430
REMARK INTER:                 -10.761
REMARK INTRA:                  -0.669
REMARK UNBOUND:                -1.135
REMARK SMILES O=C(NC(CCO)C1CCCCC1)c1noc(-c2cccnc2)n1
REMARK SMILES IDX 4 1 3 2 2 3 1 4 14 6 15 7 24 8 16 9 17 10 18 11 19 12 23 13
REMARK SMILES IDX 20 14 22 15 21 16 5 17 6 18 7 19 8 21 9 22 13 23 10 24 12 25
REMARK SMILES IDX 11 26
REMARK H PARENT 3 5 7 20
ROOT
ATOM      1  C   UNL     1       1.166  44.596  53.490  1.00  0.00     0.087 C 
ENDROOT
BRANCH   1   2
ATOM      2  N   UNL     1       2.457  45.162  53.121  1.00  0.00    -0.346 N 
ATOM      3  C   UNL     1       2.917  45.196  51.815  1.00  0.00     0.292 C 
ATOM      4  O   UNL     1       2.211  44.923  50.848  1.00  0.00    -0.265 OA
ATOM      5  H   UNL     1       3.182  45.188  53.837  1.00  0.00     0.164 HD
BRANCH   3   6
ATOM      6  C   UNL     1       4.338  45.563  51.715  1.00  0.00     0.260 A 
ATOM      7  N   UNL     1       5.010  45.620  50.554  1.00  0.00    -0.051 NA
ATOM      8  N   UNL     1       5.114  45.860  52.828  1.00  0.00    -0.182 NA
ATOM      9  O   UNL     1       6.297  45.989  50.935  1.00  0.00    -0.333 OA
ATOM     10  C   UNL     1       6.289  46.115  52.296  1.00  0.00     0.259 A 
BRANCH  10  11
ATOM     11  C   UNL     1       7.536  46.490  52.938  1.00  0.00     0.058 A 
ATOM     12  C   UNL     1       8.743  46.443  52.233  1.00  0.00     0.017 A 
ATOM     13  C   UNL     1       7.599  46.910  54.264  1.00  0.00     0.124 A 
ATOM     14  C   UNL     1       9.934  46.807  52.859  1.00  0.00     0.021 A 
ATOM     15  N   UNL     1       8.742  47.270  54.900  1.00  0.00    -0.264 NA
ATOM     16  C   UNL     1       9.883  47.211  54.182  1.00  0.00     0.111 A 
ENDBRANCH  10  11
ENDBRANCH   3   6
ENDBRANCH   1   2
BRANCH   1  17
ATOM     17  C   UNL     1       1.217  43.051  53.498  1.00  0.00     0.053 C 
BRANCH  17  18
ATOM     18  C   UNL     1       0.190  42.325  52.638  1.00  0.00     0.158 C 
BRANCH  18  19
ATOM     19  O   UNL     1      -0.234  41.115  53.253  1.00  0.00    -0.396 OA
ATOM     20  H   UNL     1      -0.919  41.351  53.904  1.00  0.00     0.210 HD
ENDBRANCH  18  19
ENDBRANCH  17  18
ENDBRANCH   1  17
BRANCH   1  21
ATOM     21  C   UNL     1       0.583  45.302  54.745  1.00  0.00     0.011 C 
ATOM     22  C   UNL     1      -0.790  44.753  55.155  1.00  0.00     0.006 C 
ATOM     23  C   UNL     1       1.537  45.390  55.957  1.00  0.00     0.006 C 
ATOM     24  C   UNL     1      -1.465  45.626  56.217  1.00  0.00     0.000 C 
ATOM     25  C   UNL     1       0.814  45.517  57.301  1.00  0.00     0.000 C 
ATOM     26  C   UNL     1      -0.482  46.302  57.172  1.00  0.00     0.000 C 
ENDBRANCH   1  21
TORSDOF 7
ENDMDL
MODEL 5
REMARK VINA RESULT:    -7.454      1.895      3.034
REMARK INTER + INTRA:         -11.422
REMARK INTER:                 -10.732
REMARK INTRA:                  -0.690
REMARK UNBOUND:                -1.135
REMARK SMILES O=C(NC(CCO)C1CCCCC1)c1noc(-c2cccnc2)n1
REMARK SMILES IDX 4 1 3 2 2 3 1 4 14 6 15 7 24 8 16 9 17 10 18 11 19 12 23 13
REMARK SMILES IDX 20 14 22 15 21 16 5 17 6 18 7 19 8 21 9 22 13 23 10 24 12 25
REMARK SMILES IDX 11 26
REMARK H PARENT 3 5 7 20
ROOT
ATOM      1  C   UNL     1       5.937  45.469  52.256  1.00  0.00     0.087 C 
ENDROOT
BRANCH   1   2
ATOM      2  N   UNL     1       4.993  45.576  53.360  1.00  0.00    -0.346 N 
ATOM      3  C   UNL     1       4.059  44.595  53.648  1.00  0.00     0.292 C 
ATOM      4  O   UNL     1       4.068  43.486  53.121  1.00  0.00    -0.265 OA
ATOM      5  H   UNL     1       4.752  46.512  53.685  1.00  0.00     0.164 HD
BRANCH   3   6
ATOM      6  C   UNL     1       3.048  45.031  54.624  1.00  0.00     0.260 A 
ATOM      7  N   UNL     1       3.298  45.911  55.608  1.00  0.00    -0.051 NA
ATOM      8  N   UNL     1       1.747  44.547  54.620  1.00  0.00    -0.182 NA
ATOM      9  O   UNL     1       2.080  46.012  56.276  1.00  0.00    -0.333 OA
ATOM     10  C   UNL     1       1.205  45.178  55.639  1.00  0.00     0.259 A 
BRANCH  10  11
ATOM     11  C   UNL     1      -0.146  45.105  56.162  1.00  0.00     0.058 A 
ATOM     12  C   UNL     1      -1.055  44.168  55.659  1.00  0.00     0.017 A 
ATOM     13  C   UNL     1      -0.605  45.944  57.175  1.00  0.00     0.124 A 
ATOM     14  C   UNL     1      -2.351  44.105  56.170  1.00  0.00     0.021 A 
ATOM     15  N   UNL     1      -1.859  45.906  57.692  1.00  0.00    -0.264 NA
ATOM     16  C   UNL     1      -2.703  44.986  57.177  1.00  0.00     0.111 A 
ENDBRANCH  10  11
ENDBRANCH   3   6
ENDBRANCH   1   2
BRANCH   1  17
ATOM     17  C   UNL     1       5.364  46.103  50.969  1.00  0.00     0.053 C 
BRANCH  17  18
ATOM     18  C   UNL     1       3.848  46.092  50.813  1.00  0.00     0.158 C 
BRANCH  18  19
ATOM     19  O   UNL     1       3.251  47.181  51.503  1.00  0.00    -0.396 OA
ATOM     20  H   UNL     1       2.536  46.814  52.053  1.00  0.00     0.210 HD
ENDBRANCH  18  19
ENDBRANCH  17  18
ENDBRANCH   1  17
BRANCH   1  21
ATOM     21  C   UNL     1       7.364  45.901  52.696  1.00  0.00     0.011 C 
ATOM     22  C   UNL     1       8.118  46.670  51.602  1.00  0.00     0.006 C 
ATOM     23  C   UNL     1       7.444  46.632  54.054  1.00  0.00     0.006 C 
ATOM     24  C   UNL     1       9.599  46.855  51.946  1.00  0.00     0.000 C 
ATOM     25  C   UNL     1       8.667  47.544  54.190  1.00  0.00     0.000 C 
ATOM     26  C   UNL     1       9.871  46.989  53.445  1.00  0.00     0.000 C 
ENDBRANCH   1  21
TORSDOF 7
ENDMDL
MODEL 6
REMARK VINA RESULT:    -7.408      2.289      7.440
REMARK INTER + INTRA:         -11.358
REMARK INTER:                 -10.922
REMARK INTRA:                  -0.436
REMARK UNBOUND:                -1.135
REMARK SMILES O=C(NC(CCO)C1CCCCC1)c1noc(-c2cccnc2)n1
REMARK SMILES IDX 4 1 3 2 2 3 1 4 14 6 15 7 24 8 16 9 17 10 18 11 19 12 23 13
REMARK SMILES IDX 20 14 22 15 21 16 5 17 6 18 7 19 8 21 9 22 13 23 10 24 12 25
REMARK SMILES IDX 11 26
REMARK H PARENT 3 5 7 20
ROOT
ATOM      1  C   UNL     1       1.408  44.583  54.903  1.00  0.00     0.087 C 
ENDROOT
BRANCH   1   2
ATOM      2  N   UNL     1       2.681  45.290  54.882  1.00  0.00    -0.346 N 
ATOM      3  C   UNL     1       2.984  46.265  53.947  1.00  0.00     0.292 C 
ATOM      4  O   UNL     1       2.150  46.740  53.180  1.00  0.00    -0.265 OA
ATOM      5  H   UNL     1       3.486  44.822  55.297  1.00  0.00     0.164 HD
BRANCH   3   6
ATOM      6  C   UNL     1       4.405  46.645  53.951  1.00  0.00     0.260 A 
ATOM      7  N   UNL     1       4.919  47.585  54.761  1.00  0.00    -0.051 NA
ATOM      8  N   UNL     1       5.335  46.072  53.094  1.00  0.00    -0.182 NA
ATOM      9  O   UNL     1       6.268  47.616  54.416  1.00  0.00    -0.333 OA
ATOM     10  C   UNL     1       6.446  46.695  53.422  1.00  0.00     0.259 A 
BRANCH  10  11
ATOM     11  C   UNL     1       7.786  46.545  52.885  1.00  0.00     0.058 A 
ATOM     12  C   UNL     1       8.899  46.966  53.619  1.00  0.00     0.017 A 
ATOM     13  C   UNL     1       8.034  45.986  51.633  1.00  0.00     0.124 A 
ATOM     14  C   UNL     1      10.182  46.817  53.094  1.00  0.00     0.021 A 
ATOM     15  N   UNL     1       9.270  45.827  51.097  1.00  0.00    -0.264 NA
ATOM     16  C   UNL     1      10.315  46.246  51.840  1.00  0.00     0.111 A 
ENDBRANCH  10  11
ENDBRANCH   3   6
ENDBRANCH   1   2
BRANCH   1  17
ATOM     17  C   UNL     1       0.374  45.322  55.783  1.00  0.00     0.053 C 
BRANCH  17  18
ATOM     18  C   UNL     1       0.707  45.462  57.264  1.00  0.00     0.158 C 
BRANCH  18  19
ATOM     19  O   UNL     1       1.835  46.305  57.461  1.00  0.00    -0.396 OA
ATOM     20  H   UNL     1       2.441  45.835  58.061  1.00  0.00     0.210 HD
ENDBRANCH  18  19
ENDBRANCH  17  18
ENDBRANCH   1  17
BRANCH   1  21
ATOM     21  C   UNL     1       0.969  44.175  53.470  1.00  0.00     0.011 C 
ATOM     22  C   UNL     1       1.788  43.006  52.905  1.00  0.00     0.006 C 
ATOM     23  C   UNL     1      -0.547  43.941  53.283  1.00  0.00     0.006 C 
ATOM     24  C   UNL     1       1.529  42.792  51.410  1.00  0.00     0.000 C 
ATOM     25  C   UNL     1      -0.886  43.005  52.120  1.00  0.00     0.000 C 
ATOM     26  C   UNL     1       0.106  43.143  50.976  1.00  0.00     0.000 C 
ENDBRANCH   1  21
TORSDOF 7
ENDMDL
MODEL 7
REMARK VINA RESULT:    -7.375      2.725      3.766
REMARK INTER + INTRA:         -11.312
REMARK INTER:                 -10.310
REMARK INTRA:                  -1.002
REMARK UNBOUND:                -1.135
REMARK SMILES O=C(NC(CCO)C1CCCCC1)c1noc(-c2cccnc2)n1
REMARK SMILES IDX 4 1 3 2 2 3 1 4 14 6 15 7 24 8 16 9 17 10 18 11 19 12 23 13
REMARK SMILES IDX 20 14 22 15 21 16 5 17 6 18 7 19 8 21 9 22 13 23 10 24 12 25
REMARK SMILES IDX 11 26
REMARK H PARENT 3 5 7 20
ROOT
ATOM      1  C   UNL     1       5.643  46.964  53.663  1.00  0.00     0.087 C 
ENDROOT
BRANCH   1   2
ATOM      2  N   UNL     1       4.639  46.248  52.887  1.00  0.00    -0.346 N 
ATOM      3  C   UNL     1       3.409  46.795  52.563  1.00  0.00     0.292 C 
ATOM      4  O   UNL     1       3.134  47.978  52.740  1.00  0.00    -0.265 OA
ATOM      5  H   UNL     1       4.670  45.229  52.904  1.00  0.00     0.164 HD
BRANCH   3   6
ATOM      6  C   UNL     1       2.467  45.807  52.015  1.00  0.00     0.260 A 
ATOM      7  N   UNL     1       2.777  44.958  51.021  1.00  0.00    -0.051 NA
ATOM      8  N   UNL     1       1.161  45.686  52.470  1.00  0.00    -0.182 NA
ATOM      9  O   UNL     1       1.603  44.234  50.828  1.00  0.00    -0.333 OA
ATOM     10  C   UNL     1       0.686  44.716  51.719  1.00  0.00     0.259 A 
BRANCH  10  11
ATOM     11  C   UNL     1      -0.635  44.117  51.706  1.00  0.00     0.058 A 
ATOM     12  C   UNL     1      -1.091  43.420  50.581  1.00  0.00     0.017 A 
ATOM     13  C   UNL     1      -1.507  44.199  52.789  1.00  0.00     0.124 A 
ATOM     14  C   UNL     1      -2.361  42.847  50.580  1.00  0.00     0.021 A 
ATOM     15  N   UNL     1      -2.748  43.652  52.816  1.00  0.00    -0.264 NA
ATOM     16  C   UNL     1      -3.146  42.988  51.711  1.00  0.00     0.111 A 
ENDBRANCH  10  11
ENDBRANCH   3   6
ENDBRANCH   1   2
BRANCH   1  17
ATOM     17  C   UNL     1       5.704  46.440  55.115  1.00  0.00     0.053 C 
BRANCH  17  18
ATOM     18  C   UNL     1       5.306  44.986  55.339  1.00  0.00     0.158 C 
BRANCH  18  19
ATOM     19  O   UNL     1       3.916  44.868  55.614  1.00  0.00    -0.396 OA
ATOM     20  H   UNL     1       3.583  45.766  55.788  1.00  0.00     0.210 HD
ENDBRANCH  18  19
ENDBRANCH  17  18
ENDBRANCH   1  17
BRANCH   1  21
ATOM     21  C   UNL     1       6.982  47.073  52.882  1.00  0.00     0.011 C 
ATOM     22  C   UNL     1       8.213  46.867  53.776  1.00  0.00     0.006 C 
ATOM     23  C   UNL     1       7.071  46.216  51.599  1.00  0.00     0.006 C 
ATOM     24  C   UNL     1       9.514  47.237  53.057  1.00  0.00     0.000 C 
ATOM     25  C   UNL     1       8.504  45.863  51.193  1.00  0.00     0.000 C 
ATOM     26  C   UNL     1       9.482  46.971  51.552  1.00  0.00     0.000 C 
ENDBRANCH   1  21
TORSDOF 7
ENDMDL
MODEL 8
REMARK VINA RESULT:    -7.356      1.467      1.679
REMARK INTER + INTRA:         -11.287
REMARK INTER:                 -10.299
REMARK INTRA:                  -0.988
REMARK UNBOUND:                -1.135
REMARK SMILES O=C(NC(CCO)C1CCCCC1)c1noc(-c2cccnc2)n1
REMARK SMILES IDX 4 1 3 2 2 3 1 4 14 6 15 7 24 8 16 9 17 10 18 11 19 12 23 13
REMARK SMILES IDX 20 14 22 15 21 16 5 17 6 18 7 19 8 21 9 22 13 23 10 24 12 25
REMARK SMILES IDX 11 26
REMARK H PARENT 3 5 7 20
ROOT
ATOM      1  C   UNL     1       5.589  45.740  51.696  1.00  0.00     0.087 C 
ENDROOT
BRANCH   1   2
ATOM      2  N   UNL     1       4.253  45.241  51.993  1.00  0.00    -0.346 N 
ATOM      3  C   UNL     1       3.106  45.797  51.451  1.00  0.00     0.292 C 
ATOM      4  O   UNL     1       3.127  46.628  50.547  1.00  0.00    -0.265 OA
ATOM      5  H   UNL     1       4.120  44.745  52.873  1.00  0.00     0.164 HD
BRANCH   3   6
ATOM      6  C   UNL     1       1.874  45.312  52.092  1.00  0.00     0.260 A 
ATOM      7  N   UNL     1       0.870  44.726  51.420  1.00  0.00    -0.051 NA
ATOM      8  N   UNL     1       1.637  45.443  53.454  1.00  0.00    -0.182 NA
ATOM      9  O   UNL     1      -0.071  44.448  52.408  1.00  0.00    -0.333 OA
ATOM     10  C   UNL     1       0.447  44.899  53.589  1.00  0.00     0.259 A 
BRANCH  10  11
ATOM     11  C   UNL     1      -0.363  44.727  54.781  1.00  0.00     0.058 A 
ATOM     12  C   UNL     1      -1.642  44.167  54.699  1.00  0.00     0.017 A 
ATOM     13  C   UNL     1       0.079  45.101  56.048  1.00  0.00     0.124 A 
ATOM     14  C   UNL     1      -2.411  44.005  55.850  1.00  0.00     0.021 A 
ATOM     15  N   UNL     1      -0.646  44.956  57.186  1.00  0.00    -0.264 NA
ATOM     16  C   UNL     1      -1.874  44.411  57.060  1.00  0.00     0.111 A 
ENDBRANCH  10  11
ENDBRANCH   3   6
ENDBRANCH   1   2
BRANCH   1  17
ATOM     17  C   UNL     1       6.410  45.939  52.991  1.00  0.00     0.053 C 
BRANCH  17  18
ATOM     18  C   UNL     1       5.737  46.712  54.119  1.00  0.00     0.158 C 
BRANCH  18  19
ATOM     19  O   UNL     1       5.011  47.828  53.619  1.00  0.00    -0.396 OA
ATOM     20  H   UNL     1       5.398  48.624  54.025  1.00  0.00     0.210 HD
ENDBRANCH  18  19
ENDBRANCH  17  18
ENDBRANCH   1  17
BRANCH   1  21
ATOM     21  C   UNL     1       6.248  44.928  50.547  1.00  0.00     0.011 C 
ATOM     22  C   UNL     1       7.782  44.988  50.576  1.00  0.00     0.006 C 
ATOM     23  C   UNL     1       5.746  43.475  50.391  1.00  0.00     0.006 C 
ATOM     24  C   UNL     1       8.404  44.414  49.300  1.00  0.00     0.000 C 
ATOM     25  C   UNL     1       6.757  42.545  49.716  1.00  0.00     0.000 C 
ATOM     26  C   UNL     1       7.593  43.277  48.678  1.00  0.00     0.000 C 
ENDBRANCH   1  21
TORSDOF 7
ENDMDL
MODEL 9
REMARK VINA RESULT:    -7.286      2.026      3.325
REMARK INTER + INTRA:         -11.189
REMARK INTER:                 -10.615
REMARK INTRA:                  -0.574
REMARK UNBOUND:                -1.135
REMARK SMILES O=C(NC(CCO)C1CCCCC1)c1noc(-c2cccnc2)n1
REMARK SMILES IDX 4 1 3 2 2 3 1 4 14 6 15 7 24 8 16 9 17 10 18 11 19 12 23 13
REMARK SMILES IDX 20 14 22 15 21 16 5 17 6 18 7 19 8 21 9 22 13 23 10 24 12 25
REMARK SMILES IDX 11 26
REMARK H PARENT 3 5 7 20
ROOT
ATOM      1  C   UNL     1       6.252  44.821  51.647  1.00  0.00     0.087 C 
ENDROOT
BRANCH   1   2
ATOM      2  N   UNL     1       4.947  45.184  52.183  1.00  0.00    -0.346 N 
ATOM      3  C   UNL     1       4.519  44.800  53.443  1.00  0.00     0.292 C 
ATOM      4  O   UNL     1       5.260  44.284  54.274  1.00  0.00    -0.265 OA
ATOM      5  H   UNL     1       4.204  45.388  51.516  1.00  0.00     0.164 HD
BRANCH   3   6
ATOM      6  C   UNL     1       3.086  45.048  53.663  1.00  0.00     0.260 A 
ATOM      7  N   UNL     1       2.266  45.545  52.723  1.00  0.00    -0.051 NA
ATOM      8  N   UNL     1       2.463  44.808  54.881  1.00  0.00    -0.182 NA
ATOM      9  O   UNL     1       1.033  45.620  53.366  1.00  0.00    -0.333 OA
ATOM     10  C   UNL     1       1.221  45.168  54.642  1.00  0.00     0.259 A 
BRANCH  10  11
ATOM     11  C   UNL     1       0.067  45.157  55.522  1.00  0.00     0.058 A 
ATOM     12  C   UNL     1      -1.121  44.530  55.132  1.00  0.00     0.017 A 
ATOM     13  C   UNL     1       0.077  45.757  56.779  1.00  0.00     0.124 A 
ATOM     14  C   UNL     1      -2.223  44.523  55.985  1.00  0.00     0.021 A 
ATOM     15  N   UNL     1      -0.979  45.767  57.631  1.00  0.00    -0.264 NA
ATOM     16  C   UNL     1      -2.104  45.150  57.214  1.00  0.00     0.111 A 
ENDBRANCH  10  11
ENDBRANCH   3   6
ENDBRANCH   1   2
BRANCH   1  17
ATOM     17  C   UNL     1       6.179  44.569  50.124  1.00  0.00     0.053 C 
BRANCH  17  18
ATOM     18  C   UNL     1       6.481  43.154  49.646  1.00  0.00     0.158 C 
BRANCH  18  19
ATOM     19  O   UNL     1       7.705  43.104  48.923  1.00  0.00    -0.396 OA
ATOM     20  H   UNL     1       8.001  44.024  48.799  1.00  0.00     0.210 HD
ENDBRANCH  18  19
ENDBRANCH  17  18
ENDBRANCH   1  17
BRANCH   1  21
ATOM     21  C   UNL     1       7.358  45.783  52.164  1.00  0.00     0.011 C 
ATOM     22  C   UNL     1       8.634  45.739  51.312  1.00  0.00     0.006 C 
ATOM     23  C   UNL     1       6.903  47.237  52.418  1.00  0.00     0.006 C 
ATOM     24  C   UNL     1       9.796  46.482  51.977  1.00  0.00     0.000 C 
ATOM     25  C   UNL     1       8.039  48.260  52.336  1.00  0.00     0.000 C 
ATOM     26  C   UNL     1       9.358  47.679  52.820  1.00  0.00     0.000 C 
ENDBRANCH   1  21
TORSDOF 7
ENDMDL
MODEL 10
REMARK VINA RESULT:    -7.139      2.755      4.167
REMARK INTER + INTRA:         -10.986
REMARK INTER:                 -10.347
REMARK INTRA:                  -0.639
REMARK UNBOUND:                -1.135
REMARK SMILES O=C(NC(CCO)C1CCCCC1)c1noc(-c2cccnc2)n1
REMARK SMILES IDX 4 1 3 2 2 3 1 4 14 6 15 7 24 8 16 9 17 10 18 11 19 12 23 13
REMARK SMILES IDX 20 14 22 15 21 16 5 17 6 18 7 19 8 21 9 22 13 23 10 24 12 25
REMARK SMILES IDX 11 26
REMARK H PARENT 3 5 7 20
ROOT
ATOM      1  C   UNL     1       6.441  45.113  51.464  1.00  0.00     0.087 C 
ENDROOT
BRANCH   1   2
ATOM      2  N   UNL     1       5.042  45.422  51.729  1.00  0.00    -0.346 N 
ATOM      3  C   UNL     1       4.253  44.665  52.579  1.00  0.00     0.292 C 
ATOM      4  O   UNL     1       4.706  43.791  53.312  1.00  0.00    -0.265 OA
ATOM      5  H   UNL     1       4.534  45.949  51.020  1.00  0.00     0.164 HD
BRANCH   3   6
ATOM      6  C   UNL     1       2.824  44.999  52.486  1.00  0.00     0.260 A 
ATOM      7  N   UNL     1       2.361  46.254  52.364  1.00  0.00    -0.051 NA
ATOM      8  N   UNL     1       1.825  44.036  52.541  1.00  0.00    -0.182 NA
ATOM      9  O   UNL     1       0.979  46.094  52.325  1.00  0.00    -0.333 OA
ATOM     10  C   UNL     1       0.729  44.755  52.435  1.00  0.00     0.259 A 
BRANCH  10  11
ATOM     11  C   UNL     1      -0.659  44.333  52.426  1.00  0.00     0.058 A 
ATOM     12  C   UNL     1      -1.691  45.275  52.498  1.00  0.00     0.017 A 
ATOM     13  C   UNL     1      -1.035  42.994  52.347  1.00  0.00     0.124 A 
ATOM     14  C   UNL     1      -3.021  44.858  52.488  1.00  0.00     0.021 A 
ATOM     15  N   UNL     1      -2.320  42.559  52.335  1.00  0.00    -0.264 NA
ATOM     16  C   UNL     1      -3.283  43.502  52.405  1.00  0.00     0.111 A 
ENDBRANCH  10  11
ENDBRANCH   3   6
ENDBRANCH   1   2
BRANCH   1  17
ATOM     17  C   UNL     1       6.675  44.829  49.964  1.00  0.00     0.053 C 
BRANCH  17  18
ATOM     18  C   UNL     1       7.094  43.412  49.590  1.00  0.00     0.158 C 
BRANCH  18  19
ATOM     19  O   UNL     1       8.357  43.403  48.936  1.00  0.00    -0.396 OA
ATOM     20  H   UNL     1       9.038  43.395  49.632  1.00  0.00     0.210 HD
ENDBRANCH  18  19
ENDBRANCH  17  18
ENDBRANCH   1  17
BRANCH   1  21
ATOM     21  C   UNL     1       7.382  46.139  52.156  1.00  0.00     0.011 C 
ATOM     22  C   UNL     1       7.394  46.002  53.685  1.00  0.00     0.006 C 
ATOM     23  C   UNL     1       8.817  46.208  51.587  1.00  0.00     0.006 C 
ATOM     24  C   UNL     1       8.108  47.175  54.362  1.00  0.00     0.000 C 
ATOM     25  C   UNL     1       9.851  46.726  52.590  1.00  0.00     0.000 C 
ATOM     26  C   UNL     1       9.255  47.757  53.535  1.00  0.00     0.000 C 
ENDBRANCH   1  21
TORSDOF 7
ENDMDL
