MODEL 1
REMARK VINA RESULT:    -9.334      0.000      0.000
REMARK INTER + INTRA:         -12.980
REMARK INTER:                 -12.062
REMARK INTRA:                  -0.917
REMARK UNBOUND:                -0.917
REMARK SMILES O=C(Cc1c[nH]c2ncccc12)N1CCC(COc2ccccc2)CC1
REMARK SMILES IDX 1 1 2 2 13 3 14 4 15 5 16 6 25 7 26 8 3 9 4 10 5 11 12 12
REMARK SMILES IDX 6 13 11 14 7 15 10 16 8 17 9 18 17 20 18 21 19 22 20 23
REMARK SMILES IDX 24 24 21 25 23 26 22 27
REMARK H PARENT 6 19
ROOT
ATOM      1  O   UNL     1       0.633  45.303  51.910  1.00  0.00    -0.275 OA
ATOM      2  C   UNL     1       1.532  44.708  52.507  1.00  0.00     0.227 C 
ATOM      3  N   UNL     1       2.865  44.836  52.102  1.00  0.00    -0.342 N 
ATOM      4  C   UNL     1       3.144  45.769  51.014  1.00  0.00     0.120 C 
ATOM      5  C   UNL     1       4.635  45.985  50.781  1.00  0.00     0.028 C 
ATOM      6  C   UNL     1       5.349  44.644  50.555  1.00  0.00     0.030 C 
ATOM      7  C   UNL     1       4.940  43.586  51.600  1.00  0.00     0.028 C 
ATOM      8  C   UNL     1       4.001  44.121  52.681  1.00  0.00     0.120 C 
ENDROOT
BRANCH   2   9
ATOM      9  C   UNL     1       1.259  43.797  53.704  1.00  0.00     0.138 C 
BRANCH   9  10
ATOM     10  C   UNL     1       1.055  44.529  54.996  1.00  0.00    -0.012 A 
ATOM     11  C   UNL     1       2.046  45.005  55.840  1.00  0.00     0.089 A 
ATOM     12  C   UNL     1      -0.197  44.894  55.587  1.00  0.00     0.022 A 
ATOM     13  N   UNL     1       1.445  45.622  56.905  1.00  0.00    -0.346 N 
ATOM     14  C   UNL     1      -1.554  44.721  55.260  1.00  0.00     0.014 A 
ATOM     15  C   UNL     1       0.087  45.577  56.764  1.00  0.00     0.137 A 
ATOM     16  C   UNL     1      -2.504  45.245  56.138  1.00  0.00     0.021 A 
ATOM     17  N   UNL     1      -0.784  46.110  57.641  1.00  0.00    -0.239 NA
ATOM     18  C   UNL     1      -2.073  45.911  57.281  1.00  0.00     0.113 A 
ATOM     19  H   UNL     1       1.909  46.055  57.692  1.00  0.00     0.167 HD
ENDBRANCH   9  10
ENDBRANCH   2   9
BRANCH   6  20
ATOM     20  C   UNL     1       6.876  44.823  50.499  1.00  0.00     0.233 C 
BRANCH  20  21
ATOM     21  O   UNL     1       7.183  46.185  50.800  1.00  0.00    -0.493 OA
BRANCH  21  22
ATOM     22  C   UNL     1       8.102  46.420  51.787  1.00  0.00     0.119 A 
ATOM     23  C   UNL     1       7.552  46.738  53.034  1.00  0.00     0.046 A 
ATOM     24  C   UNL     1       9.489  46.356  51.652  1.00  0.00     0.046 A 
ATOM     25  C   UNL     1       8.374  46.994  54.133  1.00  0.00     0.004 A 
ATOM     26  C   UNL     1      10.314  46.613  52.753  1.00  0.00     0.004 A 
ATOM     27  C   UNL     1       9.758  46.934  53.992  1.00  0.00     0.000 A 
ENDBRANCH  21  22
ENDBRANCH  20  21
ENDBRANCH   6  20
TORSDOF 5
ENDMDL
MODEL 2
REMARK VINA RESULT:    -9.156      1.313      1.819
REMARK INTER + INTRA:         -12.749
REMARK INTER:                 -12.092
REMARK INTRA:                  -0.657
REMARK UNBOUND:                -0.917
REMARK SMILES O=C(Cc1c[nH]c2ncccc12)N1CCC(COc2ccccc2)CC1
REMARK SMILES IDX 1 1 2 2 13 3 14 4 15 5 16 6 25 7 26 8 3 9 4 10 5 11 12 12
REMARK SMILES IDX 6 13 11 14 7 15 10 16 8 17 9 18 17 20 18 21 19 22 20 23
REMARK SMILES IDX 24 24 21 25 23 26 22 27
REMARK H PARENT 6 19
ROOT
ATOM      1  O   UNL     1       2.583  42.308  52.363  1.00  0.00    -0.275 OA
ATOM      2  C   UNL     1       2.709  43.516  52.151  1.00  0.00     0.227 C 
ATOM      3  N   UNL     1       3.860  44.016  51.534  1.00  0.00    -0.342 N 
ATOM      4  C   UNL     1       4.847  43.042  51.076  1.00  0.00     0.120 C 
ATOM      5  C   UNL     1       5.963  43.668  50.247  1.00  0.00     0.028 C 
ATOM      6  C   UNL     1       6.635  44.814  51.018  1.00  0.00     0.030 C 
ATOM      7  C   UNL     1       5.603  45.767  51.655  1.00  0.00     0.028 C 
ATOM      8  C   UNL     1       4.156  45.429  51.303  1.00  0.00     0.120 C 
ENDROOT
BRANCH   2   9
ATOM      9  C   UNL     1       1.641  44.534  52.547  1.00  0.00     0.138 C 
BRANCH   9  10
ATOM     10  C   UNL     1       1.547  44.780  54.022  1.00  0.00    -0.012 A 
ATOM     11  C   UNL     1       2.568  45.217  54.852  1.00  0.00     0.089 A 
ATOM     12  C   UNL     1       0.385  44.633  54.846  1.00  0.00     0.022 A 
ATOM     13  N   UNL     1       2.072  45.326  56.124  1.00  0.00    -0.346 N 
ATOM     14  C   UNL     1      -0.948  44.234  54.644  1.00  0.00     0.014 A 
ATOM     15  C   UNL     1       0.749  44.989  56.139  1.00  0.00     0.137 A 
ATOM     16  C   UNL     1      -1.797  44.225  55.752  1.00  0.00     0.021 A 
ATOM     17  N   UNL     1      -0.026  45.008  57.240  1.00  0.00    -0.239 NA
ATOM     18  C   UNL     1      -1.295  44.611  56.990  1.00  0.00     0.113 A 
ATOM     19  H   UNL     1       2.584  45.609  56.949  1.00  0.00     0.167 HD
ENDBRANCH   9  10
ENDBRANCH   2   9
BRANCH   6  20
ATOM     20  C   UNL     1       7.637  45.574  50.133  1.00  0.00     0.233 C 
BRANCH  20  21
ATOM     21  O   UNL     1       8.888  45.641  50.819  1.00  0.00    -0.493 OA
BRANCH  21  22
ATOM     22  C   UNL     1       8.964  46.458  51.914  1.00  0.00     0.119 A 
ATOM     23  C   UNL     1       9.782  45.980  52.944  1.00  0.00     0.046 A 
ATOM     24  C   UNL     1       8.321  47.687  52.069  1.00  0.00     0.046 A 
ATOM     25  C   UNL     1       9.956  46.717  54.117  1.00  0.00     0.004 A 
ATOM     26  C   UNL     1       8.495  48.425  53.245  1.00  0.00     0.004 A 
ATOM     27  C   UNL     1       9.309  47.941  54.269  1.00  0.00     0.000 A 
ENDBRANCH  21  22
ENDBRANCH  20  21
ENDBRANCH   6  20
TORSDOF 5
ENDMDL
MODEL 3
REMARK VINA RESULT:    -8.961      2.317      7.892
REMARK INTER + INTRA:         -12.497
REMARK INTER:                 -11.534
REMARK INTRA:                  -0.963
REMARK UNBOUND:                -0.917
REMARK SMILES O=C(Cc1c[nH]c2ncccc12)N1CCC(COc2ccccc2)CC1
REMARK SMILES IDX 1 1 2 2 13 3 14 4 15 5 16 6 25 7 26 8 3 9 4 10 5 11 12 12
REMARK SMILES IDX 6 13 11 14 7 15 10 16 8 17 9 18 17 20 18 21 19 22 20 23
REMARK SMILES IDX 24 24 21 25 23 26 22 27
REMARK H PARENT 6 19
ROOT
ATOM      1  O   UNL     1       6.519  43.812  50.423  1.00  0.00    -0.275 OA
ATOM      2  C   UNL     1       5.676  44.589  50.874  1.00  0.00     0.227 C 
ATOM      3  N   UNL     1       4.407  44.130  51.243  1.00  0.00    -0.342 N 
ATOM      4  C   UNL     1       4.169  42.692  51.159  1.00  0.00     0.120 C 
ATOM      5  C   UNL     1       2.835  42.271  51.766  1.00  0.00     0.028 C 
ATOM      6  C   UNL     1       1.678  43.061  51.135  1.00  0.00     0.030 C 
ATOM      7  C   UNL     1       1.980  44.572  51.061  1.00  0.00     0.028 C 
ATOM      8  C   UNL     1       3.304  44.966  51.713  1.00  0.00     0.120 C 
ENDROOT
BRANCH   2   9
ATOM      9  C   UNL     1       5.947  46.083  51.049  1.00  0.00     0.138 C 
BRANCH   9  10
ATOM     10  C   UNL     1       6.441  46.460  52.412  1.00  0.00    -0.012 A 
ATOM     11  C   UNL     1       5.664  46.683  53.538  1.00  0.00     0.089 A 
ATOM     12  C   UNL     1       7.804  46.637  52.813  1.00  0.00     0.022 A 
ATOM     13  N   UNL     1       6.496  46.993  54.581  1.00  0.00    -0.346 N 
ATOM     14  C   UNL     1       9.058  46.565  52.180  1.00  0.00     0.014 A 
ATOM     15  C   UNL     1       7.797  46.959  54.166  1.00  0.00     0.137 A 
ATOM     16  C   UNL     1      10.190  46.820  52.954  1.00  0.00     0.021 A 
ATOM     17  N   UNL     1       8.854  47.205  54.961  1.00  0.00    -0.239 NA
ATOM     18  C   UNL     1      10.033  47.127  54.301  1.00  0.00     0.113 A 
ATOM     19  H   UNL     1       6.220  47.219  55.527  1.00  0.00     0.167 HD
ENDBRANCH   9  10
ENDBRANCH   2   9
BRANCH   6  20
ATOM     20  C   UNL     1       0.350  42.784  51.859  1.00  0.00     0.233 C 
BRANCH  20  21
ATOM     21  O   UNL     1       0.631  42.497  53.229  1.00  0.00    -0.493 OA
BRANCH  21  22
ATOM     22  C   UNL     1       0.263  43.433  54.157  1.00  0.00     0.119 A 
ATOM     23  C   UNL     1       1.330  44.123  54.744  1.00  0.00     0.046 A 
ATOM     24  C   UNL     1      -1.042  43.745  54.538  1.00  0.00     0.046 A 
ATOM     25  C   UNL     1       1.099  45.112  55.702  1.00  0.00     0.004 A 
ATOM     26  C   UNL     1      -1.274  44.736  55.499  1.00  0.00     0.004 A 
ATOM     27  C   UNL     1      -0.205  45.418  56.082  1.00  0.00     0.000 A 
ENDBRANCH  21  22
ENDBRANCH  20  21
ENDBRANCH   6  20
TORSDOF 5
ENDMDL
MODEL 4
REMARK VINA RESULT:    -8.953      0.902      1.926
REMARK INTER + INTRA:         -12.488
REMARK INTER:                 -11.582
REMARK INTRA:                  -0.905
REMARK UNBOUND:                -0.917
REMARK SMILES O=C(Cc1c[nH]c2ncccc12)N1CCC(COc2ccccc2)CC1
REMARK SMILES IDX 1 1 2 2 13 3 14 4 15 5 16 6 25 7 26 8 3 9 4 10 5 11 12 12
REMARK SMILES IDX 6 13 11 14 7 15 10 16 8 17 9 18 17 20 18 21 19 22 20 23
REMARK SMILES IDX 24 24 21 25 23 26 22 27
REMARK H PARENT 6 19
ROOT
ATOM      1  O   UNL     1       0.345  44.994  51.440  1.00  0.00    -0.275 OA
ATOM      2  C   UNL     1       1.200  44.372  52.073  1.00  0.00     0.227 C 
ATOM      3  N   UNL     1       2.561  44.616  51.864  1.00  0.00    -0.342 N 
ATOM      4  C   UNL     1       2.911  45.696  50.944  1.00  0.00     0.120 C 
ATOM      5  C   UNL     1       4.402  46.013  50.935  1.00  0.00     0.028 C 
ATOM      6  C   UNL     1       5.225  44.749  50.642  1.00  0.00     0.030 C 
ATOM      7  C   UNL     1       4.760  43.546  51.487  1.00  0.00     0.028 C 
ATOM      8  C   UNL     1       3.662  43.890  52.494  1.00  0.00     0.120 C 
ENDROOT
BRANCH   2   9
ATOM      9  C   UNL     1       0.842  43.301  53.103  1.00  0.00     0.138 C 
BRANCH   9  10
ATOM     10  C   UNL     1       0.025  43.808  54.253  1.00  0.00    -0.012 A 
ATOM     11  C   UNL     1      -1.316  43.550  54.488  1.00  0.00     0.089 A 
ATOM     12  C   UNL     1       0.480  44.631  55.333  1.00  0.00     0.022 A 
ATOM     13  N   UNL     1      -1.680  44.187  55.645  1.00  0.00    -0.346 N 
ATOM     14  C   UNL     1       1.697  45.236  55.695  1.00  0.00     0.014 A 
ATOM     15  C   UNL     1      -0.604  44.837  56.178  1.00  0.00     0.137 A 
ATOM     16  C   UNL     1       1.722  45.991  56.868  1.00  0.00     0.021 A 
ATOM     17  N   UNL     1      -0.636  45.545  57.322  1.00  0.00    -0.239 NA
ATOM     18  C   UNL     1       0.558  46.107  57.621  1.00  0.00     0.113 A 
ATOM     19  H   UNL     1      -2.599  44.194  56.066  1.00  0.00     0.167 HD
ENDBRANCH   9  10
ENDBRANCH   2   9
BRANCH   6  20
ATOM     20  C   UNL     1       6.731  45.009  50.809  1.00  0.00     0.233 C 
BRANCH  20  21
ATOM     21  O   UNL     1       6.917  46.375  51.181  1.00  0.00    -0.493 OA
BRANCH  21  22
ATOM     22  C   UNL     1       7.871  46.647  52.124  1.00  0.00     0.119 A 
ATOM     23  C   UNL     1       9.185  46.383  51.719  1.00  0.00     0.046 A 
ATOM     24  C   UNL     1       7.642  47.156  53.402  1.00  0.00     0.046 A 
ATOM     25  C   UNL     1      10.259  46.622  52.579  1.00  0.00     0.004 A 
ATOM     26  C   UNL     1       8.718  47.395  54.265  1.00  0.00     0.004 A 
ATOM     27  C   UNL     1      10.024  47.127  53.855  1.00  0.00     0.000 A 
ENDBRANCH  21  22
ENDBRANCH  20  21
ENDBRANCH   6  20
TORSDOF 5
ENDMDL
MODEL 5
REMARK VINA RESULT:    -8.855      4.398      7.535
REMARK INTER + INTRA:         -12.361
REMARK INTER:                 -11.559
REMARK INTRA:                  -0.802
REMARK UNBOUND:                -0.917
REMARK SMILES O=C(Cc1c[nH]c2ncccc12)N1CCC(COc2ccccc2)CC1
REMARK SMILES IDX 1 1 2 2 13 3 14 4 15 5 16 6 25 7 26 8 3 9 4 10 5 11 12 12
REMARK SMILES IDX 6 13 11 14 7 15 10 16 8 17 9 18 17 20 18 21 19 22 20 23
REMARK SMILES IDX 24 24 21 25 23 26 22 27
REMARK H PARENT 6 19
ROOT
ATOM      1  O   UNL     1       3.908  40.809  50.500  1.00  0.00    -0.275 OA
ATOM      2  C   UNL     1       4.867  41.530  50.215  1.00  0.00     0.227 C 
ATOM      3  N   UNL     1       5.065  42.748  50.873  1.00  0.00    -0.342 N 
ATOM      4  C   UNL     1       4.149  43.072  51.964  1.00  0.00     0.120 C 
ATOM      5  C   UNL     1       4.564  44.315  52.742  1.00  0.00     0.028 C 
ATOM      6  C   UNL     1       4.744  45.513  51.796  1.00  0.00     0.030 C 
ATOM      7  C   UNL     1       5.572  45.147  50.548  1.00  0.00     0.028 C 
ATOM      8  C   UNL     1       6.114  43.718  50.568  1.00  0.00     0.120 C 
ENDROOT
BRANCH   2   9
ATOM      9  C   UNL     1       5.882  41.156  49.135  1.00  0.00     0.138 C 
BRANCH   9  10
ATOM     10  C   UNL     1       5.374  41.320  47.735  1.00  0.00    -0.012 A 
ATOM     11  C   UNL     1       5.854  42.206  46.782  1.00  0.00     0.089 A 
ATOM     12  C   UNL     1       4.318  40.581  47.112  1.00  0.00     0.022 A 
ATOM     13  N   UNL     1       5.129  42.035  45.632  1.00  0.00    -0.346 N 
ATOM     14  C   UNL     1       3.434  39.561  47.507  1.00  0.00     0.014 A 
ATOM     15  C   UNL     1       4.203  41.048  45.807  1.00  0.00     0.137 A 
ATOM     16  C   UNL     1       2.515  39.099  46.564  1.00  0.00     0.021 A 
ATOM     17  N   UNL     1       3.344  40.635  44.856  1.00  0.00    -0.239 NA
ATOM     18  C   UNL     1       2.516  39.657  45.290  1.00  0.00     0.113 A 
ATOM     19  H   UNL     1       5.239  42.548  44.769  1.00  0.00     0.167 HD
ENDBRANCH   9  10
ENDBRANCH   2   9
BRANCH   6  20
ATOM     20  C   UNL     1       5.337  46.726  52.533  1.00  0.00     0.233 C 
BRANCH  20  21
ATOM     21  O   UNL     1       6.541  47.115  51.871  1.00  0.00    -0.493 OA
BRANCH  21  22
ATOM     22  C   UNL     1       7.700  47.072  52.597  1.00  0.00     0.119 A 
ATOM     23  C   UNL     1       8.812  46.592  51.895  1.00  0.00     0.046 A 
ATOM     24  C   UNL     1       7.853  47.465  53.926  1.00  0.00     0.046 A 
ATOM     25  C   UNL     1      10.062  46.502  52.510  1.00  0.00     0.004 A 
ATOM     26  C   UNL     1       9.106  47.375  54.545  1.00  0.00     0.004 A 
ATOM     27  C   UNL     1      10.208  46.893  53.839  1.00  0.00     0.000 A 
ENDBRANCH  21  22
ENDBRANCH  20  21
ENDBRANCH   6  20
TORSDOF 5
ENDMDL
MODEL 6
REMARK VINA RESULT:    -8.728      3.843      7.870
REMARK INTER + INTRA:         -12.196
REMARK INTER:                 -11.178
REMARK INTRA:                  -1.018
REMARK UNBOUND:                -0.917
REMARK SMILES O=C(Cc1c[nH]c2ncccc12)N1CCC(COc2ccccc2)CC1
REMARK SMILES IDX 1 1 2 2 13 3 14 4 15 5 16 6 25 7 26 8 3 9 4 10 5 11 12 12
REMARK SMILES IDX 6 13 11 14 7 15 10 16 8 17 9 18 17 20 18 21 19 22 20 23
REMARK SMILES IDX 24 24 21 25 23 26 22 27
REMARK H PARENT 6 19
ROOT
ATOM      1  O   UNL     1       3.547  45.636  54.099  1.00  0.00    -0.275 OA
ATOM      2  C   UNL     1       4.123  45.626  53.009  1.00  0.00     0.227 C 
ATOM      3  N   UNL     1       4.008  44.528  52.152  1.00  0.00    -0.342 N 
ATOM      4  C   UNL     1       3.109  43.452  52.563  1.00  0.00     0.120 C 
ATOM      5  C   UNL     1       2.901  42.401  51.479  1.00  0.00     0.028 C 
ATOM      6  C   UNL     1       4.249  41.842  50.999  1.00  0.00     0.030 C 
ATOM      7  C   UNL     1       5.273  42.959  50.716  1.00  0.00     0.028 C 
ATOM      8  C   UNL     1       4.704  44.368  50.876  1.00  0.00     0.120 C 
ENDROOT
BRANCH   2   9
ATOM      9  C   UNL     1       4.995  46.787  52.531  1.00  0.00     0.138 C 
BRANCH   9  10
ATOM     10  C   UNL     1       6.359  46.823  53.151  1.00  0.00    -0.012 A 
ATOM     11  C   UNL     1       6.661  47.160  54.461  1.00  0.00     0.089 A 
ATOM     12  C   UNL     1       7.600  46.495  52.515  1.00  0.00     0.022 A 
ATOM     13  N   UNL     1       8.017  47.059  54.629  1.00  0.00    -0.346 N 
ATOM     14  C   UNL     1       7.996  46.087  51.229  1.00  0.00     0.014 A 
ATOM     15  C   UNL     1       8.602  46.646  53.467  1.00  0.00     0.137 A 
ATOM     16  C   UNL     1       9.356  45.865  51.009  1.00  0.00     0.021 A 
ATOM     17  N   UNL     1       9.923  46.439  53.314  1.00  0.00    -0.239 NA
ATOM     18  C   UNL     1      10.249  46.052  52.059  1.00  0.00     0.113 A 
ATOM     19  H   UNL     1       8.535  47.255  55.475  1.00  0.00     0.167 HD
ENDBRANCH   9  10
ENDBRANCH   2   9
BRANCH   6  20
ATOM     20  C   UNL     1       4.071  40.916  49.783  1.00  0.00     0.233 C 
BRANCH  20  21
ATOM     21  O   UNL     1       5.143  41.157  48.870  1.00  0.00    -0.493 OA
BRANCH  21  22
ATOM     22  C   UNL     1       4.846  41.147  47.534  1.00  0.00     0.119 A 
ATOM     23  C   UNL     1       3.702  40.414  47.195  1.00  0.00     0.046 A 
ATOM     24  C   UNL     1       5.562  41.795  46.527  1.00  0.00     0.046 A 
ATOM     25  C   UNL     1       3.278  40.326  45.867  1.00  0.00     0.004 A 
ATOM     26  C   UNL     1       5.138  41.706  45.196  1.00  0.00     0.004 A 
ATOM     27  C   UNL     1       3.999  40.971  44.866  1.00  0.00     0.000 A 
ENDBRANCH  21  22
ENDBRANCH  20  21
ENDBRANCH   6  20
TORSDOF 5
ENDMDL
MODEL 7
REMARK VINA RESULT:    -8.682      2.749      8.977
REMARK INTER + INTRA:         -12.137
REMARK INTER:                 -11.217
REMARK INTRA:                  -0.920
REMARK UNBOUND:                -0.917
REMARK SMILES O=C(Cc1c[nH]c2ncccc12)N1CCC(COc2ccccc2)CC1
REMARK SMILES IDX 1 1 2 2 13 3 14 4 15 5 16 6 25 7 26 8 3 9 4 10 5 11 12 12
REMARK SMILES IDX 6 13 11 14 7 15 10 16 8 17 9 18 17 20 18 21 19 22 20 23
REMARK SMILES IDX 24 24 21 25 23 26 22 27
REMARK H PARENT 6 19
ROOT
ATOM      1  O   UNL     1       7.753  46.749  54.952  1.00  0.00    -0.275 OA
ATOM      2  C   UNL     1       7.118  47.041  53.936  1.00  0.00     0.227 C 
ATOM      3  N   UNL     1       5.743  46.800  53.860  1.00  0.00    -0.342 N 
ATOM      4  C   UNL     1       5.089  46.282  55.060  1.00  0.00     0.120 C 
ATOM      5  C   UNL     1       3.570  46.240  54.941  1.00  0.00     0.028 C 
ATOM      6  C   UNL     1       3.144  45.449  53.695  1.00  0.00     0.030 C 
ATOM      7  C   UNL     1       3.943  45.865  52.443  1.00  0.00     0.028 C 
ATOM      8  C   UNL     1       4.903  47.029  52.686  1.00  0.00     0.120 C 
ENDROOT
BRANCH   2   9
ATOM      9  C   UNL     1       7.778  47.665  52.708  1.00  0.00     0.138 C 
BRANCH   9  10
ATOM     10  C   UNL     1       8.684  46.734  51.960  1.00  0.00    -0.012 A 
ATOM     11  C   UNL     1      10.063  46.654  52.077  1.00  0.00     0.089 A 
ATOM     12  C   UNL     1       8.295  45.741  51.005  1.00  0.00     0.022 A 
ATOM     13  N   UNL     1      10.510  45.672  51.233  1.00  0.00    -0.346 N 
ATOM     14  C   UNL     1       7.083  45.307  50.439  1.00  0.00     0.014 A 
ATOM     15  C   UNL     1       9.454  45.099  50.584  1.00  0.00     0.137 A 
ATOM     16  C   UNL     1       7.137  44.272  49.504  1.00  0.00     0.021 A 
ATOM     17  N   UNL     1       9.565  44.093  49.696  1.00  0.00    -0.239 NA
ATOM     18  C   UNL     1       8.371  43.719  49.180  1.00  0.00     0.113 A 
ATOM     19  H   UNL     1      11.470  45.392  51.089  1.00  0.00     0.167 HD
ENDBRANCH   9  10
ENDBRANCH   2   9
BRANCH   6  20
ATOM     20  C   UNL     1       1.628  45.550  53.458  1.00  0.00     0.233 C 
BRANCH  20  21
ATOM     21  O   UNL     1       1.025  44.315  53.847  1.00  0.00    -0.493 OA
BRANCH  21  22
ATOM     22  C   UNL     1       0.016  44.369  54.770  1.00  0.00     0.119 A 
ATOM     23  C   UNL     1       0.290  45.166  55.888  1.00  0.00     0.046 A 
ATOM     24  C   UNL     1      -1.218  43.726  54.679  1.00  0.00     0.046 A 
ATOM     25  C   UNL     1      -0.654  45.318  56.905  1.00  0.00     0.004 A 
ATOM     26  C   UNL     1      -2.165  43.877  55.698  1.00  0.00     0.004 A 
ATOM     27  C   UNL     1      -1.884  44.670  56.811  1.00  0.00     0.000 A 
ENDBRANCH  21  22
ENDBRANCH  20  21
ENDBRANCH   6  20
TORSDOF 5
ENDMDL
MODEL 8
REMARK VINA RESULT:    -8.646      3.415      7.499
REMARK INTER + INTRA:         -12.090
REMARK INTER:                 -11.118
REMARK INTRA:                  -0.972
REMARK UNBOUND:                -0.917
REMARK SMILES O=C(Cc1c[nH]c2ncccc12)N1CCC(COc2ccccc2)CC1
REMARK SMILES IDX 1 1 2 2 13 3 14 4 15 5 16 6 25 7 26 8 3 9 4 10 5 11 12 12
REMARK SMILES IDX 6 13 11 14 7 15 10 16 8 17 9 18 17 20 18 21 19 22 20 23
REMARK SMILES IDX 24 24 21 25 23 26 22 27
REMARK H PARENT 6 19
ROOT
ATOM      1  O   UNL     1       4.772  48.500  53.467  1.00  0.00    -0.275 OA
ATOM      2  C   UNL     1       5.060  47.323  53.696  1.00  0.00     0.227 C 
ATOM      3  N   UNL     1       4.390  46.284  53.044  1.00  0.00    -0.342 N 
ATOM      4  C   UNL     1       3.414  46.657  52.023  1.00  0.00     0.120 C 
ATOM      5  C   UNL     1       2.886  45.463  51.237  1.00  0.00     0.028 C 
ATOM      6  C   UNL     1       2.314  44.398  52.185  1.00  0.00     0.030 C 
ATOM      7  C   UNL     1       3.259  44.107  53.368  1.00  0.00     0.028 C 
ATOM      8  C   UNL     1       4.589  44.857  53.290  1.00  0.00     0.120 C 
ENDROOT
BRANCH   2   9
ATOM      9  C   UNL     1       6.143  46.924  54.698  1.00  0.00     0.138 C 
BRANCH   9  10
ATOM     10  C   UNL     1       7.538  47.017  54.161  1.00  0.00    -0.012 A 
ATOM     11  C   UNL     1       8.624  47.611  54.785  1.00  0.00     0.089 A 
ATOM     12  C   UNL     1       8.016  46.492  52.917  1.00  0.00     0.022 A 
ATOM     13  N   UNL     1       9.717  47.473  53.970  1.00  0.00    -0.346 N 
ATOM     14  C   UNL     1       7.451  45.794  51.835  1.00  0.00     0.014 A 
ATOM     15  C   UNL     1       9.373  46.788  52.840  1.00  0.00     0.137 A 
ATOM     16  C   UNL     1       8.291  45.456  50.773  1.00  0.00     0.021 A 
ATOM     17  N   UNL     1      10.230  46.479  51.849  1.00  0.00    -0.239 NA
ATOM     18  C   UNL     1       9.634  45.814  50.833  1.00  0.00     0.113 A 
ATOM     19  H   UNL     1      10.650  47.817  54.149  1.00  0.00     0.167 HD
ENDBRANCH   9  10
ENDBRANCH   2   9
BRANCH   6  20
ATOM     20  C   UNL     1       1.944  43.112  51.427  1.00  0.00     0.233 C 
BRANCH  20  21
ATOM     21  O   UNL     1       2.955  42.134  51.673  1.00  0.00    -0.493 OA
BRANCH  21  22
ATOM     22  C   UNL     1       3.797  41.825  50.639  1.00  0.00     0.119 A 
ATOM     23  C   UNL     1       5.025  42.496  50.665  1.00  0.00     0.046 A 
ATOM     24  C   UNL     1       3.538  40.920  49.609  1.00  0.00     0.046 A 
ATOM     25  C   UNL     1       5.983  42.271  49.675  1.00  0.00     0.004 A 
ATOM     26  C   UNL     1       4.498  40.694  48.616  1.00  0.00     0.004 A 
ATOM     27  C   UNL     1       5.718  41.369  48.647  1.00  0.00     0.000 A 
ENDBRANCH  21  22
ENDBRANCH  20  21
ENDBRANCH   6  20
TORSDOF 5
ENDMDL
MODEL 9
REMARK VINA RESULT:    -8.636      1.368      2.258
REMARK INTER + INTRA:         -12.078
REMARK INTER:                 -11.121
REMARK INTRA:                  -0.956
REMARK UNBOUND:                -0.917
REMARK SMILES O=C(Cc1c[nH]c2ncccc12)N1CCC(COc2ccccc2)CC1
REMARK SMILES IDX 1 1 2 2 13 3 14 4 15 5 16 6 25 7 26 8 3 9 4 10 5 11 12 12
REMARK SMILES IDX 6 13 11 14 7 15 10 16 8 17 9 18 17 20 18 21 19 22 20 23
REMARK SMILES IDX 24 24 21 25 23 26 22 27
REMARK H PARENT 6 19
ROOT
ATOM      1  O   UNL     1       1.095  42.302  51.972  1.00  0.00    -0.275 OA
ATOM      2  C   UNL     1       1.319  43.487  51.718  1.00  0.00     0.227 C 
ATOM      3  N   UNL     1       2.606  43.912  51.372  1.00  0.00    -0.342 N 
ATOM      4  C   UNL     1       3.633  42.882  51.235  1.00  0.00     0.120 C 
ATOM      5  C   UNL     1       4.942  43.417  50.666  1.00  0.00     0.028 C 
ATOM      6  C   UNL     1       5.454  44.601  51.502  1.00  0.00     0.030 C 
ATOM      7  C   UNL     1       4.340  45.624  51.802  1.00  0.00     0.028 C 
ATOM      8  C   UNL     1       3.008  45.296  51.128  1.00  0.00     0.120 C 
ENDROOT
BRANCH   2   9
ATOM      9  C   UNL     1       0.231  44.558  51.773  1.00  0.00     0.138 C 
BRANCH   9  10
ATOM     10  C   UNL     1      -0.457  44.666  53.100  1.00  0.00    -0.012 A 
ATOM     11  C   UNL     1      -1.813  44.516  53.341  1.00  0.00     0.089 A 
ATOM     12  C   UNL     1       0.159  44.919  54.368  1.00  0.00     0.022 A 
ATOM     13  N   UNL     1      -2.033  44.679  54.683  1.00  0.00    -0.346 N 
ATOM     14  C   UNL     1       1.469  45.160  54.821  1.00  0.00     0.014 A 
ATOM     15  C   UNL     1      -0.850  44.911  55.324  1.00  0.00     0.137 A 
ATOM     16  C   UNL     1       1.652  45.371  56.189  1.00  0.00     0.021 A 
ATOM     17  N   UNL     1      -0.730  45.099  56.652  1.00  0.00    -0.239 NA
ATOM     18  C   UNL     1       0.548  45.330  57.033  1.00  0.00     0.113 A 
ATOM     19  H   UNL     1      -2.924  44.639  55.158  1.00  0.00     0.167 HD
ENDBRANCH   9  10
ENDBRANCH   2   9
BRANCH   6  20
ATOM     20  C   UNL     1       6.672  45.268  50.842  1.00  0.00     0.233 C 
BRANCH  20  21
ATOM     21  O   UNL     1       6.843  46.566  51.413  1.00  0.00    -0.493 OA
BRANCH  21  22
ATOM     22  C   UNL     1       7.928  46.759  52.224  1.00  0.00     0.119 A 
ATOM     23  C   UNL     1       7.622  47.218  53.510  1.00  0.00     0.046 A 
ATOM     24  C   UNL     1       9.261  46.532  51.882  1.00  0.00     0.046 A 
ATOM     25  C   UNL     1       8.632  47.451  54.445  1.00  0.00     0.004 A 
ATOM     26  C   UNL     1      10.275  46.765  52.818  1.00  0.00     0.004 A 
ATOM     27  C   UNL     1       9.962  47.226  54.097  1.00  0.00     0.000 A 
ENDBRANCH  21  22
ENDBRANCH  20  21
ENDBRANCH   6  20
TORSDOF 5
ENDMDL
MODEL 10
REMARK VINA RESULT:    -8.486      1.896      2.601
REMARK INTER + INTRA:         -11.884
REMARK INTER:                 -11.016
REMARK INTRA:                  -0.868
REMARK UNBOUND:                -0.917
REMARK SMILES O=C(Cc1c[nH]c2ncccc12)N1CCC(COc2ccccc2)CC1
REMARK SMILES IDX 1 1 2 2 13 3 14 4 15 5 16 6 25 7 26 8 3 9 4 10 5 11 12 12
REMARK SMILES IDX 6 13 11 14 7 15 10 16 8 17 9 18 17 20 18 21 19 22 20 23
REMARK SMILES IDX 24 24 21 25 23 26 22 27
REMARK H PARENT 6 19
ROOT
ATOM      1  O   UNL     1       1.834  42.726  51.585  1.00  0.00    -0.275 OA
ATOM      2  C   UNL     1       1.814  43.227  52.711  1.00  0.00     0.227 C 
ATOM      3  N   UNL     1       2.682  44.272  53.043  1.00  0.00    -0.342 N 
ATOM      4  C   UNL     1       3.532  44.795  51.977  1.00  0.00     0.120 C 
ATOM      5  C   UNL     1       4.293  46.052  52.383  1.00  0.00     0.028 C 
ATOM      6  C   UNL     1       5.102  45.807  53.666  1.00  0.00     0.030 C 
ATOM      7  C   UNL     1       4.266  45.100  54.753  1.00  0.00     0.028 C 
ATOM      8  C   UNL     1       2.804  44.890  54.362  1.00  0.00     0.120 C 
ENDROOT
BRANCH   2   9
ATOM      9  C   UNL     1       0.864  42.745  53.807  1.00  0.00     0.138 C 
BRANCH   9  10
ATOM     10  C   UNL     1      -0.441  43.480  53.854  1.00  0.00    -0.012 A 
ATOM     11  C   UNL     1      -1.453  43.424  52.909  1.00  0.00     0.089 A 
ATOM     12  C   UNL     1      -0.895  44.359  54.890  1.00  0.00     0.022 A 
ATOM     13  N   UNL     1      -2.478  44.231  53.328  1.00  0.00    -0.346 N 
ATOM     14  C   UNL     1      -0.371  44.841  56.103  1.00  0.00     0.014 A 
ATOM     15  C   UNL     1      -2.165  44.796  54.531  1.00  0.00     0.137 A 
ATOM     16  C   UNL     1      -1.162  45.717  56.847  1.00  0.00     0.021 A 
ATOM     17  N   UNL     1      -2.973  45.630  55.211  1.00  0.00    -0.239 NA
ATOM     18  C   UNL     1      -2.420  46.067  56.366  1.00  0.00     0.113 A 
ATOM     19  H   UNL     1      -3.347  44.404  52.841  1.00  0.00     0.167 HD
ENDBRANCH   9  10
ENDBRANCH   2   9
BRANCH   6  20
ATOM     20  C   UNL     1       5.729  47.109  54.192  1.00  0.00     0.233 C 
BRANCH  20  21
ATOM     21  O   UNL     1       6.430  47.740  53.120  1.00  0.00    -0.493 OA
BRANCH  21  22
ATOM     22  C   UNL     1       7.694  47.292  52.844  1.00  0.00     0.119 A 
ATOM     23  C   UNL     1       8.633  47.538  53.851  1.00  0.00     0.046 A 
ATOM     24  C   UNL     1       8.095  46.627  51.686  1.00  0.00     0.046 A 
ATOM     25  C   UNL     1       9.960  47.127  53.706  1.00  0.00     0.004 A 
ATOM     26  C   UNL     1       9.425  46.215  51.538  1.00  0.00     0.004 A 
ATOM     27  C   UNL     1      10.357  46.466  52.545  1.00  0.00     0.000 A 
ENDBRANCH  21  22
ENDBRANCH  20  21
ENDBRANCH   6  20
TORSDOF 5
ENDMDL
