MODEL 1
REMARK VINA RESULT:    -8.701      0.000      0.000
REMARK INTER + INTRA:         -13.001
REMARK INTER:                 -11.754
REMARK INTRA:                  -1.247
REMARK UNBOUND:                -1.247
REMARK SMILES NC(=O)C1(NC(=O)c2ccccc2OCC2CC2)CCOCC1
REMARK SMILES IDX 8 1 9 2 10 3 11 4 12 5 13 6 6 7 5 8 7 10 4 11 19 12 23 13
REMARK SMILES IDX 20 14 22 15 21 16 2 17 1 18 3 21 14 22 15 23 16 24 17 25
REMARK SMILES IDX 18 26
REMARK H PARENT 5 9 1 19 1 20
ROOT
ATOM      1  C   UNL     1       7.437  46.638  53.253  1.00  0.00     0.081 A 
ATOM      2  C   UNL     1       8.414  46.986  54.202  1.00  0.00     0.018 A 
ATOM      3  C   UNL     1       9.768  47.020  53.856  1.00  0.00     0.001 A 
ATOM      4  C   UNL     1      10.161  46.717  52.555  1.00  0.00     0.004 A 
ATOM      5  C   UNL     1       9.205  46.362  51.604  1.00  0.00     0.047 A 
ATOM      6  C   UNL     1       7.852  46.298  51.957  1.00  0.00     0.132 A 
ENDROOT
BRANCH   1   7
ATOM      7  C   UNL     1       6.011  46.653  53.709  1.00  0.00     0.255 C 
ATOM      8  N   UNL     1       5.229  45.575  53.346  1.00  0.00    -0.337 N 
ATOM      9  H   UNL     1       5.654  44.996  52.626  1.00  0.00     0.164 HD
ATOM     10  O   UNL     1       5.596  47.612  54.351  1.00  0.00    -0.269 OA
BRANCH   8  11
ATOM     11  C   UNL     1       3.743  45.582  53.340  1.00  0.00     0.123 C 
ATOM     12  C   UNL     1       3.289  44.196  52.823  1.00  0.00     0.067 C 
ATOM     13  C   UNL     1       3.148  45.877  54.729  1.00  0.00     0.067 C 
ATOM     14  C   UNL     1       1.974  43.717  53.417  1.00  0.00     0.163 C 
ATOM     15  C   UNL     1       1.673  45.518  54.885  1.00  0.00     0.163 C 
ATOM     16  O   UNL     1       1.153  44.829  53.749  1.00  0.00    -0.381 OA
BRANCH  11  17
ATOM     17  C   UNL     1       3.328  46.659  52.281  1.00  0.00     0.243 C 
ATOM     18  N   UNL     1       3.662  46.423  50.979  1.00  0.00    -0.368 N 
ATOM     19  H   UNL     1       4.383  45.744  50.747  1.00  0.00     0.159 HD
ATOM     20  H   UNL     1       3.504  47.181  50.328  1.00  0.00     0.159 HD
ATOM     21  O   UNL     1       2.797  47.732  52.570  1.00  0.00    -0.273 OA
ENDBRANCH  11  17
ENDBRANCH   8  11
ENDBRANCH   1   7
BRANCH   6  22
ATOM     22  O   UNL     1       6.938  45.944  50.994  1.00  0.00    -0.492 OA
BRANCH  22  23
ATOM     23  C   UNL     1       7.404  44.807  50.252  1.00  0.00     0.233 C 
BRANCH  23  24
ATOM     24  C   UNL     1       6.207  44.022  49.810  1.00  0.00     0.027 C 
ATOM     25  C   UNL     1       5.819  42.749  50.517  1.00  0.00     0.007 C 
ATOM     26  C   UNL     1       6.373  42.693  49.119  1.00  0.00     0.007 C 
ENDBRANCH  23  24
ENDBRANCH  22  23
ENDBRANCH   6  22
TORSDOF 6
ENDMDL
MODEL 2
REMARK VINA RESULT:    -8.417      1.432      3.768
REMARK INTER + INTRA:         -12.616
REMARK INTER:                 -11.876
REMARK INTRA:                  -0.740
REMARK UNBOUND:                -1.247
REMARK SMILES NC(=O)C1(NC(=O)c2ccccc2OCC2CC2)CCOCC1
REMARK SMILES IDX 8 1 9 2 10 3 11 4 12 5 13 6 6 7 5 8 7 10 4 11 19 12 23 13
REMARK SMILES IDX 20 14 22 15 21 16 2 17 1 18 3 21 14 22 15 23 16 24 17 25
REMARK SMILES IDX 18 26
REMARK H PARENT 5 9 1 19 1 20
ROOT
ATOM      1  C   UNL     1       5.986  44.175  50.652  1.00  0.00     0.081 A 
ATOM      2  C   UNL     1       6.117  43.034  49.842  1.00  0.00     0.018 A 
ATOM      3  C   UNL     1       7.236  42.862  49.022  1.00  0.00     0.001 A 
ATOM      4  C   UNL     1       8.243  43.824  49.008  1.00  0.00     0.004 A 
ATOM      5  C   UNL     1       8.124  44.965  49.800  1.00  0.00     0.047 A 
ATOM      6  C   UNL     1       6.990  45.154  50.599  1.00  0.00     0.132 A 
ENDROOT
BRANCH   1   7
ATOM      7  C   UNL     1       4.766  44.261  51.515  1.00  0.00     0.255 C 
ATOM      8  N   UNL     1       4.250  45.520  51.743  1.00  0.00    -0.337 N 
ATOM      9  H   UNL     1       4.886  46.268  51.474  1.00  0.00     0.164 HD
ATOM     10  O   UNL     1       4.297  43.234  51.995  1.00  0.00    -0.269 OA
BRANCH   8  11
ATOM     11  C   UNL     1       3.328  45.859  52.858  1.00  0.00     0.123 C 
ATOM     12  C   UNL     1       1.888  45.725  52.307  1.00  0.00     0.067 C 
ATOM     13  C   UNL     1       3.536  44.960  54.090  1.00  0.00     0.067 C 
ATOM     14  C   UNL     1       0.870  45.282  53.346  1.00  0.00     0.163 C 
ATOM     15  C   UNL     1       2.393  44.982  55.101  1.00  0.00     0.163 C 
ATOM     16  O   UNL     1       1.265  45.724  54.637  1.00  0.00    -0.381 OA
BRANCH  11  17
ATOM     17  C   UNL     1       3.590  47.370  53.180  1.00  0.00     0.243 C 
ATOM     18  N   UNL     1       4.447  47.656  54.203  1.00  0.00    -0.368 N 
ATOM     19  H   UNL     1       4.674  46.950  54.898  1.00  0.00     0.159 HD
ATOM     20  H   UNL     1       4.507  48.626  54.483  1.00  0.00     0.159 HD
ATOM     21  O   UNL     1       3.007  48.298  52.619  1.00  0.00    -0.273 OA
ENDBRANCH  11  17
ENDBRANCH   8  11
ENDBRANCH   1   7
BRANCH   6  22
ATOM     22  O   UNL     1       6.908  46.291  51.365  1.00  0.00    -0.492 OA
BRANCH  22  23
ATOM     23  C   UNL     1       7.681  46.146  52.565  1.00  0.00     0.233 C 
BRANCH  23  24
ATOM     24  C   UNL     1       8.844  47.088  52.482  1.00  0.00     0.027 C 
ATOM     25  C   UNL     1      10.248  46.564  52.326  1.00  0.00     0.007 C 
ATOM     26  C   UNL     1       9.823  47.201  53.621  1.00  0.00     0.007 C 
ENDBRANCH  23  24
ENDBRANCH  22  23
ENDBRANCH   6  22
TORSDOF 6
ENDMDL
MODEL 3
REMARK VINA RESULT:    -8.349      1.192      1.874
REMARK INTER + INTRA:         -12.524
REMARK INTER:                 -11.587
REMARK INTRA:                  -0.938
REMARK UNBOUND:                -1.247
REMARK SMILES NC(=O)C1(NC(=O)c2ccccc2OCC2CC2)CCOCC1
REMARK SMILES IDX 8 1 9 2 10 3 11 4 12 5 13 6 6 7 5 8 7 10 4 11 19 12 23 13
REMARK SMILES IDX 20 14 22 15 21 16 2 17 1 18 3 21 14 22 15 23 16 24 17 25
REMARK SMILES IDX 18 26
REMARK H PARENT 5 9 1 19 1 20
ROOT
ATOM      1  C   UNL     1       7.506  46.408  52.894  1.00  0.00     0.081 A 
ATOM      2  C   UNL     1       8.373  46.796  53.929  1.00  0.00     0.018 A 
ATOM      3  C   UNL     1       9.738  46.976  53.691  1.00  0.00     0.001 A 
ATOM      4  C   UNL     1      10.253  46.780  52.412  1.00  0.00     0.004 A 
ATOM      5  C   UNL     1       9.408  46.388  51.375  1.00  0.00     0.047 A 
ATOM      6  C   UNL     1       8.045  46.177  51.618  1.00  0.00     0.132 A 
ENDROOT
BRANCH   1   7
ATOM      7  C   UNL     1       6.056  46.264  53.237  1.00  0.00     0.255 C 
ATOM      8  N   UNL     1       5.494  45.016  53.059  1.00  0.00    -0.337 N 
ATOM      9  H   UNL     1       6.076  44.390  52.507  1.00  0.00     0.164 HD
ATOM     10  O   UNL     1       5.433  47.243  53.633  1.00  0.00    -0.269 OA
BRANCH   8  11
ATOM     11  C   UNL     1       4.033  44.763  52.950  1.00  0.00     0.123 C 
ATOM     12  C   UNL     1       3.499  45.688  51.830  1.00  0.00     0.067 C 
ATOM     13  C   UNL     1       3.710  43.287  52.651  1.00  0.00     0.067 C 
ATOM     14  C   UNL     1       2.324  45.107  51.061  1.00  0.00     0.163 C 
ATOM     15  C   UNL     1       2.294  43.030  52.145  1.00  0.00     0.163 C 
ATOM     16  O   UNL     1       1.573  44.237  51.896  1.00  0.00    -0.381 OA
BRANCH  11  17
ATOM     17  C   UNL     1       3.419  45.236  54.311  1.00  0.00     0.243 C 
ATOM     18  N   UNL     1       3.989  44.765  55.458  1.00  0.00    -0.368 N 
ATOM     19  H   UNL     1       4.581  43.938  55.436  1.00  0.00     0.159 HD
ATOM     20  H   UNL     1       3.506  44.974  56.321  1.00  0.00     0.159 HD
ATOM     21  O   UNL     1       2.411  45.938  54.397  1.00  0.00    -0.273 OA
ENDBRANCH  11  17
ENDBRANCH   8  11
ENDBRANCH   1   7
BRANCH   6  22
ATOM     22  O   UNL     1       7.243  45.790  50.573  1.00  0.00    -0.492 OA
BRANCH  22  23
ATOM     23  C   UNL     1       7.665  44.517  50.060  1.00  0.00     0.233 C 
BRANCH  23  24
ATOM     24  C   UNL     1       6.440  43.692  49.807  1.00  0.00     0.027 C 
ATOM     25  C   UNL     1       6.434  42.215  50.106  1.00  0.00     0.007 C 
ATOM     26  C   UNL     1       6.407  42.694  48.679  1.00  0.00     0.007 C 
ENDBRANCH  23  24
ENDBRANCH  22  23
ENDBRANCH   6  22
TORSDOF 6
ENDMDL
MODEL 4
REMARK VINA RESULT:    -8.097      1.620      3.829
REMARK INTER + INTRA:         -12.184
REMARK INTER:                 -11.490
REMARK INTRA:                  -0.694
REMARK UNBOUND:                -1.247
REMARK SMILES NC(=O)C1(NC(=O)c2ccccc2OCC2CC2)CCOCC1
REMARK SMILES IDX 8 1 9 2 10 3 11 4 12 5 13 6 6 7 5 8 7 10 4 11 19 12 23 13
REMARK SMILES IDX 20 14 22 15 21 16 2 17 1 18 3 21 14 22 15 23 16 24 17 25
REMARK SMILES IDX 18 26
REMARK H PARENT 5 9 1 19 1 20
ROOT
ATOM      1  C   UNL     1       5.692  44.137  51.192  1.00  0.00     0.081 A 
ATOM      2  C   UNL     1       5.780  42.995  50.379  1.00  0.00     0.018 A 
ATOM      3  C   UNL     1       6.793  42.871  49.424  1.00  0.00     0.001 A 
ATOM      4  C   UNL     1       7.737  43.884  49.277  1.00  0.00     0.004 A 
ATOM      5  C   UNL     1       7.660  45.027  50.072  1.00  0.00     0.047 A 
ATOM      6  C   UNL     1       6.627  45.167  51.007  1.00  0.00     0.132 A 
ENDROOT
BRANCH   1   7
ATOM      7  C   UNL     1       4.588  44.170  52.203  1.00  0.00     0.255 C 
ATOM      8  N   UNL     1       3.307  44.355  51.722  1.00  0.00    -0.337 N 
ATOM      9  H   UNL     1       3.284  44.665  50.754  1.00  0.00     0.164 HD
ATOM     10  O   UNL     1       4.861  44.057  53.393  1.00  0.00    -0.269 OA
BRANCH   8  11
ATOM     11  C   UNL     1       2.160  44.812  52.549  1.00  0.00     0.123 C 
ATOM     12  C   UNL     1       0.993  45.106  51.575  1.00  0.00     0.067 C 
ATOM     13  C   UNL     1       1.747  43.777  53.611  1.00  0.00     0.067 C 
ATOM     14  C   UNL     1      -0.382  44.844  52.166  1.00  0.00     0.163 C 
ATOM     15  C   UNL     1       0.364  43.996  54.218  1.00  0.00     0.163 C 
ATOM     16  O   UNL     1      -0.358  45.045  53.572  1.00  0.00    -0.381 OA
BRANCH  11  17
ATOM     17  C   UNL     1       2.614  46.166  53.191  1.00  0.00     0.243 C 
ATOM     18  N   UNL     1       3.024  46.140  54.493  1.00  0.00    -0.368 N 
ATOM     19  H   UNL     1       2.777  45.358  55.095  1.00  0.00     0.159 HD
ATOM     20  H   UNL     1       3.190  47.036  54.932  1.00  0.00     0.159 HD
ATOM     21  O   UNL     1       2.544  47.253  52.616  1.00  0.00    -0.273 OA
ENDBRANCH  11  17
ENDBRANCH   8  11
ENDBRANCH   1   7
BRANCH   6  22
ATOM     22  O   UNL     1       6.582  46.307  51.770  1.00  0.00    -0.492 OA
BRANCH  22  23
ATOM     23  C   UNL     1       7.486  46.206  52.881  1.00  0.00     0.233 C 
BRANCH  23  24
ATOM     24  C   UNL     1       8.602  47.181  52.659  1.00  0.00     0.027 C 
ATOM     25  C   UNL     1      10.010  46.697  52.426  1.00  0.00     0.007 C 
ATOM     26  C   UNL     1       9.657  47.393  53.713  1.00  0.00     0.007 C 
ENDBRANCH  23  24
ENDBRANCH  22  23
ENDBRANCH   6  22
TORSDOF 6
ENDMDL
MODEL 5
REMARK VINA RESULT:    -8.062      1.675      3.975
REMARK INTER + INTRA:         -12.137
REMARK INTER:                 -11.534
REMARK INTRA:                  -0.603
REMARK UNBOUND:                -1.247
REMARK SMILES NC(=O)C1(NC(=O)c2ccccc2OCC2CC2)CCOCC1
REMARK SMILES IDX 8 1 9 2 10 3 11 4 12 5 13 6 6 7 5 8 7 10 4 11 19 12 23 13
REMARK SMILES IDX 20 14 22 15 21 16 2 17 1 18 3 21 14 22 15 23 16 24 17 25
REMARK SMILES IDX 18 26
REMARK H PARENT 5 9 1 19 1 20
ROOT
ATOM      1  C   UNL     1       5.784  44.523  50.609  1.00  0.00     0.081 A 
ATOM      2  C   UNL     1       5.772  43.289  49.937  1.00  0.00     0.018 A 
ATOM      3  C   UNL     1       6.915  42.816  49.286  1.00  0.00     0.001 A 
ATOM      4  C   UNL     1       8.088  43.567  49.307  1.00  0.00     0.004 A 
ATOM      5  C   UNL     1       8.114  44.797  49.964  1.00  0.00     0.047 A 
ATOM      6  C   UNL     1       6.962  45.286  50.590  1.00  0.00     0.132 A 
ENDROOT
BRANCH   1   7
ATOM      7  C   UNL     1       4.521  44.935  51.298  1.00  0.00     0.255 C 
ATOM      8  N   UNL     1       3.873  43.970  52.043  1.00  0.00    -0.337 N 
ATOM      9  H   UNL     1       4.214  43.029  51.862  1.00  0.00     0.164 HD
ATOM     10  O   UNL     1       4.107  46.081  51.157  1.00  0.00    -0.269 OA
BRANCH   8  11
ATOM     11  C   UNL     1       2.447  44.046  52.455  1.00  0.00     0.123 C 
ATOM     12  C   UNL     1       1.638  44.445  51.197  1.00  0.00     0.067 C 
ATOM     13  C   UNL     1       1.933  42.722  53.048  1.00  0.00     0.067 C 
ATOM     14  C   UNL     1       0.231  43.868  51.162  1.00  0.00     0.163 C 
ATOM     15  C   UNL     1       0.413  42.600  53.124  1.00  0.00     0.163 C 
ATOM     16  O   UNL     1      -0.257  43.686  52.484  1.00  0.00    -0.381 OA
BRANCH  11  17
ATOM     17  C   UNL     1       2.365  45.224  53.483  1.00  0.00     0.243 C 
ATOM     18  N   UNL     1       1.638  46.323  53.126  1.00  0.00    -0.368 N 
ATOM     19  H   UNL     1       1.408  46.493  52.150  1.00  0.00     0.159 HD
ATOM     20  H   UNL     1       1.699  47.124  53.740  1.00  0.00     0.159 HD
ATOM     21  O   UNL     1       2.981  45.244  54.550  1.00  0.00    -0.273 OA
ENDBRANCH  11  17
ENDBRANCH   8  11
ENDBRANCH   1   7
BRANCH   6  22
ATOM     22  O   UNL     1       7.025  46.502  51.226  1.00  0.00    -0.492 OA
BRANCH  22  23
ATOM     23  C   UNL     1       7.671  46.370  52.501  1.00  0.00     0.233 C 
BRANCH  23  24
ATOM     24  C   UNL     1       8.919  47.198  52.474  1.00  0.00     0.027 C 
ATOM     25  C   UNL     1      10.272  46.545  52.347  1.00  0.00     0.007 C 
ATOM     26  C   UNL     1       9.868  47.194  53.644  1.00  0.00     0.007 C 
ENDBRANCH  23  24
ENDBRANCH  22  23
ENDBRANCH   6  22
TORSDOF 6
ENDMDL
MODEL 6
REMARK VINA RESULT:    -7.973      1.841      4.115
REMARK INTER + INTRA:         -12.017
REMARK INTER:                 -11.731
REMARK INTRA:                  -0.285
REMARK UNBOUND:                -1.247
REMARK SMILES NC(=O)C1(NC(=O)c2ccccc2OCC2CC2)CCOCC1
REMARK SMILES IDX 8 1 9 2 10 3 11 4 12 5 13 6 6 7 5 8 7 10 4 11 19 12 23 13
REMARK SMILES IDX 20 14 22 15 21 16 2 17 1 18 3 21 14 22 15 23 16 24 17 25
REMARK SMILES IDX 18 26
REMARK H PARENT 5 9 1 19 1 20
ROOT
ATOM      1  C   UNL     1       6.002  44.745  50.538  1.00  0.00     0.081 A 
ATOM      2  C   UNL     1       6.038  43.518  49.854  1.00  0.00     0.018 A 
ATOM      3  C   UNL     1       7.222  43.057  49.272  1.00  0.00     0.001 A 
ATOM      4  C   UNL     1       8.388  43.811  49.376  1.00  0.00     0.004 A 
ATOM      5  C   UNL     1       8.368  45.034  50.045  1.00  0.00     0.047 A 
ATOM      6  C   UNL     1       7.176  45.513  50.602  1.00  0.00     0.132 A 
ENDROOT
BRANCH   1   7
ATOM      7  C   UNL     1       4.696  45.146  51.150  1.00  0.00     0.255 C 
ATOM      8  N   UNL     1       4.259  44.405  52.229  1.00  0.00    -0.337 N 
ATOM      9  H   UNL     1       4.770  43.534  52.350  1.00  0.00     0.164 HD
ATOM     10  O   UNL     1       4.068  46.081  50.664  1.00  0.00    -0.269 OA
BRANCH   8  11
ATOM     11  C   UNL     1       2.853  44.371  52.708  1.00  0.00     0.123 C 
ATOM     12  C   UNL     1       2.888  44.667  54.227  1.00  0.00     0.067 C 
ATOM     13  C   UNL     1       1.953  45.378  51.968  1.00  0.00     0.067 C 
ATOM     14  C   UNL     1       1.660  45.403  54.739  1.00  0.00     0.163 C 
ATOM     15  C   UNL     1       0.623  45.676  52.656  1.00  0.00     0.163 C 
ATOM     16  O   UNL     1       0.527  45.075  53.947  1.00  0.00    -0.381 OA
BRANCH  11  17
ATOM     17  C   UNL     1       2.372  42.894  52.508  1.00  0.00     0.243 C 
ATOM     18  N   UNL     1       1.750  42.286  53.560  1.00  0.00    -0.368 N 
ATOM     19  H   UNL     1       1.849  42.657  54.502  1.00  0.00     0.159 HD
ATOM     20  H   UNL     1       1.562  41.297  53.463  1.00  0.00     0.159 HD
ATOM     21  O   UNL     1       2.597  42.234  51.493  1.00  0.00    -0.273 OA
ENDBRANCH  11  17
ENDBRANCH   8  11
ENDBRANCH   1   7
BRANCH   6  22
ATOM     22  O   UNL     1       7.194  46.722  51.252  1.00  0.00    -0.492 OA
BRANCH  22  23
ATOM     23  C   UNL     1       7.629  46.557  52.610  1.00  0.00     0.233 C 
BRANCH  23  24
ATOM     24  C   UNL     1       8.855  47.395  52.807  1.00  0.00     0.027 C 
ATOM     25  C   UNL     1      10.216  46.755  52.902  1.00  0.00     0.007 C 
ATOM     26  C   UNL     1       9.592  47.379  54.121  1.00  0.00     0.007 C 
ENDBRANCH  23  24
ENDBRANCH  22  23
ENDBRANCH   6  22
TORSDOF 6
ENDMDL
MODEL 7
REMARK VINA RESULT:    -7.950      1.389      1.919
REMARK INTER + INTRA:         -11.986
REMARK INTER:                 -11.035
REMARK INTRA:                  -0.950
REMARK UNBOUND:                -1.247
REMARK SMILES NC(=O)C1(NC(=O)c2ccccc2OCC2CC2)CCOCC1
REMARK SMILES IDX 8 1 9 2 10 3 11 4 12 5 13 6 6 7 5 8 7 10 4 11 19 12 23 13
REMARK SMILES IDX 20 14 22 15 21 16 2 17 1 18 3 21 14 22 15 23 16 24 17 25
REMARK SMILES IDX 18 26
REMARK H PARENT 5 9 1 19 1 20
ROOT
ATOM      1  C   UNL     1       7.158  46.494  53.288  1.00  0.00     0.081 A 
ATOM      2  C   UNL     1       8.035  46.867  54.320  1.00  0.00     0.018 A 
ATOM      3  C   UNL     1       9.383  47.128  54.055  1.00  0.00     0.001 A 
ATOM      4  C   UNL     1       9.867  47.029  52.753  1.00  0.00     0.004 A 
ATOM      5  C   UNL     1       9.011  46.653  51.719  1.00  0.00     0.047 A 
ATOM      6  C   UNL     1       7.668  46.362  51.987  1.00  0.00     0.132 A 
ENDROOT
BRANCH   1   7
ATOM      7  C   UNL     1       5.727  46.259  53.662  1.00  0.00     0.255 C 
ATOM      8  N   UNL     1       5.147  45.092  53.209  1.00  0.00    -0.337 N 
ATOM      9  H   UNL     1       5.694  44.627  52.488  1.00  0.00     0.164 HD
ATOM     10  O   UNL     1       5.133  47.105  54.323  1.00  0.00    -0.269 OA
BRANCH   8  11
ATOM     11  C   UNL     1       3.681  44.864  53.120  1.00  0.00     0.123 C 
ATOM     12  C   UNL     1       3.134  44.887  54.567  1.00  0.00     0.067 C 
ATOM     13  C   UNL     1       2.973  45.913  52.243  1.00  0.00     0.067 C 
ATOM     14  C   UNL     1       1.716  45.422  54.681  1.00  0.00     0.163 C 
ATOM     15  C   UNL     1       1.459  45.980  52.420  1.00  0.00     0.163 C 
ATOM     16  O   UNL     1       0.994  45.154  53.487  1.00  0.00    -0.381 OA
BRANCH  11  17
ATOM     17  C   UNL     1       3.511  43.413  52.555  1.00  0.00     0.243 C 
ATOM     18  N   UNL     1       2.603  42.600  53.169  1.00  0.00    -0.368 N 
ATOM     19  H   UNL     1       2.270  42.815  54.106  1.00  0.00     0.159 HD
ATOM     20  H   UNL     1       2.596  41.632  52.880  1.00  0.00     0.159 HD
ATOM     21  O   UNL     1       4.204  42.946  51.650  1.00  0.00    -0.273 OA
ENDBRANCH  11  17
ENDBRANCH   8  11
ENDBRANCH   1   7
BRANCH   6  22
ATOM     22  O   UNL     1       6.854  45.993  50.944  1.00  0.00    -0.492 OA
BRANCH  22  23
ATOM     23  C   UNL     1       7.547  45.103  50.056  1.00  0.00     0.233 C 
BRANCH  23  24
ATOM     24  C   UNL     1       6.808  43.799  50.041  1.00  0.00     0.027 C 
ATOM     25  C   UNL     1       7.526  42.513  49.723  1.00  0.00     0.007 C 
ATOM     26  C   UNL     1       6.538  43.085  48.742  1.00  0.00     0.007 C 
ENDBRANCH  23  24
ENDBRANCH  22  23
ENDBRANCH   6  22
TORSDOF 6
ENDMDL
MODEL 8
REMARK VINA RESULT:    -7.818      1.779      2.413
REMARK INTER + INTRA:         -11.808
REMARK INTER:                 -10.878
REMARK INTRA:                  -0.930
REMARK UNBOUND:                -1.247
REMARK SMILES NC(=O)C1(NC(=O)c2ccccc2OCC2CC2)CCOCC1
REMARK SMILES IDX 8 1 9 2 10 3 11 4 12 5 13 6 6 7 5 8 7 10 4 11 19 12 23 13
REMARK SMILES IDX 20 14 22 15 21 16 2 17 1 18 3 21 14 22 15 23 16 24 17 25
REMARK SMILES IDX 18 26
REMARK H PARENT 5 9 1 19 1 20
ROOT
ATOM      1  C   UNL     1       6.222  46.180  52.490  1.00  0.00     0.081 A 
ATOM      2  C   UNL     1       7.132  46.919  53.265  1.00  0.00     0.018 A 
ATOM      3  C   UNL     1       8.439  47.138  52.820  1.00  0.00     0.001 A 
ATOM      4  C   UNL     1       8.850  46.630  51.590  1.00  0.00     0.004 A 
ATOM      5  C   UNL     1       7.961  45.889  50.813  1.00  0.00     0.047 A 
ATOM      6  C   UNL     1       6.662  45.642  51.270  1.00  0.00     0.132 A 
ENDROOT
BRANCH   1   7
ATOM      7  C   UNL     1       4.838  46.018  53.035  1.00  0.00     0.255 C 
ATOM      8  N   UNL     1       4.265  44.768  52.922  1.00  0.00    -0.337 N 
ATOM      9  H   UNL     1       4.766  44.154  52.284  1.00  0.00     0.164 HD
ATOM     10  O   UNL     1       4.270  46.987  53.530  1.00  0.00    -0.269 OA
BRANCH   8  11
ATOM     11  C   UNL     1       2.806  44.503  53.020  1.00  0.00     0.123 C 
ATOM     12  C   UNL     1       2.398  44.772  54.489  1.00  0.00     0.067 C 
ATOM     13  C   UNL     1       1.982  45.367  52.049  1.00  0.00     0.067 C 
ATOM     14  C   UNL     1       0.979  45.295  54.647  1.00  0.00     0.163 C 
ATOM     15  C   UNL     1       0.489  45.439  52.361  1.00  0.00     0.163 C 
ATOM     16  O   UNL     1       0.157  44.807  53.597  1.00  0.00    -0.381 OA
BRANCH  11  17
ATOM     17  C   UNL     1       2.633  42.972  52.738  1.00  0.00     0.243 C 
ATOM     18  N   UNL     1       1.755  42.282  53.522  1.00  0.00    -0.368 N 
ATOM     19  H   UNL     1       1.451  42.663  54.414  1.00  0.00     0.159 HD
ATOM     20  H   UNL     1       1.748  41.276  53.415  1.00  0.00     0.159 HD
ATOM     21  O   UNL     1       3.300  42.350  51.910  1.00  0.00    -0.273 OA
ENDBRANCH  11  17
ENDBRANCH   8  11
ENDBRANCH   1   7
BRANCH   6  22
ATOM     22  O   UNL     1       5.814  44.907  50.478  1.00  0.00    -0.492 OA
BRANCH  22  23
ATOM     23  C   UNL     1       6.542  43.892  49.770  1.00  0.00     0.233 C 
BRANCH  23  24
ATOM     24  C   UNL     1       6.042  42.557  50.233  1.00  0.00     0.027 C 
ATOM     25  C   UNL     1       6.834  41.304  49.963  1.00  0.00     0.007 C 
ATOM     26  C   UNL     1       5.535  41.542  49.241  1.00  0.00     0.007 C 
ENDBRANCH  23  24
ENDBRANCH  22  23
ENDBRANCH   6  22
TORSDOF 6
ENDMDL
MODEL 9
REMARK VINA RESULT:    -7.524      1.664      3.718
REMARK INTER + INTRA:         -11.410
REMARK INTER:                 -11.251
REMARK INTRA:                  -0.159
REMARK UNBOUND:                -1.247
REMARK SMILES NC(=O)C1(NC(=O)c2ccccc2OCC2CC2)CCOCC1
REMARK SMILES IDX 8 1 9 2 10 3 11 4 12 5 13 6 6 7 5 8 7 10 4 11 19 12 23 13
REMARK SMILES IDX 20 14 22 15 21 16 2 17 1 18 3 21 14 22 15 23 16 24 17 25
REMARK SMILES IDX 18 26
REMARK H PARENT 5 9 1 19 1 20
ROOT
ATOM      1  C   UNL     1       5.730  44.533  51.707  1.00  0.00     0.081 A 
ATOM      2  C   UNL     1       5.825  43.514  50.743  1.00  0.00     0.018 A 
ATOM      3  C   UNL     1       6.789  43.570  49.733  1.00  0.00     0.001 A 
ATOM      4  C   UNL     1       7.678  44.641  49.679  1.00  0.00     0.004 A 
ATOM      5  C   UNL     1       7.592  45.664  50.623  1.00  0.00     0.047 A 
ATOM      6  C   UNL     1       6.608  45.624  51.617  1.00  0.00     0.132 A 
ENDROOT
BRANCH   1   7
ATOM      7  C   UNL     1       4.683  44.374  52.765  1.00  0.00     0.255 C 
ATOM      8  N   UNL     1       3.367  44.437  52.354  1.00  0.00    -0.337 N 
ATOM      9  H   UNL     1       3.259  44.802  51.411  1.00  0.00     0.164 HD
ATOM     10  O   UNL     1       5.028  44.221  53.932  1.00  0.00    -0.269 OA
BRANCH   8  11
ATOM     11  C   UNL     1       2.219  44.706  53.259  1.00  0.00     0.123 C 
ATOM     12  C   UNL     1       1.285  43.475  53.178  1.00  0.00     0.067 C 
ATOM     13  C   UNL     1       2.661  44.972  54.710  1.00  0.00     0.067 C 
ATOM     14  C   UNL     1       0.539  43.182  54.470  1.00  0.00     0.163 C 
ATOM     15  C   UNL     1       1.548  44.865  55.749  1.00  0.00     0.163 C 
ATOM     16  O   UNL     1       0.324  44.385  55.194  1.00  0.00    -0.381 OA
BRANCH  11  17
ATOM     17  C   UNL     1       1.468  45.932  52.638  1.00  0.00     0.243 C 
ATOM     18  N   UNL     1       0.144  45.776  52.343  1.00  0.00    -0.368 N 
ATOM     19  H   UNL     1      -0.258  44.846  52.257  1.00  0.00     0.159 HD
ATOM     20  H   UNL     1      -0.294  46.527  51.827  1.00  0.00     0.159 HD
ATOM     21  O   UNL     1       2.021  46.988  52.331  1.00  0.00    -0.273 OA
ENDBRANCH  11  17
ENDBRANCH   8  11
ENDBRANCH   1   7
BRANCH   6  22
ATOM     22  O   UNL     1       6.553  46.650  52.529  1.00  0.00    -0.492 OA
BRANCH  22  23
ATOM     23  C   UNL     1       7.483  46.422  53.599  1.00  0.00     0.233 C 
BRANCH  23  24
ATOM     24  C   UNL     1       8.569  47.449  53.493  1.00  0.00     0.027 C 
ATOM     25  C   UNL     1       9.961  47.054  53.074  1.00  0.00     0.007 C 
ATOM     26  C   UNL     1       9.695  47.480  54.493  1.00  0.00     0.007 C 
ENDBRANCH  23  24
ENDBRANCH  22  23
ENDBRANCH   6  22
TORSDOF 6
ENDMDL
MODEL 10
REMARK VINA RESULT:    -7.344      1.642      5.856
REMARK INTER + INTRA:         -11.167
REMARK INTER:                 -10.420
REMARK INTRA:                  -0.746
REMARK UNBOUND:                -1.247
REMARK SMILES NC(=O)C1(NC(=O)c2ccccc2OCC2CC2)CCOCC1
REMARK SMILES IDX 8 1 9 2 10 3 11 4 12 5 13 6 6 7 5 8 7 10 4 11 19 12 23 13
REMARK SMILES IDX 20 14 22 15 21 16 2 17 1 18 3 21 14 22 15 23 16 24 17 25
REMARK SMILES IDX 18 26
REMARK H PARENT 5 9 1 19 1 20
ROOT
ATOM      1  C   UNL     1       5.271  43.403  50.855  1.00  0.00     0.081 A 
ATOM      2  C   UNL     1       5.802  42.352  50.088  1.00  0.00     0.018 A 
ATOM      3  C   UNL     1       5.011  41.257  49.729  1.00  0.00     0.001 A 
ATOM      4  C   UNL     1       3.677  41.203  50.124  1.00  0.00     0.004 A 
ATOM      5  C   UNL     1       3.137  42.234  50.891  1.00  0.00     0.047 A 
ATOM      6  C   UNL     1       3.935  43.317  51.278  1.00  0.00     0.132 A 
ENDROOT
BRANCH   1   7
ATOM      7  C   UNL     1       6.185  44.545  51.170  1.00  0.00     0.255 C 
ATOM      8  N   UNL     1       6.149  45.036  52.460  1.00  0.00    -0.337 N 
ATOM      9  H   UNL     1       5.347  44.706  52.992  1.00  0.00     0.164 HD
ATOM     10  O   UNL     1       6.898  45.006  50.284  1.00  0.00    -0.269 OA
BRANCH   8  11
ATOM     11  C   UNL     1       6.652  46.376  52.861  1.00  0.00     0.123 C 
ATOM     12  C   UNL     1       7.706  46.147  53.971  1.00  0.00     0.067 C 
ATOM     13  C   UNL     1       7.252  47.159  51.679  1.00  0.00     0.067 C 
ATOM     14  C   UNL     1       8.823  47.178  53.981  1.00  0.00     0.163 C 
ATOM     15  C   UNL     1       8.125  48.348  52.074  1.00  0.00     0.163 C 
ATOM     16  O   UNL     1       8.347  48.420  53.482  1.00  0.00    -0.381 OA
BRANCH  11  17
ATOM     17  C   UNL     1       5.426  47.116  53.496  1.00  0.00     0.243 C 
ATOM     18  N   UNL     1       4.322  47.293  52.713  1.00  0.00    -0.368 N 
ATOM     19  H   UNL     1       4.391  47.215  51.702  1.00  0.00     0.159 HD
ATOM     20  H   UNL     1       3.591  47.881  53.090  1.00  0.00     0.159 HD
ATOM     21  O   UNL     1       5.436  47.611  54.624  1.00  0.00    -0.273 OA
ENDBRANCH  11  17
ENDBRANCH   8  11
ENDBRANCH   1   7
BRANCH   6  22
ATOM     22  O   UNL     1       3.369  44.314  52.035  1.00  0.00    -0.492 OA
BRANCH  22  23
ATOM     23  C   UNL     1       2.711  43.760  53.184  1.00  0.00     0.233 C 
BRANCH  23  24
ATOM     24  C   UNL     1       2.079  44.888  53.942  1.00  0.00     0.027 C 
ATOM     25  C   UNL     1       2.563  45.253  55.321  1.00  0.00     0.007 C 
ATOM     26  C   UNL     1       1.212  44.614  55.143  1.00  0.00     0.007 C 
ENDBRANCH  23  24
ENDBRANCH  22  23
ENDBRANCH   6  22
TORSDOF 6
ENDMDL
