MODEL 1
REMARK VINA RESULT:    -9.276      0.000      0.000
REMARK INTER + INTRA:         -13.203
REMARK INTER:                 -12.530
REMARK INTRA:                  -0.673
REMARK UNBOUND:                -0.673
REMARK SMILES O=C(CCCNc1ncnc2nc[nH]c12)N1CCc2ccccc21
REMARK SMILES IDX 4 1 3 2 2 3 1 4 16 5 17 6 24 7 18 8 23 9 19 10 22 11 20 12
REMARK SMILES IDX 21 13 5 14 6 15 7 17 8 18 15 19 9 20 14 21 11 22 10 23 13 24
REMARK SMILES IDX 12 25
REMARK H PARENT 6 16 14 26
ROOT
ATOM      1  C   UNL     1       4.361  44.993  54.719  1.00  0.00     0.031 C 
ENDROOT
BRANCH   1   2
ATOM      2  C   UNL     1       5.004  46.351  55.023  1.00  0.00     0.102 C 
BRANCH   2   3
ATOM      3  C   UNL     1       5.194  47.238  53.788  1.00  0.00     0.227 C 
ATOM      4  O   UNL     1       4.606  48.319  53.689  1.00  0.00    -0.275 OA
BRANCH   3   5
ATOM      5  N   UNL     1       6.064  46.736  52.834  1.00  0.00    -0.312 N 
ATOM      6  C   UNL     1       5.676  46.097  51.564  1.00  0.00     0.130 C 
ATOM      7  C   UNL     1       7.470  46.801  52.884  1.00  0.00     0.047 A 
ATOM      8  C   UNL     1       6.961  45.708  50.822  1.00  0.00     0.059 C 
ATOM      9  C   UNL     1       8.289  47.323  53.872  1.00  0.00     0.026 A 
ATOM     10  C   UNL     1       8.020  46.230  51.736  1.00  0.00    -0.022 A 
ATOM     11  C   UNL     1       9.675  47.273  53.689  1.00  0.00     0.002 A 
ATOM     12  C   UNL     1       9.392  46.174  51.543  1.00  0.00     0.006 A 
ATOM     13  C   UNL     1      10.223  46.705  52.531  1.00  0.00     0.000 A 
ENDBRANCH   3   5
ENDBRANCH   2   3
ENDBRANCH   1   2
BRANCH   1  14
ATOM     14  C   UNL     1       2.833  45.052  54.576  1.00  0.00     0.115 C 
BRANCH  14  15
ATOM     15  N   UNL     1       2.201  44.577  55.790  1.00  0.00    -0.368 N 
ATOM     16  H   UNL     1       2.303  43.576  55.959  1.00  0.00     0.162 HD
BRANCH  15  17
ATOM     17  C   UNL     1       0.958  45.080  56.123  1.00  0.00     0.155 A 
ATOM     18  N   UNL     1      -0.149  44.796  55.408  1.00  0.00    -0.217 NA
ATOM     19  C   UNL     1       0.793  45.929  57.200  1.00  0.00     0.128 A 
ATOM     20  C   UNL     1      -1.326  45.332  55.797  1.00  0.00     0.226 A 
ATOM     21  N   UNL     1       1.642  46.477  58.122  1.00  0.00    -0.340 N 
ATOM     22  C   UNL     1      -0.451  46.434  57.525  1.00  0.00     0.182 A 
ATOM     23  N   UNL     1      -1.568  46.146  56.834  1.00  0.00    -0.215 NA
ATOM     24  C   UNL     1       0.893  47.259  58.956  1.00  0.00     0.199 A 
ATOM     25  N   UNL     1      -0.379  47.251  58.623  1.00  0.00    -0.217 NA
ATOM     26  H   UNL     1       2.643  46.337  58.160  1.00  0.00     0.168 HD
ENDBRANCH  15  17
ENDBRANCH  14  15
ENDBRANCH   1  14
TORSDOF 6
ENDMDL
MODEL 2
REMARK VINA RESULT:    -9.243      3.558      5.110
REMARK INTER + INTRA:         -13.159
REMARK INTER:                 -11.474
REMARK INTRA:                  -1.685
REMARK UNBOUND:                -0.673
REMARK SMILES O=C(CCCNc1ncnc2nc[nH]c12)N1CCc2ccccc21
REMARK SMILES IDX 4 1 3 2 2 3 1 4 16 5 17 6 24 7 18 8 23 9 19 10 22 11 20 12
REMARK SMILES IDX 21 13 5 14 6 15 7 17 8 18 15 19 9 20 14 21 11 22 10 23 13 24
REMARK SMILES IDX 12 25
REMARK H PARENT 6 16 14 26
ROOT
ATOM      1  C   UNL     1       2.027  44.971  51.185  1.00  0.00     0.031 C 
ENDROOT
BRANCH   1   2
ATOM      2  C   UNL     1       2.104  43.445  51.055  1.00  0.00     0.102 C 
BRANCH   2   3
ATOM      3  C   UNL     1       3.317  42.823  51.755  1.00  0.00     0.227 C 
ATOM      4  O   UNL     1       3.292  42.576  52.964  1.00  0.00    -0.275 OA
BRANCH   3   5
ATOM      5  N   UNL     1       4.399  42.564  50.930  1.00  0.00    -0.312 N 
ATOM      6  C   UNL     1       4.590  41.354  50.112  1.00  0.00     0.130 C 
ATOM      7  C   UNL     1       5.477  43.438  50.684  1.00  0.00     0.047 A 
ATOM      8  C   UNL     1       5.914  41.501  49.355  1.00  0.00     0.059 C 
ATOM      9  C   UNL     1       5.726  44.693  51.212  1.00  0.00     0.026 A 
ATOM     10  C   UNL     1       6.363  42.864  49.771  1.00  0.00    -0.022 A 
ATOM     11  C   UNL     1       6.878  45.375  50.805  1.00  0.00     0.002 A 
ATOM     12  C   UNL     1       7.508  43.529  49.360  1.00  0.00     0.006 A 
ATOM     13  C   UNL     1       7.762  44.797  49.882  1.00  0.00     0.000 A 
ENDBRANCH   3   5
ENDBRANCH   2   3
ENDBRANCH   1   2
BRANCH   1  14
ATOM     14  C   UNL     1       1.102  45.448  52.314  1.00  0.00     0.115 C 
BRANCH  14  15
ATOM     15  N   UNL     1       1.814  45.446  53.575  1.00  0.00    -0.368 N 
ATOM     16  H   UNL     1       1.216  45.469  54.402  1.00  0.00     0.162 HD
BRANCH  15  17
ATOM     17  C   UNL     1       2.955  46.216  53.686  1.00  0.00     0.155 A 
ATOM     18  N   UNL     1       3.047  47.450  53.150  1.00  0.00    -0.217 NA
ATOM     19  C   UNL     1       4.081  45.743  54.333  1.00  0.00     0.128 A 
ATOM     20  C   UNL     1       4.200  48.137  53.299  1.00  0.00     0.226 A 
ATOM     21  N   UNL     1       4.400  44.566  54.954  1.00  0.00    -0.340 N 
ATOM     22  C   UNL     1       5.222  46.515  54.436  1.00  0.00     0.182 A 
ATOM     23  N   UNL     1       5.323  47.754  53.924  1.00  0.00    -0.215 NA
ATOM     24  C   UNL     1       5.684  44.678  55.410  1.00  0.00     0.199 A 
ATOM     25  N   UNL     1       6.208  45.847  55.114  1.00  0.00    -0.217 NA
ATOM     26  H   UNL     1       3.795  43.761  55.040  1.00  0.00     0.168 HD
ENDBRANCH  15  17
ENDBRANCH  14  15
ENDBRANCH   1  14
TORSDOF 6
ENDMDL
MODEL 3
REMARK VINA RESULT:    -9.111      2.639      4.363
REMARK INTER + INTRA:         -12.980
REMARK INTER:                 -12.099
REMARK INTRA:                  -0.881
REMARK UNBOUND:                -0.673
REMARK SMILES O=C(CCCNc1ncnc2nc[nH]c12)N1CCc2ccccc21
REMARK SMILES IDX 4 1 3 2 2 3 1 4 16 5 17 6 24 7 18 8 23 9 19 10 22 11 20 12
REMARK SMILES IDX 21 13 5 14 6 15 7 17 8 18 15 19 9 20 14 21 11 22 10 23 13 24
REMARK SMILES IDX 12 25
REMARK H PARENT 6 16 14 26
ROOT
ATOM      1  C   UNL     1       4.212  45.028  54.858  1.00  0.00     0.031 C 
ENDROOT
BRANCH   1   2
ATOM      2  C   UNL     1       5.037  46.294  55.118  1.00  0.00     0.102 C 
BRANCH   2   3
ATOM      3  C   UNL     1       5.199  47.192  53.887  1.00  0.00     0.227 C 
ATOM      4  O   UNL     1       4.602  48.270  53.806  1.00  0.00    -0.275 OA
BRANCH   3   5
ATOM      5  N   UNL     1       6.056  46.703  52.915  1.00  0.00    -0.312 N 
ATOM      6  C   UNL     1       5.652  46.082  51.642  1.00  0.00     0.130 C 
ATOM      7  C   UNL     1       7.463  46.769  52.947  1.00  0.00     0.047 A 
ATOM      8  C   UNL     1       6.926  45.704  50.877  1.00  0.00     0.059 C 
ATOM      9  C   UNL     1       8.295  47.278  53.930  1.00  0.00     0.026 A 
ATOM     10  C   UNL     1       7.998  46.214  51.783  1.00  0.00    -0.022 A 
ATOM     11  C   UNL     1       9.679  47.231  53.728  1.00  0.00     0.002 A 
ATOM     12  C   UNL     1       9.367  46.162  51.571  1.00  0.00     0.006 A 
ATOM     13  C   UNL     1      10.211  46.679  52.554  1.00  0.00     0.000 A 
ENDBRANCH   3   5
ENDBRANCH   2   3
ENDBRANCH   1   2
BRANCH   1  14
ATOM     14  C   UNL     1       2.714  45.298  54.655  1.00  0.00     0.115 C 
BRANCH  14  15
ATOM     15  N   UNL     1       2.006  44.050  54.459  1.00  0.00    -0.368 N 
ATOM     16  H   UNL     1       2.360  43.268  55.013  1.00  0.00     0.162 HD
BRANCH  15  17
ATOM     17  C   UNL     1       1.630  43.703  53.176  1.00  0.00     0.155 A 
ATOM     18  N   UNL     1       0.429  44.039  52.662  1.00  0.00    -0.217 NA
ATOM     19  C   UNL     1       2.463  42.965  52.357  1.00  0.00     0.128 A 
ATOM     20  C   UNL     1       0.136  43.658  51.400  1.00  0.00     0.226 A 
ATOM     21  N   UNL     1       3.705  42.411  52.511  1.00  0.00    -0.340 N 
ATOM     22  C   UNL     1       2.079  42.617  51.077  1.00  0.00     0.182 A 
ATOM     23  N   UNL     1       0.893  42.959  50.543  1.00  0.00    -0.215 NA
ATOM     24  C   UNL     1       4.020  41.778  51.341  1.00  0.00     0.199 A 
ATOM     25  N   UNL     1       3.057  41.888  50.451  1.00  0.00    -0.217 NA
ATOM     26  H   UNL     1       4.270  42.452  53.349  1.00  0.00     0.168 HD
ENDBRANCH  15  17
ENDBRANCH  14  15
ENDBRANCH   1  14
TORSDOF 6
ENDMDL
MODEL 4
REMARK VINA RESULT:    -9.052      3.583      4.970
REMARK INTER + INTRA:         -12.901
REMARK INTER:                 -12.230
REMARK INTRA:                  -0.671
REMARK UNBOUND:                -0.673
REMARK SMILES O=C(CCCNc1ncnc2nc[nH]c12)N1CCc2ccccc21
REMARK SMILES IDX 4 1 3 2 2 3 1 4 16 5 17 6 24 7 18 8 23 9 19 10 22 11 20 12
REMARK SMILES IDX 21 13 5 14 6 15 7 17 8 18 15 19 9 20 14 21 11 22 10 23 13 24
REMARK SMILES IDX 12 25
REMARK H PARENT 6 16 14 26
ROOT
ATOM      1  C   UNL     1       6.224  41.888  50.080  1.00  0.00     0.031 C 
ENDROOT
BRANCH   1   2
ATOM      2  C   UNL     1       6.508  42.985  49.047  1.00  0.00     0.102 C 
BRANCH   2   3
ATOM      3  C   UNL     1       7.642  43.935  49.447  1.00  0.00     0.227 C 
ATOM      4  O   UNL     1       8.774  43.803  48.972  1.00  0.00    -0.275 OA
BRANCH   3   5
ATOM      5  N   UNL     1       7.286  44.924  50.347  1.00  0.00    -0.312 N 
ATOM      6  C   UNL     1       5.911  45.341  50.673  1.00  0.00     0.130 C 
ATOM      7  C   UNL     1       8.174  45.664  51.154  1.00  0.00     0.047 A 
ATOM      8  C   UNL     1       5.992  46.454  51.725  1.00  0.00     0.059 C 
ATOM      9  C   UNL     1       9.556  45.614  51.209  1.00  0.00     0.026 A 
ATOM     10  C   UNL     1       7.463  46.546  51.969  1.00  0.00    -0.022 A 
ATOM     11  C   UNL     1      10.222  46.458  52.105  1.00  0.00     0.002 A 
ATOM     12  C   UNL     1       8.111  47.388  52.860  1.00  0.00     0.006 A 
ATOM     13  C   UNL     1       9.503  47.337  52.927  1.00  0.00     0.000 A 
ENDBRANCH   3   5
ENDBRANCH   2   3
ENDBRANCH   1   2
BRANCH   1  14
ATOM     14  C   UNL     1       4.758  41.431  50.110  1.00  0.00     0.115 C 
BRANCH  14  15
ATOM     15  N   UNL     1       4.204  41.627  51.433  1.00  0.00    -0.368 N 
ATOM     16  H   UNL     1       4.038  40.767  51.957  1.00  0.00     0.162 HD
BRANCH  15  17
ATOM     17  C   UNL     1       3.221  42.584  51.597  1.00  0.00     0.155 A 
ATOM     18  N   UNL     1       2.141  42.652  50.793  1.00  0.00    -0.217 NA
ATOM     19  C   UNL     1       3.311  43.544  52.587  1.00  0.00     0.128 A 
ATOM     20  C   UNL     1       1.226  43.621  51.018  1.00  0.00     0.226 A 
ATOM     21  N   UNL     1       4.237  43.836  53.551  1.00  0.00    -0.340 N 
ATOM     22  C   UNL     1       2.328  44.501  52.744  1.00  0.00     0.182 A 
ATOM     23  N   UNL     1       1.236  44.572  51.962  1.00  0.00    -0.215 NA
ATOM     24  C   UNL     1       3.780  44.922  54.244  1.00  0.00     0.199 A 
ATOM     25  N   UNL     1       2.625  45.346  53.781  1.00  0.00    -0.217 NA
ATOM     26  H   UNL     1       5.107  43.343  53.703  1.00  0.00     0.168 HD
ENDBRANCH  15  17
ENDBRANCH  14  15
ENDBRANCH   1  14
TORSDOF 6
ENDMDL
MODEL 5
REMARK VINA RESULT:    -8.768      0.999      1.278
REMARK INTER + INTRA:         -12.517
REMARK INTER:                 -11.960
REMARK INTRA:                  -0.557
REMARK UNBOUND:                -0.673
REMARK SMILES O=C(CCCNc1ncnc2nc[nH]c12)N1CCc2ccccc21
REMARK SMILES IDX 4 1 3 2 2 3 1 4 16 5 17 6 24 7 18 8 23 9 19 10 22 11 20 12
REMARK SMILES IDX 21 13 5 14 6 15 7 17 8 18 15 19 9 20 14 21 11 22 10 23 13 24
REMARK SMILES IDX 12 25
REMARK H PARENT 6 16 14 26
ROOT
ATOM      1  C   UNL     1       3.293  44.544  53.459  1.00  0.00     0.031 C 
ENDROOT
BRANCH   1   2
ATOM      2  C   UNL     1       4.675  44.420  52.809  1.00  0.00     0.102 C 
BRANCH   2   3
ATOM      3  C   UNL     1       5.136  45.688  52.084  1.00  0.00     0.227 C 
ATOM      4  O   UNL     1       4.351  46.617  51.872  1.00  0.00    -0.275 OA
BRANCH   3   5
ATOM      5  N   UNL     1       6.470  45.698  51.713  1.00  0.00    -0.312 N 
ATOM      6  C   UNL     1       7.018  45.178  50.448  1.00  0.00     0.130 C 
ATOM      7  C   UNL     1       7.529  46.262  52.454  1.00  0.00     0.047 A 
ATOM      8  C   UNL     1       8.534  45.408  50.462  1.00  0.00     0.059 C 
ATOM      9  C   UNL     1       7.500  46.877  53.694  1.00  0.00     0.026 A 
ATOM     10  C   UNL     1       8.730  46.123  51.758  1.00  0.00    -0.022 A 
ATOM     11  C   UNL     1       8.698  47.364  54.228  1.00  0.00     0.002 A 
ATOM     12  C   UNL     1       9.925  46.602  52.276  1.00  0.00     0.006 A 
ATOM     13  C   UNL     1       9.902  47.230  53.522  1.00  0.00     0.000 A 
ENDBRANCH   3   5
ENDBRANCH   2   3
ENDBRANCH   1   2
BRANCH   1  14
ATOM     14  C   UNL     1       3.307  45.291  54.801  1.00  0.00     0.115 C 
BRANCH  14  15
ATOM     15  N   UNL     1       2.520  44.570  55.780  1.00  0.00    -0.368 N 
ATOM     16  H   UNL     1       2.633  43.556  55.754  1.00  0.00     0.162 HD
BRANCH  15  17
ATOM     17  C   UNL     1       1.223  44.985  56.013  1.00  0.00     0.155 A 
ATOM     18  N   UNL     1       0.196  44.621  55.218  1.00  0.00    -0.217 NA
ATOM     19  C   UNL     1       0.916  45.824  57.066  1.00  0.00     0.128 A 
ATOM     20  C   UNL     1      -1.042  45.073  55.512  1.00  0.00     0.226 A 
ATOM     21  N   UNL     1       1.652  46.435  58.045  1.00  0.00    -0.340 N 
ATOM     22  C   UNL     1      -0.382  46.241  57.292  1.00  0.00     0.182 A 
ATOM     23  N   UNL     1      -1.420  45.872  56.520  1.00  0.00    -0.215 NA
ATOM     24  C   UNL     1       0.788  47.165  58.813  1.00  0.00     0.199 A 
ATOM     25  N   UNL     1      -0.452  47.066  58.384  1.00  0.00    -0.217 NA
ATOM     26  H   UNL     1       2.654  46.366  58.160  1.00  0.00     0.168 HD
ENDBRANCH  15  17
ENDBRANCH  14  15
ENDBRANCH   1  14
TORSDOF 6
ENDMDL
MODEL 6
REMARK VINA RESULT:    -8.687      2.143      3.265
REMARK INTER + INTRA:         -12.408
REMARK INTER:                 -11.557
REMARK INTRA:                  -0.851
REMARK UNBOUND:                -0.673
REMARK SMILES O=C(CCCNc1ncnc2nc[nH]c12)N1CCc2ccccc21
REMARK SMILES IDX 4 1 3 2 2 3 1 4 16 5 17 6 24 7 18 8 23 9 19 10 22 11 20 12
REMARK SMILES IDX 21 13 5 14 6 15 7 17 8 18 15 19 9 20 14 21 11 22 10 23 13 24
REMARK SMILES IDX 12 25
REMARK H PARENT 6 16 14 26
ROOT
ATOM      1  C   UNL     1       4.711  43.211  51.818  1.00  0.00     0.031 C 
ENDROOT
BRANCH   1   2
ATOM      2  C   UNL     1       5.327  44.235  50.858  1.00  0.00     0.102 C 
BRANCH   2   3
ATOM      3  C   UNL     1       5.093  45.692  51.272  1.00  0.00     0.227 C 
ATOM      4  O   UNL     1       4.304  46.407  50.649  1.00  0.00    -0.275 OA
BRANCH   3   5
ATOM      5  N   UNL     1       5.817  46.109  52.376  1.00  0.00    -0.312 N 
ATOM      6  C   UNL     1       5.277  46.327  53.730  1.00  0.00     0.130 C 
ATOM      7  C   UNL     1       7.207  46.341  52.413  1.00  0.00     0.047 A 
ATOM      8  C   UNL     1       6.434  46.771  54.633  1.00  0.00     0.059 C 
ATOM      9  C   UNL     1       8.137  46.252  51.392  1.00  0.00     0.026 A 
ATOM     10  C   UNL     1       7.599  46.712  53.700  1.00  0.00    -0.022 A 
ATOM     11  C   UNL     1       9.477  46.533  51.680  1.00  0.00     0.002 A 
ATOM     12  C   UNL     1       8.924  46.993  53.999  1.00  0.00     0.006 A 
ATOM     13  C   UNL     1       9.868  46.898  52.976  1.00  0.00     0.000 A 
ENDBRANCH   3   5
ENDBRANCH   2   3
ENDBRANCH   1   2
BRANCH   1  14
ATOM     14  C   UNL     1       3.244  42.879  51.509  1.00  0.00     0.115 C 
BRANCH  14  15
ATOM     15  N   UNL     1       2.614  42.281  52.668  1.00  0.00    -0.368 N 
ATOM     16  H   UNL     1       2.632  41.261  52.684  1.00  0.00     0.162 HD
BRANCH  15  17
ATOM     17  C   UNL     1       1.433  42.829  53.129  1.00  0.00     0.155 A 
ATOM     18  N   UNL     1       0.232  42.480  52.625  1.00  0.00    -0.217 NA
ATOM     19  C   UNL     1       1.426  43.792  54.121  1.00  0.00     0.128 A 
ATOM     20  C   UNL     1      -0.876  43.067  53.128  1.00  0.00     0.226 A 
ATOM     21  N   UNL     1       2.402  44.428  54.839  1.00  0.00    -0.340 N 
ATOM     22  C   UNL     1       0.242  44.340  54.574  1.00  0.00     0.182 A 
ATOM     23  N   UNL     1      -0.964  43.990  54.095  1.00  0.00    -0.215 NA
ATOM     24  C   UNL     1       1.783  45.303  55.687  1.00  0.00     0.199 A 
ATOM     25  N   UNL     1       0.475  45.271  55.553  1.00  0.00    -0.217 NA
ATOM     26  H   UNL     1       3.398  44.283  54.739  1.00  0.00     0.168 HD
ENDBRANCH  15  17
ENDBRANCH  14  15
ENDBRANCH   1  14
TORSDOF 6
ENDMDL
MODEL 7
REMARK VINA RESULT:    -8.685      1.774      3.037
REMARK INTER + INTRA:         -12.404
REMARK INTER:                 -11.555
REMARK INTRA:                  -0.849
REMARK UNBOUND:                -0.673
REMARK SMILES O=C(CCCNc1ncnc2nc[nH]c12)N1CCc2ccccc21
REMARK SMILES IDX 4 1 3 2 2 3 1 4 16 5 17 6 24 7 18 8 23 9 19 10 22 11 20 12
REMARK SMILES IDX 21 13 5 14 6 15 7 17 8 18 15 19 9 20 14 21 11 22 10 23 13 24
REMARK SMILES IDX 12 25
REMARK H PARENT 6 16 14 26
ROOT
ATOM      1  C   UNL     1       3.304  46.563  53.793  1.00  0.00     0.031 C 
ENDROOT
BRANCH   1   2
ATOM      2  C   UNL     1       4.345  46.640  52.670  1.00  0.00     0.102 C 
BRANCH   2   3
ATOM      3  C   UNL     1       5.129  45.340  52.462  1.00  0.00     0.227 C 
ATOM      4  O   UNL     1       4.630  44.247  52.746  1.00  0.00    -0.275 OA
BRANCH   3   5
ATOM      5  N   UNL     1       6.399  45.501  51.933  1.00  0.00    -0.312 N 
ATOM      6  C   UNL     1       6.822  45.118  50.574  1.00  0.00     0.130 C 
ATOM      7  C   UNL     1       7.491  46.112  52.579  1.00  0.00     0.047 A 
ATOM      8  C   UNL     1       8.301  45.491  50.420  1.00  0.00     0.059 C 
ATOM      9  C   UNL     1       7.569  46.640  53.857  1.00  0.00     0.026 A 
ATOM     10  C   UNL     1       8.600  46.135  51.733  1.00  0.00    -0.022 A 
ATOM     11  C   UNL     1       8.780  47.203  54.276  1.00  0.00     0.002 A 
ATOM     12  C   UNL     1       9.806  46.690  52.136  1.00  0.00     0.006 A 
ATOM     13  C   UNL     1       9.890  47.231  53.420  1.00  0.00     0.000 A 
ENDBRANCH   3   5
ENDBRANCH   2   3
ENDBRANCH   1   2
BRANCH   1  14
ATOM     14  C   UNL     1       3.893  46.176  55.157  1.00  0.00     0.115 C 
BRANCH  14  15
ATOM     15  N   UNL     1       3.262  44.968  55.646  1.00  0.00    -0.368 N 
ATOM     16  H   UNL     1       3.775  44.108  55.445  1.00  0.00     0.162 HD
BRANCH  15  17
ATOM     17  C   UNL     1       1.891  44.846  55.521  1.00  0.00     0.155 A 
ATOM     18  N   UNL     1       1.034  45.472  56.352  1.00  0.00    -0.217 NA
ATOM     19  C   UNL     1       1.327  44.048  54.544  1.00  0.00     0.128 A 
ATOM     20  C   UNL     1      -0.292  45.298  56.165  1.00  0.00     0.226 A 
ATOM     21  N   UNL     1       1.834  43.240  53.563  1.00  0.00    -0.340 N 
ATOM     22  C   UNL     1      -0.044  43.926  54.427  1.00  0.00     0.182 A 
ATOM     23  N   UNL     1      -0.912  44.557  55.236  1.00  0.00    -0.215 NA
ATOM     24  C   UNL     1       0.774  42.687  52.899  1.00  0.00     0.199 A 
ATOM     25  N   UNL     1      -0.376  43.086  53.396  1.00  0.00    -0.217 NA
ATOM     26  H   UNL     1       2.815  43.074  53.382  1.00  0.00     0.168 HD
ENDBRANCH  15  17
ENDBRANCH  14  15
ENDBRANCH   1  14
TORSDOF 6
ENDMDL
MODEL 8
REMARK VINA RESULT:    -8.669      3.654      5.748
REMARK INTER + INTRA:         -12.383
REMARK INTER:                 -11.134
REMARK INTRA:                  -1.250
REMARK UNBOUND:                -0.673
REMARK SMILES O=C(CCCNc1ncnc2nc[nH]c12)N1CCc2ccccc21
REMARK SMILES IDX 4 1 3 2 2 3 1 4 16 5 17 6 24 7 18 8 23 9 19 10 22 11 20 12
REMARK SMILES IDX 21 13 5 14 6 15 7 17 8 18 15 19 9 20 14 21 11 22 10 23 13 24
REMARK SMILES IDX 12 25
REMARK H PARENT 6 16 14 26
ROOT
ATOM      1  C   UNL     1       3.113  45.972  51.126  1.00  0.00     0.031 C 
ENDROOT
BRANCH   1   2
ATOM      2  C   UNL     1       2.672  44.505  51.149  1.00  0.00     0.102 C 
BRANCH   2   3
ATOM      3  C   UNL     1       3.677  43.565  51.823  1.00  0.00     0.227 C 
ATOM      4  O   UNL     1       3.646  43.374  53.042  1.00  0.00    -0.275 OA
BRANCH   3   5
ATOM      5  N   UNL     1       4.583  42.964  50.965  1.00  0.00    -0.312 N 
ATOM      6  C   UNL     1       4.432  41.638  50.342  1.00  0.00     0.130 C 
ATOM      7  C   UNL     1       5.778  43.541  50.490  1.00  0.00     0.047 A 
ATOM      8  C   UNL     1       5.663  41.387  49.463  1.00  0.00     0.059 C 
ATOM      9  C   UNL     1       6.333  44.775  50.785  1.00  0.00     0.026 A 
ATOM     10  C   UNL     1       6.420  42.666  49.613  1.00  0.00    -0.022 A 
ATOM     11  C   UNL     1       7.544  45.127  50.178  1.00  0.00     0.002 A 
ATOM     12  C   UNL     1       7.620  43.003  49.005  1.00  0.00     0.006 A 
ATOM     13  C   UNL     1       8.181  44.248  49.292  1.00  0.00     0.000 A 
ENDBRANCH   3   5
ENDBRANCH   2   3
ENDBRANCH   1   2
BRANCH   1  14
ATOM     14  C   UNL     1       2.556  46.804  52.291  1.00  0.00     0.115 C 
BRANCH  14  15
ATOM     15  N   UNL     1       3.618  47.573  52.905  1.00  0.00    -0.368 N 
ATOM     16  H   UNL     1       4.027  48.289  52.304  1.00  0.00     0.162 HD
BRANCH  15  17
ATOM     17  C   UNL     1       4.537  46.909  53.694  1.00  0.00     0.155 A 
ATOM     18  N   UNL     1       4.167  46.113  54.718  1.00  0.00    -0.217 NA
ATOM     19  C   UNL     1       5.896  47.051  53.487  1.00  0.00     0.128 A 
ATOM     20  C   UNL     1       5.129  45.503  55.444  1.00  0.00     0.226 A 
ATOM     21  N   UNL     1       6.657  47.775  52.610  1.00  0.00    -0.340 N 
ATOM     22  C   UNL     1       6.811  46.389  54.282  1.00  0.00     0.182 A 
ATOM     23  N   UNL     1       6.459  45.578  55.295  1.00  0.00    -0.215 NA
ATOM     24  C   UNL     1       7.969  47.516  52.893  1.00  0.00     0.199 A 
ATOM     25  N   UNL     1       8.095  46.678  53.899  1.00  0.00    -0.217 NA
ATOM     26  H   UNL     1       6.303  48.399  51.897  1.00  0.00     0.168 HD
ENDBRANCH  15  17
ENDBRANCH  14  15
ENDBRANCH   1  14
TORSDOF 6
ENDMDL
MODEL 9
REMARK VINA RESULT:    -8.575      2.375      3.982
REMARK INTER + INTRA:         -12.256
REMARK INTER:                 -11.309
REMARK INTRA:                  -0.947
REMARK UNBOUND:                -0.673
REMARK SMILES O=C(CCCNc1ncnc2nc[nH]c12)N1CCc2ccccc21
REMARK SMILES IDX 4 1 3 2 2 3 1 4 16 5 17 6 24 7 18 8 23 9 19 10 22 11 20 12
REMARK SMILES IDX 21 13 5 14 6 15 7 17 8 18 15 19 9 20 14 21 11 22 10 23 13 24
REMARK SMILES IDX 12 25
REMARK H PARENT 6 16 14 26
ROOT
ATOM      1  C   UNL     1       6.137  46.185  54.586  1.00  0.00     0.031 C 
ENDROOT
BRANCH   1   2
ATOM      2  C   UNL     1       6.912  45.739  53.340  1.00  0.00     0.102 C 
BRANCH   2   3
ATOM      3  C   UNL     1       6.103  45.828  52.042  1.00  0.00     0.227 C 
ATOM      4  O   UNL     1       5.207  46.667  51.910  1.00  0.00    -0.275 OA
BRANCH   3   5
ATOM      5  N   UNL     1       6.467  44.919  51.063  1.00  0.00    -0.312 N 
ATOM      6  C   UNL     1       7.650  45.018  50.191  1.00  0.00     0.130 C 
ATOM      7  C   UNL     1       5.803  43.711  50.770  1.00  0.00     0.047 A 
ATOM      8  C   UNL     1       7.662  43.790  49.271  1.00  0.00     0.059 C 
ATOM      9  C   UNL     1       4.655  43.182  51.336  1.00  0.00     0.026 A 
ATOM     10  C   UNL     1       6.471  43.029  49.752  1.00  0.00    -0.022 A 
ATOM     11  C   UNL     1       4.186  41.949  50.871  1.00  0.00     0.002 A 
ATOM     12  C   UNL     1       6.016  41.805  49.283  1.00  0.00     0.006 A 
ATOM     13  C   UNL     1       4.864  41.263  49.853  1.00  0.00     0.000 A 
ENDBRANCH   3   5
ENDBRANCH   2   3
ENDBRANCH   1   2
BRANCH   1  14
ATOM     14  C   UNL     1       5.312  45.063  55.233  1.00  0.00     0.115 C 
BRANCH  14  15
ATOM     15  N   UNL     1       4.054  45.589  55.721  1.00  0.00    -0.368 N 
ATOM     16  H   UNL     1       3.959  45.591  56.737  1.00  0.00     0.162 HD
BRANCH  15  17
ATOM     17  C   UNL     1       2.896  45.251  55.048  1.00  0.00     0.155 A 
ATOM     18  N   UNL     1       2.883  44.982  53.727  1.00  0.00    -0.217 NA
ATOM     19  C   UNL     1       1.678  45.197  55.698  1.00  0.00     0.128 A 
ATOM     20  C   UNL     1       1.707  44.663  53.143  1.00  0.00     0.226 A 
ATOM     21  N   UNL     1       1.271  45.433  56.983  1.00  0.00    -0.340 N 
ATOM     22  C   UNL     1       0.522  44.863  55.020  1.00  0.00     0.182 A 
ATOM     23  N   UNL     1       0.494  44.574  53.707  1.00  0.00    -0.215 NA
ATOM     24  C   UNL     1      -0.079  45.223  57.031  1.00  0.00     0.199 A 
ATOM     25  N   UNL     1      -0.562  44.873  55.859  1.00  0.00    -0.217 NA
ATOM     26  H   UNL     1       1.866  45.727  57.746  1.00  0.00     0.168 HD
ENDBRANCH  15  17
ENDBRANCH  14  15
ENDBRANCH   1  14
TORSDOF 6
ENDMDL
MODEL 10
REMARK VINA RESULT:    -8.504      1.885      2.670
REMARK INTER + INTRA:         -12.160
REMARK INTER:                 -11.412
REMARK INTRA:                  -0.748
REMARK UNBOUND:                -0.673
REMARK SMILES O=C(CCCNc1ncnc2nc[nH]c12)N1CCc2ccccc21
REMARK SMILES IDX 4 1 3 2 2 3 1 4 16 5 17 6 24 7 18 8 23 9 19 10 22 11 20 12
REMARK SMILES IDX 21 13 5 14 6 15 7 17 8 18 15 19 9 20 14 21 11 22 10 23 13 24
REMARK SMILES IDX 12 25
REMARK H PARENT 6 16 14 26
ROOT
ATOM      1  C   UNL     1       4.416  45.124  55.030  1.00  0.00     0.031 C 
ENDROOT
BRANCH   1   2
ATOM      2  C   UNL     1       5.289  46.380  55.122  1.00  0.00     0.102 C 
BRANCH   2   3
ATOM      3  C   UNL     1       5.333  47.202  53.829  1.00  0.00     0.227 C 
ATOM      4  O   UNL     1       4.684  48.246  53.721  1.00  0.00    -0.275 OA
BRANCH   3   5
ATOM      5  N   UNL     1       6.148  46.686  52.836  1.00  0.00    -0.312 N 
ATOM      6  C   UNL     1       5.691  46.046  51.590  1.00  0.00     0.130 C 
ATOM      7  C   UNL     1       7.556  46.737  52.814  1.00  0.00     0.047 A 
ATOM      8  C   UNL     1       6.932  45.640  50.786  1.00  0.00     0.059 C 
ATOM      9  C   UNL     1       8.429  47.255  53.757  1.00  0.00     0.026 A 
ATOM     10  C   UNL     1       8.041  46.155  51.643  1.00  0.00    -0.022 A 
ATOM     11  C   UNL     1       9.803  47.189  53.504  1.00  0.00     0.002 A 
ATOM     12  C   UNL     1       9.401  46.084  51.380  1.00  0.00     0.006 A 
ATOM     13  C   UNL     1      10.286  46.611  52.322  1.00  0.00     0.000 A 
ENDBRANCH   3   5
ENDBRANCH   2   3
ENDBRANCH   1   2
BRANCH   1  14
ATOM     14  C   UNL     1       2.930  45.381  55.318  1.00  0.00     0.115 C 
BRANCH  14  15
ATOM     15  N   UNL     1       2.174  45.366  54.083  1.00  0.00    -0.368 N 
ATOM     16  H   UNL     1       1.858  46.284  53.766  1.00  0.00     0.162 HD
BRANCH  15  17
ATOM     17  C   UNL     1       1.250  44.357  53.891  1.00  0.00     0.155 A 
ATOM     18  N   UNL     1       1.535  43.245  53.184  1.00  0.00    -0.217 NA
ATOM     19  C   UNL     1      -0.032  44.451  54.397  1.00  0.00     0.128 A 
ATOM     20  C   UNL     1       0.575  42.307  53.038  1.00  0.00     0.226 A 
ATOM     21  N   UNL     1      -0.708  45.403  55.110  1.00  0.00    -0.340 N 
ATOM     22  C   UNL     1      -0.953  43.442  54.197  1.00  0.00     0.182 A 
ATOM     23  N   UNL     1      -0.680  42.319  53.510  1.00  0.00    -0.215 NA
ATOM     24  C   UNL     1      -1.975  44.935  55.320  1.00  0.00     0.199 A 
ATOM     25  N   UNL     1      -2.154  43.748  54.783  1.00  0.00    -0.217 NA
ATOM     26  H   UNL     1      -0.335  46.295  55.406  1.00  0.00     0.168 HD
ENDBRANCH  15  17
ENDBRANCH  14  15
ENDBRANCH   1  14
TORSDOF 6
ENDMDL
