MODEL 1
REMARK VINA RESULT:    -9.175      0.000      0.000
REMARK INTER + INTRA:         -12.825
REMARK INTER:                 -12.394
REMARK INTRA:                  -0.431
REMARK UNBOUND:                -0.431
REMARK SMILES COc1ccccc1CN(CC1CCCO1)c1ncnc2[nH]ccc12
REMARK SMILES IDX 9 1 8 2 3 3 4 4 5 5 7 6 6 7 2 8 1 9 10 10 11 11 12 12 13 13
REMARK SMILES IDX 16 14 14 15 15 16 17 17 18 18 25 19 19 20 24 21 21 22 20 23
REMARK SMILES IDX 23 24 22 25
REMARK H PARENT 22 26
ROOT
ATOM      1  C   UNL     1       5.131  45.892  51.298  1.00  0.00     0.157 C 
ENDROOT
BRANCH   1   2
ATOM      2  C   UNL     1       6.021  44.874  50.611  1.00  0.00     0.013 A 
ATOM      3  C   UNL     1       5.635  43.532  50.480  1.00  0.00     0.123 A 
ATOM      4  C   UNL     1       6.454  42.608  49.828  1.00  0.00     0.047 A 
ATOM      5  C   UNL     1       7.691  43.007  49.325  1.00  0.00     0.004 A 
ATOM      6  C   UNL     1       7.268  45.260  50.095  1.00  0.00     0.009 A 
ATOM      7  C   UNL     1       8.099  44.333  49.461  1.00  0.00     0.001 A 
BRANCH   3   8
ATOM      8  O   UNL     1       4.400  43.132  50.923  1.00  0.00    -0.496 OA
ATOM      9  C   UNL     1       4.293  41.710  50.881  1.00  0.00     0.278 C 
ENDBRANCH   3   8
ENDBRANCH   1   2
BRANCH   1  10
ATOM     10  N   UNL     1       5.480  46.037  52.720  1.00  0.00    -0.349 N 
BRANCH  10  11
ATOM     11  C   UNL     1       6.348  47.176  53.089  1.00  0.00     0.150 C 
BRANCH  11  12
ATOM     12  C   UNL     1       7.716  46.782  53.683  1.00  0.00     0.137 C 
ATOM     13  C   UNL     1       8.865  47.079  52.729  1.00  0.00     0.036 C 
ATOM     14  O   UNL     1       8.017  47.541  54.875  1.00  0.00    -0.376 OA
ATOM     15  C   UNL     1      10.032  47.173  53.679  1.00  0.00     0.031 C 
ATOM     16  C   UNL     1       9.412  47.875  54.867  1.00  0.00     0.160 C 
ENDBRANCH  11  12
ENDBRANCH  10  11
BRANCH  10  17
ATOM     17  C   UNL     1       4.373  45.897  53.574  1.00  0.00     0.141 A 
ATOM     18  N   UNL     1       4.544  45.877  54.923  1.00  0.00    -0.219 NA
ATOM     19  C   UNL     1       3.052  45.782  53.091  1.00  0.00     0.061 A 
ATOM     20  C   UNL     1       3.469  45.732  55.721  1.00  0.00     0.226 A 
ATOM     21  C   UNL     1       2.411  45.798  51.817  1.00  0.00     0.033 A 
ATOM     22  C   UNL     1       2.045  45.634  54.032  1.00  0.00     0.142 A 
ATOM     23  N   UNL     1       2.181  45.592  55.365  1.00  0.00    -0.218 NA
ATOM     24  C   UNL     1       1.055  45.642  52.022  1.00  0.00     0.085 A 
ATOM     25  N   UNL     1       0.849  45.542  53.374  1.00  0.00    -0.346 N 
ATOM     26  H   UNL     1      -0.039  45.434  53.840  1.00  0.00     0.167 HD
ENDBRANCH  10  17
ENDBRANCH   1  10
TORSDOF 6
ENDMDL
MODEL 2
REMARK VINA RESULT:    -9.000      0.937      1.849
REMARK INTER + INTRA:         -12.589
REMARK INTER:                 -12.153
REMARK INTRA:                  -0.436
REMARK UNBOUND:                -0.431
REMARK SMILES COc1ccccc1CN(CC1CCCO1)c1ncnc2[nH]ccc12
REMARK SMILES IDX 9 1 8 2 3 3 4 4 5 5 7 6 6 7 2 8 1 9 10 10 11 11 12 12 13 13
REMARK SMILES IDX 16 14 14 15 15 16 17 17 18 18 25 19 19 20 24 21 21 22 20 23
REMARK SMILES IDX 23 24 22 25
REMARK H PARENT 22 26
ROOT
ATOM      1  C   UNL     1       4.893  45.384  51.119  1.00  0.00     0.157 C 
ENDROOT
BRANCH   1   2
ATOM      2  C   UNL     1       5.287  43.980  50.704  1.00  0.00     0.013 A 
ATOM      3  C   UNL     1       6.503  43.720  50.055  1.00  0.00     0.123 A 
ATOM      4  C   UNL     1       6.864  42.420  49.697  1.00  0.00     0.047 A 
ATOM      5  C   UNL     1       5.996  41.360  49.952  1.00  0.00     0.004 A 
ATOM      6  C   UNL     1       4.427  42.900  50.959  1.00  0.00     0.009 A 
ATOM      7  C   UNL     1       4.777  41.601  50.582  1.00  0.00     0.001 A 
BRANCH   3   8
ATOM      8  O   UNL     1       7.392  44.743  49.841  1.00  0.00    -0.496 OA
ATOM      9  C   UNL     1       8.612  44.236  49.303  1.00  0.00     0.278 C 
ENDBRANCH   3   8
ENDBRANCH   1   2
BRANCH   1  10
ATOM     10  N   UNL     1       5.412  45.713  52.456  1.00  0.00    -0.349 N 
BRANCH  10  11
ATOM     11  C   UNL     1       6.314  46.880  52.562  1.00  0.00     0.150 C 
BRANCH  11  12
ATOM     12  C   UNL     1       7.670  46.592  53.239  1.00  0.00     0.137 C 
ATOM     13  C   UNL     1       8.849  46.950  52.344  1.00  0.00     0.036 C 
ATOM     14  O   UNL     1       7.850  47.390  54.430  1.00  0.00    -0.376 OA
ATOM     15  C   UNL     1       9.950  47.140  53.355  1.00  0.00     0.031 C 
ATOM     16  C   UNL     1       9.218  47.818  54.492  1.00  0.00     0.160 C 
ENDBRANCH  11  12
ENDBRANCH  10  11
BRANCH  10  17
ATOM     17  C   UNL     1       4.417  45.704  53.449  1.00  0.00     0.141 A 
ATOM     18  N   UNL     1       4.758  45.725  54.765  1.00  0.00    -0.219 NA
ATOM     19  C   UNL     1       3.039  45.682  53.141  1.00  0.00     0.061 A 
ATOM     20  C   UNL     1       3.787  45.705  55.698  1.00  0.00     0.226 A 
ATOM     21  C   UNL     1       2.242  45.700  51.959  1.00  0.00     0.033 A 
ATOM     22  C   UNL     1       2.154  45.660  54.208  1.00  0.00     0.142 A 
ATOM     23  N   UNL     1       2.457  45.661  55.514  1.00  0.00    -0.218 NA
ATOM     24  C   UNL     1       0.916  45.668  52.340  1.00  0.00     0.085 A 
ATOM     25  N   UNL     1       0.879  45.643  53.710  1.00  0.00    -0.346 N 
ATOM     26  H   UNL     1       0.053  45.630  54.290  1.00  0.00     0.167 HD
ENDBRANCH  10  17
ENDBRANCH   1  10
TORSDOF 6
ENDMDL
MODEL 3
REMARK VINA RESULT:    -8.957      1.231      2.223
REMARK INTER + INTRA:         -12.530
REMARK INTER:                 -11.445
REMARK INTRA:                  -1.085
REMARK UNBOUND:                -0.431
REMARK SMILES COc1ccccc1CN(CC1CCCO1)c1ncnc2[nH]ccc12
REMARK SMILES IDX 9 1 8 2 3 3 4 4 5 5 7 6 6 7 2 8 1 9 10 10 11 11 12 12 13 13
REMARK SMILES IDX 16 14 14 15 15 16 17 17 18 18 25 19 19 20 24 21 21 22 20 23
REMARK SMILES IDX 23 24 22 25
REMARK H PARENT 22 26
ROOT
ATOM      1  C   UNL     1       5.848  45.475  50.359  1.00  0.00     0.157 C 
ENDROOT
BRANCH   1   2
ATOM      2  C   UNL     1       6.060  43.983  50.200  1.00  0.00     0.013 A 
ATOM      3  C   UNL     1       5.093  43.056  50.616  1.00  0.00     0.123 A 
ATOM      4  C   UNL     1       5.290  41.684  50.446  1.00  0.00     0.047 A 
ATOM      5  C   UNL     1       6.477  41.215  49.886  1.00  0.00     0.004 A 
ATOM      6  C   UNL     1       7.248  43.493  49.633  1.00  0.00     0.009 A 
ATOM      7  C   UNL     1       7.456  42.120  49.481  1.00  0.00     0.001 A 
BRANCH   3   8
ATOM      8  O   UNL     1       3.897  43.500  51.123  1.00  0.00    -0.496 OA
ATOM      9  C   UNL     1       3.466  42.658  52.191  1.00  0.00     0.278 C 
ENDBRANCH   3   8
ENDBRANCH   1   2
BRANCH   1  10
ATOM     10  N   UNL     1       6.113  45.910  51.740  1.00  0.00    -0.349 N 
BRANCH  10  11
ATOM     11  C   UNL     1       7.156  46.940  51.934  1.00  0.00     0.150 C 
BRANCH  11  12
ATOM     12  C   UNL     1       8.117  46.674  53.111  1.00  0.00     0.137 C 
ATOM     13  C   UNL     1       9.572  46.923  52.735  1.00  0.00     0.036 C 
ATOM     14  O   UNL     1       7.862  47.565  54.220  1.00  0.00    -0.376 OA
ATOM     15  C   UNL     1      10.197  47.169  54.085  1.00  0.00     0.031 C 
ATOM     16  C   UNL     1       9.117  47.960  54.790  1.00  0.00     0.160 C 
ENDBRANCH  11  12
ENDBRANCH  10  11
BRANCH  10  17
ATOM     17  C   UNL     1       4.939  46.181  52.464  1.00  0.00     0.141 A 
ATOM     18  N   UNL     1       3.913  46.857  51.883  1.00  0.00    -0.219 NA
ATOM     19  C   UNL     1       4.761  45.766  53.801  1.00  0.00     0.061 A 
ATOM     20  C   UNL     1       2.802  47.113  52.600  1.00  0.00     0.226 A 
ATOM     21  C   UNL     1       5.508  45.024  54.764  1.00  0.00     0.033 A 
ATOM     22  C   UNL     1       3.565  46.105  54.414  1.00  0.00     0.142 A 
ATOM     23  N   UNL     1       2.543  46.786  53.877  1.00  0.00    -0.218 NA
ATOM     24  C   UNL     1       4.760  44.954  55.921  1.00  0.00     0.085 A 
ATOM     25  N   UNL     1       3.582  45.618  55.693  1.00  0.00    -0.346 N 
ATOM     26  H   UNL     1       2.820  45.731  56.345  1.00  0.00     0.167 HD
ENDBRANCH  10  17
ENDBRANCH   1  10
TORSDOF 6
ENDMDL
MODEL 4
REMARK VINA RESULT:    -8.585      0.938      4.451
REMARK INTER + INTRA:         -12.027
REMARK INTER:                 -11.530
REMARK INTRA:                  -0.497
REMARK UNBOUND:                -0.431
REMARK SMILES COc1ccccc1CN(CC1CCCO1)c1ncnc2[nH]ccc12
REMARK SMILES IDX 9 1 8 2 3 3 4 4 5 5 7 6 6 7 2 8 1 9 10 10 11 11 12 12 13 13
REMARK SMILES IDX 16 14 14 15 15 16 17 17 18 18 25 19 19 20 24 21 21 22 20 23
REMARK SMILES IDX 23 24 22 25
REMARK H PARENT 22 26
ROOT
ATOM      1  C   UNL     1       6.177  47.063  52.309  1.00  0.00     0.157 C 
ENDROOT
BRANCH   1   2
ATOM      2  C   UNL     1       7.642  46.688  52.204  1.00  0.00     0.013 A 
ATOM      3  C   UNL     1       8.542  46.943  53.250  1.00  0.00     0.123 A 
ATOM      4  C   UNL     1       9.885  46.575  53.150  1.00  0.00     0.047 A 
ATOM      5  C   UNL     1      10.358  45.975  51.985  1.00  0.00     0.004 A 
ATOM      6  C   UNL     1       8.135  46.079  51.039  1.00  0.00     0.009 A 
ATOM      7  C   UNL     1       9.483  45.729  50.929  1.00  0.00     0.001 A 
BRANCH   3   8
ATOM      8  O   UNL     1       8.084  47.486  54.424  1.00  0.00    -0.496 OA
ATOM      9  C   UNL     1       9.131  48.199  55.083  1.00  0.00     0.278 C 
ENDBRANCH   3   8
ENDBRANCH   1   2
BRANCH   1  10
ATOM     10  N   UNL     1       5.314  45.872  52.248  1.00  0.00    -0.349 N 
BRANCH  10  11
ATOM     11  C   UNL     1       5.977  44.569  52.021  1.00  0.00     0.150 C 
BRANCH  11  12
ATOM     12  C   UNL     1       5.327  43.693  50.931  1.00  0.00     0.137 C 
ATOM     13  C   UNL     1       6.353  42.866  50.169  1.00  0.00     0.036 C 
ATOM     14  O   UNL     1       4.416  42.725  51.499  1.00  0.00    -0.376 OA
ATOM     15  C   UNL     1       5.501  41.745  49.631  1.00  0.00     0.031 C 
ATOM     16  C   UNL     1       4.555  41.489  50.784  1.00  0.00     0.160 C 
ENDBRANCH  11  12
ENDBRANCH  10  11
BRANCH  10  17
ATOM     17  C   UNL     1       4.366  45.827  53.284  1.00  0.00     0.141 A 
ATOM     18  N   UNL     1       4.763  45.897  54.583  1.00  0.00    -0.219 NA
ATOM     19  C   UNL     1       2.980  45.720  53.040  1.00  0.00     0.061 A 
ATOM     20  C   UNL     1       3.838  45.842  55.559  1.00  0.00     0.226 A 
ATOM     21  C   UNL     1       2.131  45.666  51.895  1.00  0.00     0.033 A 
ATOM     22  C   UNL     1       2.146  45.670  54.146  1.00  0.00     0.142 A 
ATOM     23  N   UNL     1       2.506  45.717  55.437  1.00  0.00    -0.218 NA
ATOM     24  C   UNL     1       0.828  45.566  52.337  1.00  0.00     0.085 A 
ATOM     25  N   UNL     1       0.853  45.569  53.707  1.00  0.00    -0.346 N 
ATOM     26  H   UNL     1       0.056  45.521  54.324  1.00  0.00     0.167 HD
ENDBRANCH  10  17
ENDBRANCH   1  10
TORSDOF 6
ENDMDL
MODEL 5
REMARK VINA RESULT:    -8.483      2.208      5.306
REMARK INTER + INTRA:         -11.891
REMARK INTER:                 -11.782
REMARK INTRA:                  -0.109
REMARK UNBOUND:                -0.431
REMARK SMILES COc1ccccc1CN(CC1CCCO1)c1ncnc2[nH]ccc12
REMARK SMILES IDX 9 1 8 2 3 3 4 4 5 5 7 6 6 7 2 8 1 9 10 10 11 11 12 12 13 13
REMARK SMILES IDX 16 14 14 15 15 16 17 17 18 18 25 19 19 20 24 21 21 22 20 23
REMARK SMILES IDX 23 24 22 25
REMARK H PARENT 22 26
ROOT
ATOM      1  C   UNL     1       5.641  44.487  53.019  1.00  0.00     0.157 C 
ENDROOT
BRANCH   1   2
ATOM      2  C   UNL     1       4.171  44.639  53.355  1.00  0.00     0.013 A 
ATOM      3  C   UNL     1       3.730  45.557  54.319  1.00  0.00     0.123 A 
ATOM      4  C   UNL     1       2.371  45.704  54.605  1.00  0.00     0.047 A 
ATOM      5  C   UNL     1       1.432  44.906  53.953  1.00  0.00     0.004 A 
ATOM      6  C   UNL     1       3.211  43.847  52.704  1.00  0.00     0.009 A 
ATOM      7  C   UNL     1       1.853  43.977  53.004  1.00  0.00     0.001 A 
BRANCH   3   8
ATOM      8  O   UNL     1       4.634  46.386  54.934  1.00  0.00    -0.496 OA
ATOM      9  C   UNL     1       4.375  47.746  54.590  1.00  0.00     0.278 C 
ENDBRANCH   3   8
ENDBRANCH   1   2
BRANCH   1  10
ATOM     10  N   UNL     1       6.027  45.355  51.895  1.00  0.00    -0.349 N 
BRANCH  10  11
ATOM     11  C   UNL     1       6.712  46.623  52.227  1.00  0.00     0.150 C 
BRANCH  11  12
ATOM     12  C   UNL     1       7.815  46.503  53.299  1.00  0.00     0.137 C 
ATOM     13  C   UNL     1       9.207  46.719  52.720  1.00  0.00     0.036 C 
ATOM     14  O   UNL     1       7.676  47.514  54.321  1.00  0.00    -0.376 OA
ATOM     15  C   UNL     1       9.986  47.124  53.945  1.00  0.00     0.031 C 
ATOM     16  C   UNL     1       8.982  47.983  54.684  1.00  0.00     0.160 C 
ENDBRANCH  11  12
ENDBRANCH  10  11
BRANCH  10  17
ATOM     17  C   UNL     1       6.655  44.655  50.851  1.00  0.00     0.141 A 
ATOM     18  N   UNL     1       7.789  45.142  50.281  1.00  0.00    -0.219 NA
ATOM     19  C   UNL     1       6.160  43.430  50.355  1.00  0.00     0.061 A 
ATOM     20  C   UNL     1       8.367  44.458  49.275  1.00  0.00     0.226 A 
ATOM     21  C   UNL     1       5.079  42.551  50.658  1.00  0.00     0.033 A 
ATOM     22  C   UNL     1       6.859  42.842  49.312  1.00  0.00     0.142 A 
ATOM     23  N   UNL     1       7.967  43.305  48.716  1.00  0.00    -0.218 NA
ATOM     24  C   UNL     1       5.144  41.481  49.788  1.00  0.00     0.085 A 
ATOM     25  N   UNL     1       6.231  41.674  48.976  1.00  0.00    -0.346 N 
ATOM     26  H   UNL     1       6.551  41.057  48.244  1.00  0.00     0.167 HD
ENDBRANCH  10  17
ENDBRANCH   1  10
TORSDOF 6
ENDMDL
MODEL 6
REMARK VINA RESULT:    -8.448      2.204      6.493
REMARK INTER + INTRA:         -11.843
REMARK INTER:                 -10.980
REMARK INTRA:                  -0.862
REMARK UNBOUND:                -0.431
REMARK SMILES COc1ccccc1CN(CC1CCCO1)c1ncnc2[nH]ccc12
REMARK SMILES IDX 9 1 8 2 3 3 4 4 5 5 7 6 6 7 2 8 1 9 10 10 11 11 12 12 13 13
REMARK SMILES IDX 16 14 14 15 15 16 17 17 18 18 25 19 19 20 24 21 21 22 20 23
REMARK SMILES IDX 23 24 22 25
REMARK H PARENT 22 26
ROOT
ATOM      1  C   UNL     1       5.568  46.857  52.275  1.00  0.00     0.157 C 
ENDROOT
BRANCH   1   2
ATOM      2  C   UNL     1       4.187  46.478  52.775  1.00  0.00     0.013 A 
ATOM      3  C   UNL     1       3.968  46.099  54.108  1.00  0.00     0.123 A 
ATOM      4  C   UNL     1       2.688  45.773  54.562  1.00  0.00     0.047 A 
ATOM      5  C   UNL     1       1.611  45.787  53.678  1.00  0.00     0.004 A 
ATOM      6  C   UNL     1       3.090  46.492  51.899  1.00  0.00     0.009 A 
ATOM      7  C   UNL     1       1.813  46.145  52.346  1.00  0.00     0.001 A 
BRANCH   3   8
ATOM      8  O   UNL     1       5.006  46.129  55.004  1.00  0.00    -0.496 OA
ATOM      9  C   UNL     1       5.410  44.802  55.340  1.00  0.00     0.278 C 
ENDBRANCH   3   8
ENDBRANCH   1   2
BRANCH   1  10
ATOM     10  N   UNL     1       6.352  45.665  51.914  1.00  0.00    -0.349 N 
BRANCH  10  11
ATOM     11  C   UNL     1       5.906  44.896  50.732  1.00  0.00     0.150 C 
BRANCH  11  12
ATOM     12  C   UNL     1       5.723  43.384  50.976  1.00  0.00     0.137 C 
ATOM     13  C   UNL     1       4.270  43.015  51.244  1.00  0.00     0.036 C 
ATOM     14  O   UNL     1       6.095  42.609  49.814  1.00  0.00    -0.376 OA
ATOM     15  C   UNL     1       4.254  41.554  50.875  1.00  0.00     0.031 C 
ATOM     16  C   UNL     1       5.166  41.526  49.668  1.00  0.00     0.160 C 
ENDBRANCH  11  12
ENDBRANCH  10  11
BRANCH  10  17
ATOM     17  C   UNL     1       7.738  45.898  51.920  1.00  0.00     0.141 A 
ATOM     18  N   UNL     1       8.512  45.471  50.887  1.00  0.00    -0.219 NA
ATOM     19  C   UNL     1       8.388  46.582  52.970  1.00  0.00     0.061 A 
ATOM     20  C   UNL     1       9.839  45.696  50.919  1.00  0.00     0.226 A 
ATOM     21  C   UNL     1       8.000  47.225  54.183  1.00  0.00     0.033 A 
ATOM     22  C   UNL     1       9.762  46.737  52.868  1.00  0.00     0.142 A 
ATOM     23  N   UNL     1      10.554  46.312  51.875  1.00  0.00    -0.218 NA
ATOM     24  C   UNL     1       9.139  47.725  54.781  1.00  0.00     0.085 A 
ATOM     25  N   UNL     1      10.201  47.420  53.970  1.00  0.00    -0.346 N 
ATOM     26  H   UNL     1      11.168  47.662  54.128  1.00  0.00     0.167 HD
ENDBRANCH  10  17
ENDBRANCH   1  10
TORSDOF 6
ENDMDL
MODEL 7
REMARK VINA RESULT:    -8.382      2.341      5.155
REMARK INTER + INTRA:         -11.754
REMARK INTER:                 -10.487
REMARK INTRA:                  -1.266
REMARK UNBOUND:                -0.431
REMARK SMILES COc1ccccc1CN(CC1CCCO1)c1ncnc2[nH]ccc12
REMARK SMILES IDX 9 1 8 2 3 3 4 4 5 5 7 6 6 7 2 8 1 9 10 10 11 11 12 12 13 13
REMARK SMILES IDX 16 14 14 15 15 16 17 17 18 18 25 19 19 20 24 21 21 22 20 23
REMARK SMILES IDX 23 24 22 25
REMARK H PARENT 22 26
ROOT
ATOM      1  C   UNL     1       5.568  43.963  51.996  1.00  0.00     0.157 C 
ENDROOT
BRANCH   1   2
ATOM      2  C   UNL     1       5.768  43.231  50.683  1.00  0.00     0.013 A 
ATOM      3  C   UNL     1       5.038  42.076  50.368  1.00  0.00     0.123 A 
ATOM      4  C   UNL     1       5.216  41.423  49.147  1.00  0.00     0.047 A 
ATOM      5  C   UNL     1       6.156  41.897  48.233  1.00  0.00     0.004 A 
ATOM      6  C   UNL     1       6.707  43.699  49.750  1.00  0.00     0.009 A 
ATOM      7  C   UNL     1       6.902  43.035  48.536  1.00  0.00     0.001 A 
BRANCH   3   8
ATOM      8  O   UNL     1       4.073  41.624  51.232  1.00  0.00    -0.496 OA
ATOM      9  C   UNL     1       2.773  41.908  50.718  1.00  0.00     0.278 C 
ENDBRANCH   3   8
ENDBRANCH   1   2
BRANCH   1  10
ATOM     10  N   UNL     1       5.572  45.422  51.802  1.00  0.00    -0.349 N 
BRANCH  10  11
ATOM     11  C   UNL     1       4.260  46.083  51.634  1.00  0.00     0.150 C 
BRANCH  11  12
ATOM     12  C   UNL     1       3.061  45.298  52.205  1.00  0.00     0.137 C 
ATOM     13  C   UNL     1       2.471  45.966  53.440  1.00  0.00     0.036 C 
ATOM     14  O   UNL     1       1.969  45.233  51.261  1.00  0.00    -0.376 OA
ATOM     15  C   UNL     1       1.072  45.404  53.450  1.00  0.00     0.031 C 
ATOM     16  C   UNL     1       0.734  45.381  51.975  1.00  0.00     0.160 C 
ENDBRANCH  11  12
ENDBRANCH  10  11
BRANCH  10  17
ATOM     17  C   UNL     1       6.407  46.094  52.711  1.00  0.00     0.141 A 
ATOM     18  N   UNL     1       5.919  46.522  53.906  1.00  0.00    -0.219 NA
ATOM     19  C   UNL     1       7.770  46.347  52.444  1.00  0.00     0.061 A 
ATOM     20  C   UNL     1       6.736  47.173  54.756  1.00  0.00     0.226 A 
ATOM     21  C   UNL     1       8.690  46.057  51.394  1.00  0.00     0.033 A 
ATOM     22  C   UNL     1       8.487  47.032  53.413  1.00  0.00     0.142 A 
ATOM     23  N   UNL     1       8.032  47.484  54.590  1.00  0.00    -0.218 NA
ATOM     24  C   UNL     1       9.915  46.586  51.745  1.00  0.00     0.085 A 
ATOM     25  N   UNL     1       9.775  47.176  52.974  1.00  0.00    -0.346 N 
ATOM     26  H   UNL     1      10.498  47.639  53.505  1.00  0.00     0.167 HD
ENDBRANCH  10  17
ENDBRANCH   1  10
TORSDOF 6
ENDMDL
MODEL 8
REMARK VINA RESULT:    -8.302      2.329      5.253
REMARK INTER + INTRA:         -11.646
REMARK INTER:                 -10.858
REMARK INTRA:                  -0.788
REMARK UNBOUND:                -0.431
REMARK SMILES COc1ccccc1CN(CC1CCCO1)c1ncnc2[nH]ccc12
REMARK SMILES IDX 9 1 8 2 3 3 4 4 5 5 7 6 6 7 2 8 1 9 10 10 11 11 12 12 13 13
REMARK SMILES IDX 16 14 14 15 15 16 17 17 18 18 25 19 19 20 24 21 21 22 20 23
REMARK SMILES IDX 23 24 22 25
REMARK H PARENT 22 26
ROOT
ATOM      1  C   UNL     1       6.955  46.491  51.102  1.00  0.00     0.157 C 
ENDROOT
BRANCH   1   2
ATOM      2  C   UNL     1       8.031  46.728  52.143  1.00  0.00     0.013 A 
ATOM      3  C   UNL     1       9.331  46.225  51.982  1.00  0.00     0.123 A 
ATOM      4  C   UNL     1      10.320  46.468  52.938  1.00  0.00     0.047 A 
ATOM      5  C   UNL     1      10.013  47.190  54.089  1.00  0.00     0.004 A 
ATOM      6  C   UNL     1       7.741  47.458  53.307  1.00  0.00     0.009 A 
ATOM      7  C   UNL     1       8.723  47.684  54.274  1.00  0.00     0.001 A 
BRANCH   3   8
ATOM      8  O   UNL     1       9.665  45.555  50.832  1.00  0.00    -0.496 OA
ATOM      9  C   UNL     1      10.704  44.612  51.090  1.00  0.00     0.278 C 
ENDBRANCH   3   8
ENDBRANCH   1   2
BRANCH   1  10
ATOM     10  N   UNL     1       5.917  45.575  51.604  1.00  0.00    -0.349 N 
BRANCH  10  11
ATOM     11  C   UNL     1       4.566  46.138  51.817  1.00  0.00     0.150 C 
BRANCH  11  12
ATOM     12  C   UNL     1       4.225  46.462  53.286  1.00  0.00     0.137 C 
ATOM     13  C   UNL     1       2.788  46.099  53.637  1.00  0.00     0.036 C 
ATOM     14  O   UNL     1       5.036  45.695  54.203  1.00  0.00    -0.376 OA
ATOM     15  C   UNL     1       2.870  45.948  55.135  1.00  0.00     0.031 C 
ATOM     16  C   UNL     1       4.219  45.287  55.309  1.00  0.00     0.160 C 
ENDBRANCH  11  12
ENDBRANCH  10  11
BRANCH  10  17
ATOM     17  C   UNL     1       5.893  44.347  50.922  1.00  0.00     0.141 A 
ATOM     18  N   UNL     1       6.829  44.067  49.976  1.00  0.00    -0.219 NA
ATOM     19  C   UNL     1       4.924  43.354  51.182  1.00  0.00     0.061 A 
ATOM     20  C   UNL     1       6.779  42.887  49.328  1.00  0.00     0.226 A 
ATOM     21  C   UNL     1       3.826  43.188  52.077  1.00  0.00     0.033 A 
ATOM     22  C   UNL     1       4.996  42.189  50.433  1.00  0.00     0.142 A 
ATOM     23  N   UNL     1       5.892  41.891  49.482  1.00  0.00    -0.218 NA
ATOM     24  C   UNL     1       3.261  41.953  51.832  1.00  0.00     0.085 A 
ATOM     25  N   UNL     1       3.983  41.359  50.829  1.00  0.00    -0.346 N 
ATOM     26  H   UNL     1       3.824  40.443  50.435  1.00  0.00     0.167 HD
ENDBRANCH  10  17
ENDBRANCH   1  10
TORSDOF 6
ENDMDL
MODEL 9
REMARK VINA RESULT:    -8.278      2.415      5.808
REMARK INTER + INTRA:         -11.613
REMARK INTER:                 -11.273
REMARK INTRA:                  -0.340
REMARK UNBOUND:                -0.431
REMARK SMILES COc1ccccc1CN(CC1CCCO1)c1ncnc2[nH]ccc12
REMARK SMILES IDX 9 1 8 2 3 3 4 4 5 5 7 6 6 7 2 8 1 9 10 10 11 11 12 12 13 13
REMARK SMILES IDX 16 14 14 15 15 16 17 17 18 18 25 19 19 20 24 21 21 22 20 23
REMARK SMILES IDX 23 24 22 25
REMARK H PARENT 22 26
ROOT
ATOM      1  C   UNL     1       6.323  45.872  51.359  1.00  0.00     0.157 C 
ENDROOT
BRANCH   1   2
ATOM      2  C   UNL     1       7.577  46.343  52.070  1.00  0.00     0.013 A 
ATOM      3  C   UNL     1       7.511  47.155  53.213  1.00  0.00     0.123 A 
ATOM      4  C   UNL     1       8.672  47.565  53.872  1.00  0.00     0.047 A 
ATOM      5  C   UNL     1       9.921  47.197  53.376  1.00  0.00     0.004 A 
ATOM      6  C   UNL     1       8.843  45.977  51.588  1.00  0.00     0.009 A 
ATOM      7  C   UNL     1      10.007  46.404  52.233  1.00  0.00     0.001 A 
BRANCH   3   8
ATOM      8  O   UNL     1       6.290  47.485  53.744  1.00  0.00    -0.496 OA
ATOM      9  C   UNL     1       6.072  46.777  54.964  1.00  0.00     0.278 C 
ENDBRANCH   3   8
ENDBRANCH   1   2
BRANCH   1  10
ATOM     10  N   UNL     1       6.028  44.464  51.671  1.00  0.00    -0.349 N 
BRANCH  10  11
ATOM     11  C   UNL     1       4.845  44.194  52.517  1.00  0.00     0.150 C 
BRANCH  11  12
ATOM     12  C   UNL     1       3.816  45.342  52.576  1.00  0.00     0.137 C 
ATOM     13  C   UNL     1       2.688  45.156  51.570  1.00  0.00     0.036 C 
ATOM     14  O   UNL     1       3.161  45.404  53.863  1.00  0.00    -0.376 OA
ATOM     15  C   UNL     1       1.595  45.995  52.182  1.00  0.00     0.031 C 
ATOM     16  C   UNL     1       1.776  45.717  53.658  1.00  0.00     0.160 C 
ENDBRANCH  11  12
ENDBRANCH  10  11
BRANCH  10  17
ATOM     17  C   UNL     1       6.091  43.628  50.543  1.00  0.00     0.141 A 
ATOM     18  N   UNL     1       7.037  43.832  49.588  1.00  0.00    -0.219 NA
ATOM     19  C   UNL     1       5.204  42.548  50.349  1.00  0.00     0.061 A 
ATOM     20  C   UNL     1       7.072  43.024  48.511  1.00  0.00     0.226 A 
ATOM     21  C   UNL     1       4.130  41.947  51.071  1.00  0.00     0.033 A 
ATOM     22  C   UNL     1       5.358  41.804  49.189  1.00  0.00     0.142 A 
ATOM     23  N   UNL     1       6.265  41.990  48.221  1.00  0.00    -0.218 NA
ATOM     24  C   UNL     1       3.660  40.885  50.327  1.00  0.00     0.085 A 
ATOM     25  N   UNL     1       4.415  40.811  49.185  1.00  0.00    -0.346 N 
ATOM     26  H   UNL     1       4.324  40.130  48.446  1.00  0.00     0.167 HD
ENDBRANCH  10  17
ENDBRANCH   1  10
TORSDOF 6
ENDMDL
MODEL 10
REMARK VINA RESULT:    -8.174      2.020      4.734
REMARK INTER + INTRA:         -11.472
REMARK INTER:                 -10.452
REMARK INTRA:                  -1.020
REMARK UNBOUND:                -0.431
REMARK SMILES COc1ccccc1CN(CC1CCCO1)c1ncnc2[nH]ccc12
REMARK SMILES IDX 9 1 8 2 3 3 4 4 5 5 7 6 6 7 2 8 1 9 10 10 11 11 12 12 13 13
REMARK SMILES IDX 16 14 14 15 15 16 17 17 18 18 25 19 19 20 24 21 21 22 20 23
REMARK SMILES IDX 23 24 22 25
REMARK H PARENT 22 26
ROOT
ATOM      1  C   UNL     1       3.478  45.527  51.192  1.00  0.00     0.157 C 
ENDROOT
BRANCH   1   2
ATOM      2  C   UNL     1       4.955  45.836  51.335  1.00  0.00     0.013 A 
ATOM      3  C   UNL     1       5.430  46.707  52.327  1.00  0.00     0.123 A 
ATOM      4  C   UNL     1       6.795  46.968  52.462  1.00  0.00     0.047 A 
ATOM      5  C   UNL     1       7.706  46.386  51.582  1.00  0.00     0.004 A 
ATOM      6  C   UNL     1       5.887  45.255  50.460  1.00  0.00     0.009 A 
ATOM      7  C   UNL     1       7.251  45.531  50.580  1.00  0.00     0.001 A 
BRANCH   3   8
ATOM      8  O   UNL     1       4.554  47.249  53.234  1.00  0.00    -0.496 OA
ATOM      9  C   UNL     1       5.096  47.177  54.552  1.00  0.00     0.278 C 
ENDBRANCH   3   8
ENDBRANCH   1   2
BRANCH   1  10
ATOM     10  N   UNL     1       3.110  44.310  51.934  1.00  0.00    -0.349 N 
BRANCH  10  11
ATOM     11  C   UNL     1       4.206  43.385  52.296  1.00  0.00     0.150 C 
BRANCH  11  12
ATOM     12  C   UNL     1       4.184  42.033  51.552  1.00  0.00     0.137 C 
ATOM     13  C   UNL     1       3.029  41.939  50.564  1.00  0.00     0.036 C 
ATOM     14  O   UNL     1       5.373  41.846  50.753  1.00  0.00    -0.376 OA
ATOM     15  C   UNL     1       3.531  40.884  49.611  1.00  0.00     0.031 C 
ATOM     16  C   UNL     1       5.002  41.222  49.516  1.00  0.00     0.160 C 
ENDBRANCH  11  12
ENDBRANCH  10  11
BRANCH  10  17
ATOM     17  C   UNL     1       2.236  44.563  53.005  1.00  0.00     0.141 A 
ATOM     18  N   UNL     1       2.710  44.636  54.278  1.00  0.00    -0.219 NA
ATOM     19  C   UNL     1       0.851  44.762  52.822  1.00  0.00     0.061 A 
ATOM     20  C   UNL     1       1.851  44.869  55.288  1.00  0.00     0.226 A 
ATOM     21  C   UNL     1      -0.050  44.821  51.717  1.00  0.00     0.033 A 
ATOM     22  C   UNL     1       0.089  44.989  53.958  1.00  0.00     0.142 A 
ATOM     23  N   UNL     1       0.522  45.048  55.225  1.00  0.00    -0.218 NA
ATOM     24  C   UNL     1      -1.315  45.060  52.213  1.00  0.00     0.085 A 
ATOM     25  N   UNL     1      -1.214  45.158  53.577  1.00  0.00    -0.346 N 
ATOM     26  H   UNL     1      -1.966  45.342  54.224  1.00  0.00     0.167 HD
ENDBRANCH  10  17
ENDBRANCH   1  10
TORSDOF 6
ENDMDL
