MODEL 1
REMARK VINA RESULT:    -9.115      0.000      0.000
REMARK INTER + INTRA:         -11.663
REMARK INTER:                 -11.247
REMARK INTRA:                  -0.416
REMARK UNBOUND:                -0.416
REMARK SMILES Cc1cc(C)nc(Nc2cccc(N3CCC(C(N)=O)CC3)c2)n1
REMARK SMILES IDX 9 1 10 2 11 3 12 4 13 5 23 6 8 7 7 9 2 10 3 11 24 12 4 13
REMARK SMILES IDX 6 14 1 15 5 16 14 17 15 18 22 19 16 20 21 21 17 22 18 23
REMARK SMILES IDX 19 24 20 25
REMARK H PARENT 8 8 19 26 19 27
ROOT
ATOM      1  C   UNL     1       4.454  43.577  52.227  1.00  0.00     0.043 A 
ATOM      2  C   UNL     1       4.594  42.947  50.983  1.00  0.00     0.026 A 
ATOM      3  C   UNL     1       5.627  43.293  50.114  1.00  0.00     0.004 A 
ATOM      4  C   UNL     1       6.541  44.278  50.481  1.00  0.00     0.026 A 
ATOM      5  C   UNL     1       6.450  44.934  51.717  1.00  0.00     0.039 A 
ATOM      6  C   UNL     1       5.392  44.562  52.570  1.00  0.00     0.052 A 
ENDROOT
BRANCH   1   7
ATOM      7  N   UNL     1       3.401  43.179  53.059  1.00  0.00    -0.324 N 
ATOM      8  H   UNL     1       3.600  42.462  53.741  1.00  0.00     0.170 HD
BRANCH   7   9
ATOM      9  C   UNL     1       2.051  43.510  53.149  1.00  0.00     0.227 A 
ATOM     10  C   UNL     1       0.421  44.539  54.416  1.00  0.00     0.043 A 
ATOM     11  C   UNL     1      -0.545  44.231  53.484  1.00  0.00     0.047 A 
ATOM     12  N   UNL     1       1.713  44.183  54.262  1.00  0.00    -0.218 NA
ATOM     13  C   UNL     1      -0.118  43.538  52.372  1.00  0.00     0.043 A 
ATOM     14  N   UNL     1       1.168  43.179  52.196  1.00  0.00    -0.218 NA
ATOM     15  C   UNL     1       0.056  45.277  55.668  1.00  0.00     0.067 C 
ATOM     16  C   UNL     1      -1.089  43.159  51.296  1.00  0.00     0.067 C 
ENDBRANCH   7   9
ENDBRANCH   1   7
BRANCH   5  17
ATOM     17  N   UNL     1       7.397  45.931  52.042  1.00  0.00    -0.371 N 
ATOM     18  C   UNL     1       6.759  47.250  52.259  1.00  0.00     0.117 C 
ATOM     19  C   UNL     1       8.631  45.977  51.246  1.00  0.00     0.117 C 
ATOM     20  C   UNL     1       7.801  48.368  52.353  1.00  0.00     0.035 C 
ATOM     21  C   UNL     1       9.715  46.741  52.017  1.00  0.00     0.035 C 
ATOM     22  C   UNL     1       9.155  47.886  52.874  1.00  0.00     0.081 C 
BRANCH  22  23
ATOM     23  C   UNL     1       9.068  47.521  54.353  1.00  0.00     0.220 C 
ATOM     24  N   UNL     1      10.219  47.113  54.953  1.00  0.00    -0.369 N 
ATOM     25  O   UNL     1       8.011  47.544  54.977  1.00  0.00    -0.275 OA
ATOM     26  H   UNL     1      10.178  46.786  55.908  1.00  0.00     0.159 HD
ATOM     27  H   UNL     1      11.050  46.913  54.396  1.00  0.00     0.159 HD
ENDBRANCH  22  23
ENDBRANCH   5  17
TORSDOF 4
ENDMDL
MODEL 2
REMARK VINA RESULT:    -9.099      0.483      1.763
REMARK INTER + INTRA:         -11.643
REMARK INTER:                 -11.196
REMARK INTRA:                  -0.447
REMARK UNBOUND:                -0.416
REMARK SMILES Cc1cc(C)nc(Nc2cccc(N3CCC(C(N)=O)CC3)c2)n1
REMARK SMILES IDX 9 1 10 2 11 3 12 4 13 5 23 6 8 7 7 9 2 10 3 11 24 12 4 13
REMARK SMILES IDX 6 14 1 15 5 16 14 17 15 18 22 19 16 20 21 21 17 22 18 23
REMARK SMILES IDX 19 24 20 25
REMARK H PARENT 8 8 19 26 19 27
ROOT
ATOM      1  C   UNL     1       4.406  43.628  52.250  1.00  0.00     0.043 A 
ATOM      2  C   UNL     1       4.547  42.974  51.019  1.00  0.00     0.026 A 
ATOM      3  C   UNL     1       5.587  43.295  50.149  1.00  0.00     0.004 A 
ATOM      4  C   UNL     1       6.508  44.279  50.502  1.00  0.00     0.026 A 
ATOM      5  C   UNL     1       6.416  44.958  51.725  1.00  0.00     0.039 A 
ATOM      6  C   UNL     1       5.351  44.611  52.579  1.00  0.00     0.052 A 
ENDROOT
BRANCH   1   7
ATOM      7  N   UNL     1       3.346  43.254  53.083  1.00  0.00    -0.324 N 
ATOM      8  H   UNL     1       3.409  42.352  53.531  1.00  0.00     0.170 HD
BRANCH   7   9
ATOM      9  C   UNL     1       2.126  43.831  53.427  1.00  0.00     0.227 A 
ATOM     10  C   UNL     1       0.033  44.452  52.682  1.00  0.00     0.043 A 
ATOM     11  C   UNL     1      -0.305  44.934  53.927  1.00  0.00     0.047 A 
ATOM     12  N   UNL     1       1.238  43.906  52.421  1.00  0.00    -0.218 NA
ATOM     13  C   UNL     1       0.660  44.822  54.904  1.00  0.00     0.043 A 
ATOM     14  N   UNL     1       1.868  44.274  54.666  1.00  0.00    -0.218 NA
ATOM     15  C   UNL     1      -0.942  44.541  51.547  1.00  0.00     0.067 C 
ATOM     16  C   UNL     1       0.392  45.311  56.295  1.00  0.00     0.067 C 
ENDBRANCH   7   9
ENDBRANCH   1   7
BRANCH   5  17
ATOM     17  N   UNL     1       7.370  45.953  52.036  1.00  0.00    -0.371 N 
ATOM     18  C   UNL     1       6.738  47.274  52.257  1.00  0.00     0.117 C 
ATOM     19  C   UNL     1       8.595  45.994  51.226  1.00  0.00     0.117 C 
ATOM     20  C   UNL     1       7.785  48.390  52.336  1.00  0.00     0.035 C 
ATOM     21  C   UNL     1       9.689  46.757  51.982  1.00  0.00     0.035 C 
ATOM     22  C   UNL     1       9.143  47.906  52.843  1.00  0.00     0.081 C 
BRANCH  22  23
ATOM     23  C   UNL     1       9.072  47.544  54.324  1.00  0.00     0.220 C 
ATOM     24  N   UNL     1      10.232  47.151  54.916  1.00  0.00    -0.369 N 
ATOM     25  O   UNL     1       8.020  47.557  54.956  1.00  0.00    -0.275 OA
ATOM     26  H   UNL     1      10.203  46.827  55.872  1.00  0.00     0.159 HD
ATOM     27  H   UNL     1      11.061  46.959  54.353  1.00  0.00     0.159 HD
ENDBRANCH  22  23
ENDBRANCH   5  17
TORSDOF 4
ENDMDL
MODEL 3
REMARK VINA RESULT:    -8.895      3.889      6.165
REMARK INTER + INTRA:         -11.391
REMARK INTER:                 -10.646
REMARK INTRA:                  -0.745
REMARK UNBOUND:                -0.416
REMARK SMILES Cc1cc(C)nc(Nc2cccc(N3CCC(C(N)=O)CC3)c2)n1
REMARK SMILES IDX 9 1 10 2 11 3 12 4 13 5 23 6 8 7 7 9 2 10 3 11 24 12 4 13
REMARK SMILES IDX 6 14 1 15 5 16 14 17 15 18 22 19 16 20 21 21 17 22 18 23
REMARK SMILES IDX 19 24 20 25
REMARK H PARENT 8 8 19 26 19 27
ROOT
ATOM      1  C   UNL     1       6.500  42.905  49.558  1.00  0.00     0.043 A 
ATOM      2  C   UNL     1       7.727  43.465  49.177  1.00  0.00     0.026 A 
ATOM      3  C   UNL     1       8.166  44.672  49.716  1.00  0.00     0.004 A 
ATOM      4  C   UNL     1       7.379  45.339  50.653  1.00  0.00     0.026 A 
ATOM      5  C   UNL     1       6.147  44.819  51.074  1.00  0.00     0.039 A 
ATOM      6  C   UNL     1       5.732  43.599  50.506  1.00  0.00     0.052 A 
ENDROOT
BRANCH   1   7
ATOM      7  N   UNL     1       6.119  41.686  48.986  1.00  0.00    -0.324 N 
ATOM      8  H   UNL     1       6.490  40.846  49.406  1.00  0.00     0.170 HD
BRANCH   7   9
ATOM      9  C   UNL     1       5.350  41.324  47.883  1.00  0.00     0.227 A 
ATOM     10  C   UNL     1       4.963  41.666  45.635  1.00  0.00     0.043 A 
ATOM     11  C   UNL     1       3.944  40.739  45.635  1.00  0.00     0.047 A 
ATOM     12  N   UNL     1       5.666  41.967  46.746  1.00  0.00    -0.218 NA
ATOM     13  C   UNL     1       3.681  40.125  46.840  1.00  0.00     0.043 A 
ATOM     14  N   UNL     1       4.375  40.407  47.960  1.00  0.00    -0.218 NA
ATOM     15  C   UNL     1       5.317  42.401  44.377  1.00  0.00     0.067 C 
ATOM     16  C   UNL     1       2.596  39.097  46.947  1.00  0.00     0.067 C 
ENDBRANCH   7   9
ENDBRANCH   1   7
BRANCH   5  17
ATOM     17  N   UNL     1       5.382  45.535  52.022  1.00  0.00    -0.371 N 
ATOM     18  C   UNL     1       4.005  45.791  51.541  1.00  0.00     0.117 C 
ATOM     19  C   UNL     1       6.020  46.686  52.677  1.00  0.00     0.117 C 
ATOM     20  C   UNL     1       3.269  46.781  52.449  1.00  0.00     0.035 C 
ATOM     21  C   UNL     1       5.277  47.018  53.976  1.00  0.00     0.035 C 
ATOM     22  C   UNL     1       3.766  46.755  53.894  1.00  0.00     0.081 C 
BRANCH  22  23
ATOM     23  C   UNL     1       3.360  45.456  54.584  1.00  0.00     0.220 C 
ATOM     24  N   UNL     1       4.296  44.861  55.372  1.00  0.00    -0.369 N 
ATOM     25  O   UNL     1       2.263  44.932  54.412  1.00  0.00    -0.275 OA
ATOM     26  H   UNL     1       4.088  43.960  55.776  1.00  0.00     0.159 HD
ATOM     27  H   UNL     1       5.262  45.190  55.366  1.00  0.00     0.159 HD
ENDBRANCH  22  23
ENDBRANCH   5  17
TORSDOF 4
ENDMDL
MODEL 4
REMARK VINA RESULT:    -8.831      2.865      8.336
REMARK INTER + INTRA:         -11.311
REMARK INTER:                 -11.203
REMARK INTRA:                  -0.108
REMARK UNBOUND:                -0.416
REMARK SMILES Cc1cc(C)nc(Nc2cccc(N3CCC(C(N)=O)CC3)c2)n1
REMARK SMILES IDX 9 1 10 2 11 3 12 4 13 5 23 6 8 7 7 9 2 10 3 11 24 12 4 13
REMARK SMILES IDX 6 14 1 15 5 16 14 17 15 18 22 19 16 20 21 21 17 22 18 23
REMARK SMILES IDX 19 24 20 25
REMARK H PARENT 8 8 19 26 19 27
ROOT
ATOM      1  C   UNL     1       5.269  46.558  52.957  1.00  0.00     0.043 A 
ATOM      2  C   UNL     1       5.520  46.433  51.584  1.00  0.00     0.026 A 
ATOM      3  C   UNL     1       4.583  45.854  50.731  1.00  0.00     0.004 A 
ATOM      4  C   UNL     1       3.373  45.391  51.242  1.00  0.00     0.026 A 
ATOM      5  C   UNL     1       3.069  45.498  52.607  1.00  0.00     0.039 A 
ATOM      6  C   UNL     1       4.040  46.086  53.441  1.00  0.00     0.052 A 
ENDROOT
BRANCH   1   7
ATOM      7  N   UNL     1       6.246  47.157  53.760  1.00  0.00    -0.324 N 
ATOM      8  H   UNL     1       5.930  47.820  54.452  1.00  0.00     0.170 HD
BRANCH   7   9
ATOM      9  C   UNL     1       7.637  47.100  53.809  1.00  0.00     0.227 A 
ATOM     10  C   UNL     1       9.560  46.483  52.695  1.00  0.00     0.043 A 
ATOM     11  C   UNL     1      10.345  46.912  53.742  1.00  0.00     0.047 A 
ATOM     12  N   UNL     1       8.214  46.568  52.719  1.00  0.00    -0.218 NA
ATOM     13  C   UNL     1       9.677  47.445  54.823  1.00  0.00     0.043 A 
ATOM     14  N   UNL     1       8.334  47.545  54.864  1.00  0.00    -0.218 NA
ATOM     15  C   UNL     1      10.189  45.874  51.478  1.00  0.00     0.067 C 
ATOM     16  C   UNL     1      10.438  47.946  56.013  1.00  0.00     0.067 C 
ENDBRANCH   7   9
ENDBRANCH   1   7
BRANCH   5  17
ATOM     17  N   UNL     1       1.831  45.009  53.079  1.00  0.00    -0.371 N 
ATOM     18  C   UNL     1       0.741  45.225  52.100  1.00  0.00     0.117 C 
ATOM     19  C   UNL     1       1.467  45.316  54.470  1.00  0.00     0.117 C 
ATOM     20  C   UNL     1      -0.631  44.934  52.715  1.00  0.00     0.035 C 
ATOM     21  C   UNL     1       0.394  44.332  54.952  1.00  0.00     0.035 C 
ATOM     22  C   UNL     1      -0.578  43.904  53.843  1.00  0.00     0.081 C 
BRANCH  22  23
ATOM     23  C   UNL     1      -0.266  42.515  53.295  1.00  0.00     0.220 C 
ATOM     24  N   UNL     1       0.908  41.951  53.687  1.00  0.00    -0.369 N 
ATOM     25  O   UNL     1      -1.003  41.937  52.501  1.00  0.00    -0.275 OA
ATOM     26  H   UNL     1       1.183  41.069  53.278  1.00  0.00     0.159 HD
ATOM     27  H   UNL     1       1.605  42.501  54.190  1.00  0.00     0.159 HD
ENDBRANCH  22  23
ENDBRANCH   5  17
TORSDOF 4
ENDMDL
MODEL 5
REMARK VINA RESULT:    -8.797      3.199      5.220
REMARK INTER + INTRA:         -11.269
REMARK INTER:                 -10.815
REMARK INTRA:                  -0.455
REMARK UNBOUND:                -0.416
REMARK SMILES Cc1cc(C)nc(Nc2cccc(N3CCC(C(N)=O)CC3)c2)n1
REMARK SMILES IDX 9 1 10 2 11 3 12 4 13 5 23 6 8 7 7 9 2 10 3 11 24 12 4 13
REMARK SMILES IDX 6 14 1 15 5 16 14 17 15 18 22 19 16 20 21 21 17 22 18 23
REMARK SMILES IDX 19 24 20 25
REMARK H PARENT 8 8 19 26 19 27
ROOT
ATOM      1  C   UNL     1       5.852  42.873  50.181  1.00  0.00     0.043 A 
ATOM      2  C   UNL     1       4.647  42.819  50.893  1.00  0.00     0.026 A 
ATOM      3  C   UNL     1       4.362  43.742  51.897  1.00  0.00     0.004 A 
ATOM      4  C   UNL     1       5.284  44.740  52.203  1.00  0.00     0.026 A 
ATOM      5  C   UNL     1       6.502  44.843  51.516  1.00  0.00     0.039 A 
ATOM      6  C   UNL     1       6.759  43.892  50.509  1.00  0.00     0.052 A 
ENDROOT
BRANCH   1   7
ATOM      7  N   UNL     1       6.076  41.923  49.178  1.00  0.00    -0.324 N 
ATOM      8  H   UNL     1       6.909  41.359  49.256  1.00  0.00     0.170 HD
BRANCH   7   9
ATOM      9  C   UNL     1       5.420  41.578  47.999  1.00  0.00     0.227 A 
ATOM     10  C   UNL     1       3.849  40.198  47.025  1.00  0.00     0.043 A 
ATOM     11  C   UNL     1       4.054  40.778  45.792  1.00  0.00     0.047 A 
ATOM     12  N   UNL     1       4.524  40.584  48.126  1.00  0.00    -0.218 NA
ATOM     13  C   UNL     1       4.990  41.789  45.745  1.00  0.00     0.043 A 
ATOM     14  N   UNL     1       5.670  42.194  46.834  1.00  0.00    -0.218 NA
ATOM     15  C   UNL     1       2.863  39.080  47.179  1.00  0.00     0.067 C 
ATOM     16  C   UNL     1       5.284  42.489  44.453  1.00  0.00     0.067 C 
ENDBRANCH   7   9
ENDBRANCH   1   7
BRANCH   5  17
ATOM     17  N   UNL     1       7.408  45.869  51.865  1.00  0.00    -0.371 N 
ATOM     18  C   UNL     1       6.715  47.148  52.145  1.00  0.00     0.117 C 
ATOM     19  C   UNL     1       8.625  46.005  51.053  1.00  0.00     0.117 C 
ATOM     20  C   UNL     1       7.706  48.309  52.267  1.00  0.00     0.035 C 
ATOM     21  C   UNL     1       9.686  46.788  51.837  1.00  0.00     0.035 C 
ATOM     22  C   UNL     1       9.089  47.871  52.748  1.00  0.00     0.081 C 
BRANCH  22  23
ATOM     23  C   UNL     1       9.044  47.444  54.212  1.00  0.00     0.220 C 
ATOM     24  N   UNL     1      10.180  46.903  54.728  1.00  0.00    -0.369 N 
ATOM     25  O   UNL     1       8.028  47.534  54.895  1.00  0.00    -0.275 OA
ATOM     26  H   UNL     1      10.159  46.535  55.669  1.00  0.00     0.159 HD
ATOM     27  H   UNL     1      10.959  46.654  54.118  1.00  0.00     0.159 HD
ENDBRANCH  22  23
ENDBRANCH   5  17
TORSDOF 4
ENDMDL
MODEL 6
REMARK VINA RESULT:    -8.661      3.310      5.294
REMARK INTER + INTRA:         -11.102
REMARK INTER:                 -10.351
REMARK INTRA:                  -0.750
REMARK UNBOUND:                -0.416
REMARK SMILES Cc1cc(C)nc(Nc2cccc(N3CCC(C(N)=O)CC3)c2)n1
REMARK SMILES IDX 9 1 10 2 11 3 12 4 13 5 23 6 8 7 7 9 2 10 3 11 24 12 4 13
REMARK SMILES IDX 6 14 1 15 5 16 14 17 15 18 22 19 16 20 21 21 17 22 18 23
REMARK SMILES IDX 19 24 20 25
REMARK H PARENT 8 8 19 26 19 27
ROOT
ATOM      1  C   UNL     1       5.676  42.632  50.150  1.00  0.00     0.043 A 
ATOM      2  C   UNL     1       4.508  42.507  50.914  1.00  0.00     0.026 A 
ATOM      3  C   UNL     1       4.209  43.417  51.925  1.00  0.00     0.004 A 
ATOM      4  C   UNL     1       5.079  44.474  52.186  1.00  0.00     0.026 A 
ATOM      5  C   UNL     1       6.257  44.648  51.446  1.00  0.00     0.039 A 
ATOM      6  C   UNL     1       6.530  43.709  50.434  1.00  0.00     0.052 A 
ENDROOT
BRANCH   1   7
ATOM      7  N   UNL     1       5.916  41.691  49.142  1.00  0.00    -0.324 N 
ATOM      8  H   UNL     1       6.787  41.184  49.184  1.00  0.00     0.170 HD
BRANCH   7   9
ATOM      9  C   UNL     1       5.231  41.294  47.996  1.00  0.00     0.227 A 
ATOM     10  C   UNL     1       4.975  41.605  45.725  1.00  0.00     0.043 A 
ATOM     11  C   UNL     1       3.991  40.643  45.670  1.00  0.00     0.047 A 
ATOM     12  N   UNL     1       5.595  41.939  46.875  1.00  0.00    -0.218 NA
ATOM     13  C   UNL     1       3.675  40.028  46.862  1.00  0.00     0.043 A 
ATOM     14  N   UNL     1       4.286  40.343  48.020  1.00  0.00    -0.218 NA
ATOM     15  C   UNL     1       5.381  42.343  44.485  1.00  0.00     0.067 C 
ATOM     16  C   UNL     1       2.622  38.964  46.910  1.00  0.00     0.067 C 
ENDBRANCH   7   9
ENDBRANCH   1   7
BRANCH   5  17
ATOM     17  N   UNL     1       7.111  45.732  51.752  1.00  0.00    -0.371 N 
ATOM     18  C   UNL     1       6.357  46.905  52.251  1.00  0.00     0.117 C 
ATOM     19  C   UNL     1       8.167  46.057  50.783  1.00  0.00     0.117 C 
ATOM     20  C   UNL     1       7.246  48.150  52.333  1.00  0.00     0.035 C 
ATOM     21  C   UNL     1       9.262  46.881  51.470  1.00  0.00     0.035 C 
ATOM     22  C   UNL     1       8.721  47.821  52.559  1.00  0.00     0.081 C 
BRANCH  22  23
ATOM     23  C   UNL     1       8.947  47.277  53.966  1.00  0.00     0.220 C 
ATOM     24  N   UNL     1       9.844  46.263  54.096  1.00  0.00    -0.369 N 
ATOM     25  O   UNL     1       8.325  47.691  54.940  1.00  0.00    -0.275 OA
ATOM     26  H   UNL     1       9.955  45.826  54.999  1.00  0.00     0.159 HD
ATOM     27  H   UNL     1      10.218  45.794  53.270  1.00  0.00     0.159 HD
ENDBRANCH  22  23
ENDBRANCH   5  17
TORSDOF 4
ENDMDL
MODEL 7
REMARK VINA RESULT:    -8.651      2.819      8.247
REMARK INTER + INTRA:         -11.089
REMARK INTER:                 -10.639
REMARK INTRA:                  -0.450
REMARK UNBOUND:                -0.416
REMARK SMILES Cc1cc(C)nc(Nc2cccc(N3CCC(C(N)=O)CC3)c2)n1
REMARK SMILES IDX 9 1 10 2 11 3 12 4 13 5 23 6 8 7 7 9 2 10 3 11 24 12 4 13
REMARK SMILES IDX 6 14 1 15 5 16 14 17 15 18 22 19 16 20 21 21 17 22 18 23
REMARK SMILES IDX 19 24 20 25
REMARK H PARENT 8 8 19 26 19 27
ROOT
ATOM      1  C   UNL     1       4.975  46.383  53.033  1.00  0.00     0.043 A 
ATOM      2  C   UNL     1       5.056  46.382  51.634  1.00  0.00     0.026 A 
ATOM      3  C   UNL     1       4.027  45.857  50.854  1.00  0.00     0.004 A 
ATOM      4  C   UNL     1       2.895  45.325  51.468  1.00  0.00     0.026 A 
ATOM      5  C   UNL     1       2.762  45.308  52.863  1.00  0.00     0.039 A 
ATOM      6  C   UNL     1       3.821  45.843  53.621  1.00  0.00     0.052 A 
ENDROOT
BRANCH   1   7
ATOM      7  N   UNL     1       6.038  46.932  53.760  1.00  0.00    -0.324 N 
ATOM      8  H   UNL     1       5.802  47.545  54.526  1.00  0.00     0.170 HD
BRANCH   7   9
ATOM      9  C   UNL     1       7.425  46.882  53.648  1.00  0.00     0.227 A 
ATOM     10  C   UNL     1       9.439  47.394  54.650  1.00  0.00     0.043 A 
ATOM     11  C   UNL     1      10.140  46.866  53.588  1.00  0.00     0.047 A 
ATOM     12  N   UNL     1       8.091  47.410  54.688  1.00  0.00    -0.218 NA
ATOM     13  C   UNL     1       9.385  46.345  52.560  1.00  0.00     0.043 A 
ATOM     14  N   UNL     1       8.037  46.345  52.582  1.00  0.00    -0.218 NA
ATOM     15  C   UNL     1      10.167  48.000  55.811  1.00  0.00     0.067 C 
ATOM     16  C   UNL     1      10.050  45.742  51.360  1.00  0.00     0.067 C 
ENDBRANCH   7   9
ENDBRANCH   1   7
BRANCH   5  17
ATOM     17  N   UNL     1       1.597  44.752  53.439  1.00  0.00    -0.371 N 
ATOM     18  C   UNL     1       1.223  45.436  54.698  1.00  0.00     0.117 C 
ATOM     19  C   UNL     1       1.502  43.286  53.494  1.00  0.00     0.117 C 
ATOM     20  C   UNL     1       0.126  44.673  55.446  1.00  0.00     0.035 C 
ATOM     21  C   UNL     1       0.036  42.870  53.668  1.00  0.00     0.035 C 
ATOM     22  C   UNL     1      -0.776  43.856  54.521  1.00  0.00     0.081 C 
BRANCH  22  23
ATOM     23  C   UNL     1      -1.659  44.771  53.678  1.00  0.00     0.220 C 
ATOM     24  N   UNL     1      -2.417  45.681  54.348  1.00  0.00    -0.369 N 
ATOM     25  O   UNL     1      -1.731  44.675  52.456  1.00  0.00    -0.275 OA
ATOM     26  H   UNL     1      -3.073  46.244  53.826  1.00  0.00     0.159 HD
ATOM     27  H   UNL     1      -2.503  45.636  55.364  1.00  0.00     0.159 HD
ENDBRANCH  22  23
ENDBRANCH   5  17
TORSDOF 4
ENDMDL
MODEL 8
REMARK VINA RESULT:    -8.595      2.551      8.201
REMARK INTER + INTRA:         -11.020
REMARK INTER:                 -10.448
REMARK INTRA:                  -0.572
REMARK UNBOUND:                -0.416
REMARK SMILES Cc1cc(C)nc(Nc2cccc(N3CCC(C(N)=O)CC3)c2)n1
REMARK SMILES IDX 9 1 10 2 11 3 12 4 13 5 23 6 8 7 7 9 2 10 3 11 24 12 4 13
REMARK SMILES IDX 6 14 1 15 5 16 14 17 15 18 22 19 16 20 21 21 17 22 18 23
REMARK SMILES IDX 19 24 20 25
REMARK H PARENT 8 8 19 26 19 27
ROOT
ATOM      1  C   UNL     1       5.194  45.435  51.941  1.00  0.00     0.043 A 
ATOM      2  C   UNL     1       5.628  44.391  51.114  1.00  0.00     0.026 A 
ATOM      3  C   UNL     1       4.844  43.255  50.918  1.00  0.00     0.004 A 
ATOM      4  C   UNL     1       3.606  43.150  51.549  1.00  0.00     0.026 A 
ATOM      5  C   UNL     1       3.123  44.170  52.380  1.00  0.00     0.039 A 
ATOM      6  C   UNL     1       3.942  45.302  52.559  1.00  0.00     0.052 A 
ENDROOT
BRANCH   1   7
ATOM      7  N   UNL     1       6.024  46.553  52.090  1.00  0.00    -0.324 N 
ATOM      8  H   UNL     1       5.659  47.441  51.778  1.00  0.00     0.170 HD
BRANCH   7   9
ATOM      9  C   UNL     1       7.327  46.746  52.541  1.00  0.00     0.227 A 
ATOM     10  C   UNL     1       9.560  46.311  52.162  1.00  0.00     0.043 A 
ATOM     11  C   UNL     1       9.924  47.023  53.283  1.00  0.00     0.047 A 
ATOM     12  N   UNL     1       8.273  46.164  51.786  1.00  0.00    -0.218 NA
ATOM     13  C   UNL     1       8.895  47.589  54.004  1.00  0.00     0.043 A 
ATOM     14  N   UNL     1       7.604  47.460  53.642  1.00  0.00    -0.218 NA
ATOM     15  C   UNL     1      10.604  45.643  51.318  1.00  0.00     0.067 C 
ATOM     16  C   UNL     1       9.184  48.389  55.238  1.00  0.00     0.067 C 
ENDBRANCH   7   9
ENDBRANCH   1   7
BRANCH   5  17
ATOM     17  N   UNL     1       1.864  44.016  53.002  1.00  0.00    -0.371 N 
ATOM     18  C   UNL     1       1.608  45.077  54.004  1.00  0.00     0.117 C 
ATOM     19  C   UNL     1       1.485  42.665  53.440  1.00  0.00     0.117 C 
ATOM     20  C   UNL     1       0.372  44.762  54.852  1.00  0.00     0.035 C 
ATOM     21  C   UNL     1      -0.036  42.586  53.618  1.00  0.00     0.035 C 
ATOM     22  C   UNL     1      -0.656  43.900  54.119  1.00  0.00     0.081 C 
BRANCH  22  23
ATOM     23  C   UNL     1      -1.331  44.691  53.003  1.00  0.00     0.220 C 
ATOM     24  N   UNL     1      -2.060  45.778  53.376  1.00  0.00    -0.369 N 
ATOM     25  O   UNL     1      -1.270  44.353  51.824  1.00  0.00    -0.275 OA
ATOM     26  H   UNL     1      -2.586  46.274  52.671  1.00  0.00     0.159 HD
ATOM     27  H   UNL     1      -2.268  45.949  54.360  1.00  0.00     0.159 HD
ENDBRANCH  22  23
ENDBRANCH   5  17
TORSDOF 4
ENDMDL
MODEL 9
REMARK VINA RESULT:    -8.365      2.927      8.283
REMARK INTER + INTRA:         -10.737
REMARK INTER:                 -10.257
REMARK INTRA:                  -0.480
REMARK UNBOUND:                -0.416
REMARK SMILES Cc1cc(C)nc(Nc2cccc(N3CCC(C(N)=O)CC3)c2)n1
REMARK SMILES IDX 9 1 10 2 11 3 12 4 13 5 23 6 8 7 7 9 2 10 3 11 24 12 4 13
REMARK SMILES IDX 6 14 1 15 5 16 14 17 15 18 22 19 16 20 21 21 17 22 18 23
REMARK SMILES IDX 19 24 20 25
REMARK H PARENT 8 8 19 26 19 27
ROOT
ATOM      1  C   UNL     1       3.912  46.733  52.823  1.00  0.00     0.043 A 
ATOM      2  C   UNL     1       3.555  46.374  51.517  1.00  0.00     0.026 A 
ATOM      3  C   UNL     1       2.359  45.708  51.256  1.00  0.00     0.004 A 
ATOM      4  C   UNL     1       1.497  45.394  52.305  1.00  0.00     0.026 A 
ATOM      5  C   UNL     1       1.804  45.738  53.629  1.00  0.00     0.039 A 
ATOM      6  C   UNL     1       3.022  46.407  53.857  1.00  0.00     0.052 A 
ENDROOT
BRANCH   1   7
ATOM      7  N   UNL     1       5.123  47.408  53.019  1.00  0.00    -0.324 N 
ATOM      8  H   UNL     1       5.070  48.370  53.322  1.00  0.00     0.170 HD
BRANCH   7   9
ATOM      9  C   UNL     1       6.464  47.078  52.839  1.00  0.00     0.227 A 
ATOM     10  C   UNL     1       8.004  46.042  51.469  1.00  0.00     0.043 A 
ATOM     11  C   UNL     1       9.031  46.351  52.333  1.00  0.00     0.047 A 
ATOM     12  N   UNL     1       6.725  46.395  51.711  1.00  0.00    -0.218 NA
ATOM     13  C   UNL     1       8.681  47.052  53.467  1.00  0.00     0.043 A 
ATOM     14  N   UNL     1       7.410  47.419  53.725  1.00  0.00    -0.218 NA
ATOM     15  C   UNL     1       8.278  45.269  50.215  1.00  0.00     0.067 C 
ATOM     16  C   UNL     1       9.723  47.442  54.470  1.00  0.00     0.067 C 
ENDBRANCH   7   9
ENDBRANCH   1   7
BRANCH   5  17
ATOM     17  N   UNL     1       0.901  45.393  54.659  1.00  0.00    -0.371 N 
ATOM     18  C   UNL     1       1.507  45.551  56.001  1.00  0.00     0.117 C 
ATOM     19  C   UNL     1       0.117  44.161  54.489  1.00  0.00     0.117 C 
ATOM     20  C   UNL     1       0.625  44.935  57.091  1.00  0.00     0.035 C 
ATOM     21  C   UNL     1      -1.114  44.203  55.401  1.00  0.00     0.035 C 
ATOM     22  C   UNL     1      -0.860  44.929  56.731  1.00  0.00     0.081 C 
BRANCH  22  23
ATOM     23  C   UNL     1      -1.426  46.346  56.741  1.00  0.00     0.220 C 
ATOM     24  N   UNL     1      -2.395  46.626  55.828  1.00  0.00    -0.369 N 
ATOM     25  O   UNL     1      -1.009  47.217  57.499  1.00  0.00    -0.275 OA
ATOM     26  H   UNL     1      -2.732  47.575  55.754  1.00  0.00     0.159 HD
ATOM     27  H   UNL     1      -2.608  45.966  55.079  1.00  0.00     0.159 HD
ENDBRANCH  22  23
ENDBRANCH   5  17
TORSDOF 4
ENDMDL
MODEL 10
REMARK VINA RESULT:    -8.357      2.922      8.483
REMARK INTER + INTRA:         -10.727
REMARK INTER:                 -10.118
REMARK INTRA:                  -0.609
REMARK UNBOUND:                -0.416
REMARK SMILES Cc1cc(C)nc(Nc2cccc(N3CCC(C(N)=O)CC3)c2)n1
REMARK SMILES IDX 9 1 10 2 11 3 12 4 13 5 23 6 8 7 7 9 2 10 3 11 24 12 4 13
REMARK SMILES IDX 6 14 1 15 5 16 14 17 15 18 22 19 16 20 21 21 17 22 18 23
REMARK SMILES IDX 19 24 20 25
REMARK H PARENT 8 8 19 26 19 27
ROOT
ATOM      1  C   UNL     1       5.059  46.577  53.565  1.00  0.00     0.043 A 
ATOM      2  C   UNL     1       4.903  46.669  54.954  1.00  0.00     0.026 A 
ATOM      3  C   UNL     1       3.804  46.098  55.593  1.00  0.00     0.004 A 
ATOM      4  C   UNL     1       2.842  45.421  54.847  1.00  0.00     0.026 A 
ATOM      5  C   UNL     1       2.956  45.294  53.455  1.00  0.00     0.039 A 
ATOM      6  C   UNL     1       4.077  45.886  52.841  1.00  0.00     0.052 A 
ENDROOT
BRANCH   1   7
ATOM      7  N   UNL     1       6.189  47.164  52.983  1.00  0.00    -0.324 N 
ATOM      8  H   UNL     1       6.036  47.771  52.192  1.00  0.00     0.170 HD
BRANCH   7   9
ATOM      9  C   UNL     1       7.561  47.070  53.207  1.00  0.00     0.227 A 
ATOM     10  C   UNL     1       9.584  46.343  52.371  1.00  0.00     0.043 A 
ATOM     11  C   UNL     1      10.248  46.803  53.486  1.00  0.00     0.047 A 
ATOM     12  N   UNL     1       8.249  46.467  52.223  1.00  0.00    -0.218 NA
ATOM     13  C   UNL     1       9.472  47.408  54.450  1.00  0.00     0.043 A 
ATOM     14  N   UNL     1       8.138  47.548  54.319  1.00  0.00    -0.218 NA
ATOM     15  C   UNL     1      10.336  45.656  51.272  1.00  0.00     0.067 C 
ATOM     16  C   UNL     1      10.098  47.947  55.700  1.00  0.00     0.067 C 
ENDBRANCH   7   9
ENDBRANCH   1   7
BRANCH   5  17
ATOM     17  N   UNL     1       1.952  44.603  52.740  1.00  0.00    -0.371 N 
ATOM     18  C   UNL     1       2.438  43.303  52.222  1.00  0.00     0.117 C 
ATOM     19  C   UNL     1       1.148  45.376  51.782  1.00  0.00     0.117 C 
ATOM     20  C   UNL     1       1.441  42.683  51.238  1.00  0.00     0.035 C 
ATOM     21  C   UNL     1      -0.160  44.632  51.487  1.00  0.00     0.035 C 
ATOM     22  C   UNL     1      -0.005  43.103  51.503  1.00  0.00     0.081 C 
BRANCH  22  23
ATOM     23  C   UNL     1      -0.525  42.476  52.793  1.00  0.00     0.220 C 
ATOM     24  N   UNL     1      -0.227  41.165  53.001  1.00  0.00    -0.369 N 
ATOM     25  O   UNL     1      -1.219  43.094  53.594  1.00  0.00    -0.275 OA
ATOM     26  H   UNL     1      -0.625  40.698  53.803  1.00  0.00     0.159 HD
ATOM     27  H   UNL     1       0.183  40.602  52.254  1.00  0.00     0.159 HD
ENDBRANCH  22  23
ENDBRANCH   5  17
TORSDOF 4
ENDMDL
