MODEL 1
REMARK VINA RESULT:    -9.894      0.000      0.000
REMARK INTER + INTRA:         -11.859
REMARK INTER:                 -11.629
REMARK INTRA:                  -0.230
REMARK UNBOUND:                -0.230
REMARK SMILES Cn1ncc2c(=O)[nH]c(Nc3cccc(OC4CCCC4)c3)nc21
REMARK SMILES IDX 11 1 12 2 13 3 14 4 15 5 22 6 10 7 2 8 3 9 24 10 4 11 23 12
REMARK SMILES IDX 5 13 9 14 6 15 8 16 1 17 7 18 16 21 17 22 18 23 21 24 19 25
REMARK SMILES IDX 20 26
REMARK H PARENT 8 19 10 20
ROOT
ATOM      1  C   UNL     1       5.409  43.304  50.830  1.00  0.00     0.044 A 
ATOM      2  C   UNL     1       5.882  42.581  49.727  1.00  0.00     0.026 A 
ATOM      3  C   UNL     1       6.997  43.016  49.013  1.00  0.00     0.006 A 
ATOM      4  C   UNL     1       7.652  44.184  49.400  1.00  0.00     0.046 A 
ATOM      5  C   UNL     1       7.198  44.926  50.492  1.00  0.00     0.121 A 
ATOM      6  C   UNL     1       6.076  44.485  51.198  1.00  0.00     0.072 A 
ENDROOT
BRANCH   1   7
ATOM      7  N   UNL     1       4.281  42.803  51.520  1.00  0.00    -0.326 N 
ATOM      8  N   UNL     1       0.289  44.192  53.656  1.00  0.00    -0.250 N 
ATOM      9  N   UNL     1      -0.012  44.937  54.750  1.00  0.00    -0.179 NA
ATOM     10  C   UNL     1       1.634  44.067  53.447  1.00  0.00     0.167 A 
ATOM     11  C   UNL     1       1.187  45.281  55.240  1.00  0.00     0.151 A 
ATOM     12  N   UNL     1       2.245  43.392  52.442  1.00  0.00    -0.194 NA
ATOM     13  C   UNL     1       2.232  44.767  54.466  1.00  0.00     0.104 A 
ATOM     14  C   UNL     1       3.553  43.457  52.478  1.00  0.00     0.209 C 
ATOM     15  C   UNL     1       3.659  44.819  54.520  1.00  0.00     0.263 C 
ATOM     16  N   UNL     1       4.246  44.128  53.478  1.00  0.00    -0.292 N 
ATOM     17  C   UNL     1      -0.778  43.637  52.862  1.00  0.00     0.176 C 
ATOM     18  O   UNL     1       4.303  45.406  55.381  1.00  0.00    -0.269 OA
ATOM     19  H   UNL     1       5.253  44.091  53.480  1.00  0.00     0.173 HD
ATOM     20  H   UNL     1       3.683  42.270  50.894  1.00  0.00     0.170 HD
ENDBRANCH   1   7
BRANCH   5  21
ATOM     21  O   UNL     1       7.928  46.051  50.751  1.00  0.00    -0.490 OA
BRANCH  21  22
ATOM     22  C   UNL     1       8.209  46.394  52.101  1.00  0.00     0.173 C 
ATOM     23  C   UNL     1       9.711  46.260  52.346  1.00  0.00     0.045 C 
ATOM     24  C   UNL     1       7.985  47.876  52.388  1.00  0.00     0.045 C 
ATOM     25  C   UNL     1       9.963  47.106  53.587  1.00  0.00     0.004 C 
ATOM     26  C   UNL     1       8.863  48.166  53.599  1.00  0.00     0.004 C 
ENDBRANCH  21  22
ENDBRANCH   5  21
TORSDOF 3
ENDMDL
MODEL 2
REMARK VINA RESULT:    -9.502      0.979      1.034
REMARK INTER + INTRA:         -11.399
REMARK INTER:                 -11.212
REMARK INTRA:                  -0.187
REMARK UNBOUND:                -0.230
REMARK SMILES Cn1ncc2c(=O)[nH]c(Nc3cccc(OC4CCCC4)c3)nc21
REMARK SMILES IDX 11 1 12 2 13 3 14 4 15 5 22 6 10 7 2 8 3 9 24 10 4 11 23 12
REMARK SMILES IDX 5 13 9 14 6 15 8 16 1 17 7 18 16 21 17 22 18 23 21 24 19 25
REMARK SMILES IDX 20 26
REMARK H PARENT 8 19 10 20
ROOT
ATOM      1  C   UNL     1       4.966  43.052  50.980  1.00  0.00     0.044 A 
ATOM      2  C   UNL     1       5.675  42.382  49.973  1.00  0.00     0.026 A 
ATOM      3  C   UNL     1       6.826  42.940  49.420  1.00  0.00     0.006 A 
ATOM      4  C   UNL     1       7.280  44.178  49.870  1.00  0.00     0.046 A 
ATOM      5  C   UNL     1       6.589  44.868  50.868  1.00  0.00     0.121 A 
ATOM      6  C   UNL     1       5.433  44.304  51.414  1.00  0.00     0.072 A 
ENDROOT
BRANCH   1   7
ATOM      7  N   UNL     1       3.814  42.428  51.510  1.00  0.00    -0.326 N 
ATOM      8  N   UNL     1      -0.622  43.336  52.896  1.00  0.00    -0.250 N 
ATOM      9  N   UNL     1      -1.194  44.074  53.882  1.00  0.00    -0.179 NA
ATOM     10  C   UNL     1       0.743  43.389  52.912  1.00  0.00     0.167 A 
ATOM     11  C   UNL     1      -0.148  44.597  54.535  1.00  0.00     0.151 A 
ATOM     12  N   UNL     1       1.594  42.767  52.059  1.00  0.00    -0.194 NA
ATOM     13  C   UNL     1       1.068  44.203  53.970  1.00  0.00     0.104 A 
ATOM     14  C   UNL     1       2.859  43.011  52.299  1.00  0.00     0.209 C 
ATOM     15  C   UNL     1       2.448  44.450  54.247  1.00  0.00     0.263 C 
ATOM     16  N   UNL     1       3.284  43.808  53.355  1.00  0.00    -0.292 N 
ATOM     17  C   UNL     1      -1.463  42.612  51.977  1.00  0.00     0.176 C 
ATOM     18  O   UNL     1       2.859  45.152  55.163  1.00  0.00    -0.269 OA
ATOM     19  H   UNL     1       4.274  43.909  53.519  1.00  0.00     0.173 HD
ATOM     20  H   UNL     1       3.402  41.795  50.829  1.00  0.00     0.170 HD
ENDBRANCH   1   7
BRANCH   5  21
ATOM     21  O   UNL     1       7.141  46.072  51.205  1.00  0.00    -0.490 OA
BRANCH  21  22
ATOM     22  C   UNL     1       7.946  46.157  52.374  1.00  0.00     0.173 C 
ATOM     23  C   UNL     1       9.374  46.514  51.969  1.00  0.00     0.045 C 
ATOM     24  C   UNL     1       7.573  47.347  53.256  1.00  0.00     0.045 C 
ATOM     25  C   UNL     1       9.995  47.070  53.244  1.00  0.00     0.004 C 
ATOM     26  C   UNL     1       8.834  47.631  54.063  1.00  0.00     0.004 C 
ENDBRANCH  21  22
ENDBRANCH   5  21
TORSDOF 3
ENDMDL
MODEL 3
REMARK VINA RESULT:    -9.162      1.765      1.905
REMARK INTER + INTRA:         -11.000
REMARK INTER:                 -10.718
REMARK INTRA:                  -0.281
REMARK UNBOUND:                -0.230
REMARK SMILES Cn1ncc2c(=O)[nH]c(Nc3cccc(OC4CCCC4)c3)nc21
REMARK SMILES IDX 11 1 12 2 13 3 14 4 15 5 22 6 10 7 2 8 3 9 24 10 4 11 23 12
REMARK SMILES IDX 5 13 9 14 6 15 8 16 1 17 7 18 16 21 17 22 18 23 21 24 19 25
REMARK SMILES IDX 20 26
REMARK H PARENT 8 19 10 20
ROOT
ATOM      1  C   UNL     1       4.807  42.989  51.080  1.00  0.00     0.044 A 
ATOM      2  C   UNL     1       5.315  42.063  50.157  1.00  0.00     0.026 A 
ATOM      3  C   UNL     1       6.465  42.347  49.423  1.00  0.00     0.006 A 
ATOM      4  C   UNL     1       7.119  43.564  49.605  1.00  0.00     0.046 A 
ATOM      5  C   UNL     1       6.630  44.505  50.513  1.00  0.00     0.121 A 
ATOM      6  C   UNL     1       5.474  44.214  51.242  1.00  0.00     0.072 A 
ENDROOT
BRANCH   1   7
ATOM      7  N   UNL     1       3.645  42.636  51.803  1.00  0.00    -0.326 N 
ATOM      8  N   UNL     1      -1.041  43.314  51.903  1.00  0.00    -0.250 N 
ATOM      9  N   UNL     1      -1.859  44.379  52.104  1.00  0.00    -0.179 NA
ATOM     10  C   UNL     1       0.285  43.636  51.981  1.00  0.00     0.167 A 
ATOM     11  C   UNL     1      -1.012  45.394  52.320  1.00  0.00     0.151 A 
ATOM     12  N   UNL     1       1.339  42.797  51.822  1.00  0.00    -0.194 NA
ATOM     13  C   UNL     1       0.322  44.982  52.252  1.00  0.00     0.104 A 
ATOM     14  C   UNL     1       2.505  43.384  51.932  1.00  0.00     0.209 C 
ATOM     15  C   UNL     1       1.593  45.618  52.396  1.00  0.00     0.263 C 
ATOM     16  N   UNL     1       2.642  44.737  52.220  1.00  0.00    -0.292 N 
ATOM     17  C   UNL     1      -1.617  42.020  51.638  1.00  0.00     0.176 C 
ATOM     18  O   UNL     1       1.753  46.808  52.641  1.00  0.00    -0.269 OA
ATOM     19  H   UNL     1       3.568  45.114  52.348  1.00  0.00     0.173 HD
ATOM     20  H   UNL     1       3.433  41.649  51.687  1.00  0.00     0.170 HD
ENDBRANCH   1   7
BRANCH   5  21
ATOM     21  O   UNL     1       7.364  45.655  50.582  1.00  0.00    -0.490 OA
BRANCH  21  22
ATOM     22  C   UNL     1       7.944  46.029  51.825  1.00  0.00     0.173 C 
ATOM     23  C   UNL     1       9.463  46.054  51.677  1.00  0.00     0.045 C 
ATOM     24  C   UNL     1       7.649  47.480  52.196  1.00  0.00     0.045 C 
ATOM     25  C   UNL     1       9.936  46.925  52.834  1.00  0.00     0.004 C 
ATOM     26  C   UNL     1       8.772  47.863  53.151  1.00  0.00     0.004 C 
ENDBRANCH  21  22
ENDBRANCH   5  21
TORSDOF 3
ENDMDL
MODEL 4
REMARK VINA RESULT:    -9.074      2.739      4.089
REMARK INTER + INTRA:         -10.896
REMARK INTER:                 -10.324
REMARK INTRA:                  -0.572
REMARK UNBOUND:                -0.230
REMARK SMILES Cn1ncc2c(=O)[nH]c(Nc3cccc(OC4CCCC4)c3)nc21
REMARK SMILES IDX 11 1 12 2 13 3 14 4 15 5 22 6 10 7 2 8 3 9 24 10 4 11 23 12
REMARK SMILES IDX 5 13 9 14 6 15 8 16 1 17 7 18 16 21 17 22 18 23 21 24 19 25
REMARK SMILES IDX 20 26
REMARK H PARENT 8 19 10 20
ROOT
ATOM      1  C   UNL     1       3.076  46.175  53.852  1.00  0.00     0.044 A 
ATOM      2  C   UNL     1       3.398  45.283  54.885  1.00  0.00     0.026 A 
ATOM      3  C   UNL     1       4.713  45.151  55.329  1.00  0.00     0.006 A 
ATOM      4  C   UNL     1       5.721  45.914  54.742  1.00  0.00     0.046 A 
ATOM      5  C   UNL     1       5.427  46.805  53.708  1.00  0.00     0.121 A 
ATOM      6  C   UNL     1       4.107  46.927  53.266  1.00  0.00     0.072 A 
ENDROOT
BRANCH   1   7
ATOM      7  N   UNL     1       1.723  46.272  53.456  1.00  0.00    -0.326 N 
ATOM      8  N   UNL     1      -2.236  43.709  53.030  1.00  0.00    -0.250 N 
ATOM      9  N   UNL     1      -2.624  42.648  52.277  1.00  0.00    -0.179 NA
ATOM     10  C   UNL     1      -0.953  44.105  52.777  1.00  0.00     0.167 A 
ATOM     11  C   UNL     1      -1.547  42.381  51.526  1.00  0.00     0.151 A 
ATOM     12  N   UNL     1      -0.282  45.124  53.368  1.00  0.00    -0.194 NA
ATOM     13  C   UNL     1      -0.491  43.254  51.803  1.00  0.00     0.104 A 
ATOM     14  C   UNL     1       0.949  45.267  52.941  1.00  0.00     0.209 C 
ATOM     15  C   UNL     1       0.843  43.424  51.319  1.00  0.00     0.263 C 
ATOM     16  N   UNL     1       1.498  44.465  51.948  1.00  0.00    -0.292 N 
ATOM     17  C   UNL     1      -3.162  44.281  53.975  1.00  0.00     0.176 C 
ATOM     18  O   UNL     1       1.363  42.733  50.452  1.00  0.00    -0.269 OA
ATOM     19  H   UNL     1       2.432  44.664  51.624  1.00  0.00     0.173 HD
ATOM     20  H   UNL     1       1.198  46.854  54.104  1.00  0.00     0.170 HD
ENDBRANCH   1   7
BRANCH   5  21
ATOM     21  O   UNL     1       6.511  47.479  53.221  1.00  0.00    -0.490 OA
BRANCH  21  22
ATOM     22  C   UNL     1       7.777  46.831  53.209  1.00  0.00     0.173 C 
ATOM     23  C   UNL     1       8.407  46.996  51.828  1.00  0.00     0.045 C 
ATOM     24  C   UNL     1       8.801  47.531  54.098  1.00  0.00     0.045 C 
ATOM     25  C   UNL     1       9.890  46.745  52.063  1.00  0.00     0.004 C 
ATOM     26  C   UNL     1      10.150  47.116  53.523  1.00  0.00     0.004 C 
ENDBRANCH  21  22
ENDBRANCH   5  21
TORSDOF 3
ENDMDL
MODEL 5
REMARK VINA RESULT:    -8.983      1.973      4.254
REMARK INTER + INTRA:         -10.789
REMARK INTER:                 -11.543
REMARK INTRA:                   0.754
REMARK UNBOUND:                -0.230
REMARK SMILES Cn1ncc2c(=O)[nH]c(Nc3cccc(OC4CCCC4)c3)nc21
REMARK SMILES IDX 11 1 12 2 13 3 14 4 15 5 22 6 10 7 2 8 3 9 24 10 4 11 23 12
REMARK SMILES IDX 5 13 9 14 6 15 8 16 1 17 7 18 16 21 17 22 18 23 21 24 19 25
REMARK SMILES IDX 20 26
REMARK H PARENT 8 19 10 20
ROOT
ATOM      1  C   UNL     1       7.220  46.953  53.778  1.00  0.00     0.044 A 
ATOM      2  C   UNL     1       8.365  47.362  54.476  1.00  0.00     0.026 A 
ATOM      3  C   UNL     1       9.637  47.153  53.945  1.00  0.00     0.006 A 
ATOM      4  C   UNL     1       9.774  46.530  52.706  1.00  0.00     0.046 A 
ATOM      5  C   UNL     1       8.650  46.109  51.993  1.00  0.00     0.121 A 
ATOM      6  C   UNL     1       7.380  46.318  52.536  1.00  0.00     0.072 A 
ENDROOT
BRANCH   1   7
ATOM      7  N   UNL     1       5.959  47.206  54.365  1.00  0.00    -0.326 N 
ATOM      8  N   UNL     1       1.602  45.397  54.774  1.00  0.00    -0.250 N 
ATOM      9  N   UNL     1       0.580  45.134  53.919  1.00  0.00    -0.179 NA
ATOM     10  C   UNL     1       2.691  45.943  54.155  1.00  0.00     0.167 A 
ATOM     11  C   UNL     1       1.049  45.538  52.731  1.00  0.00     0.151 A 
ATOM     12  N   UNL     1       3.861  46.309  54.735  1.00  0.00    -0.194 NA
ATOM     13  C   UNL     1       2.349  46.043  52.829  1.00  0.00     0.104 A 
ATOM     14  C   UNL     1       4.742  46.791  53.894  1.00  0.00     0.209 C 
ATOM     15  C   UNL     1       3.300  46.591  51.914  1.00  0.00     0.263 C 
ATOM     16  N   UNL     1       4.481  46.944  52.537  1.00  0.00    -0.292 N 
ATOM     17  C   UNL     1       1.450  45.087  56.174  1.00  0.00     0.176 C 
ATOM     18  O   UNL     1       3.109  46.734  50.713  1.00  0.00    -0.269 OA
ATOM     19  H   UNL     1       5.182  47.375  51.954  1.00  0.00     0.173 HD
ATOM     20  H   UNL     1       6.012  47.136  55.377  1.00  0.00     0.170 HD
ENDBRANCH   1   7
BRANCH   5  21
ATOM     21  O   UNL     1       8.933  45.507  50.800  1.00  0.00    -0.490 OA
BRANCH  21  22
ATOM     22  C   UNL     1       7.861  45.029  49.998  1.00  0.00     0.173 C 
ATOM     23  C   UNL     1       8.303  43.750  49.289  1.00  0.00     0.045 C 
ATOM     24  C   UNL     1       6.686  44.524  50.832  1.00  0.00     0.045 C 
ATOM     25  C   UNL     1       6.998  43.070  48.900  1.00  0.00     0.004 C 
ATOM     26  C   UNL     1       5.959  43.550  49.913  1.00  0.00     0.004 C 
ENDBRANCH  21  22
ENDBRANCH   5  21
TORSDOF 3
ENDMDL
MODEL 6
REMARK VINA RESULT:    -8.732      2.831      7.012
REMARK INTER + INTRA:         -10.494
REMARK INTER:                 -10.148
REMARK INTRA:                  -0.346
REMARK UNBOUND:                -0.230
REMARK SMILES Cn1ncc2c(=O)[nH]c(Nc3cccc(OC4CCCC4)c3)nc21
REMARK SMILES IDX 11 1 12 2 13 3 14 4 15 5 22 6 10 7 2 8 3 9 24 10 4 11 23 12
REMARK SMILES IDX 5 13 9 14 6 15 8 16 1 17 7 18 16 21 17 22 18 23 21 24 19 25
REMARK SMILES IDX 20 26
REMARK H PARENT 8 19 10 20
ROOT
ATOM      1  C   UNL     1       4.278  44.605  51.031  1.00  0.00     0.044 A 
ATOM      2  C   UNL     1       4.486  43.226  51.169  1.00  0.00     0.026 A 
ATOM      3  C   UNL     1       3.413  42.359  51.368  1.00  0.00     0.006 A 
ATOM      4  C   UNL     1       2.117  42.867  51.430  1.00  0.00     0.046 A 
ATOM      5  C   UNL     1       1.883  44.238  51.301  1.00  0.00     0.121 A 
ATOM      6  C   UNL     1       2.966  45.100  51.107  1.00  0.00     0.072 A 
ENDROOT
BRANCH   1   7
ATOM      7  N   UNL     1       5.407  45.430  50.819  1.00  0.00    -0.326 N 
ATOM      8  N   UNL     1       9.619  46.543  52.674  1.00  0.00    -0.250 N 
ATOM      9  N   UNL     1      10.045  47.131  53.822  1.00  0.00    -0.179 NA
ATOM     10  C   UNL     1       8.258  46.448  52.595  1.00  0.00     0.167 A 
ATOM     11  C   UNL     1       8.908  47.415  54.473  1.00  0.00     0.151 A 
ATOM     12  N   UNL     1       7.536  45.909  51.581  1.00  0.00    -0.194 NA
ATOM     13  C   UNL     1       7.781  47.009  53.753  1.00  0.00     0.104 A 
ATOM     14  C   UNL     1       6.242  45.934  51.780  1.00  0.00     0.209 C 
ATOM     15  C   UNL     1       6.368  47.059  53.961  1.00  0.00     0.263 C 
ATOM     16  N   UNL     1       5.666  46.496  52.913  1.00  0.00    -0.292 N 
ATOM     17  C   UNL     1      10.590  46.098  51.706  1.00  0.00     0.176 C 
ATOM     18  O   UNL     1       5.826  47.539  54.949  1.00  0.00    -0.269 OA
ATOM     19  H   UNL     1       4.660  46.535  52.978  1.00  0.00     0.173 HD
ATOM     20  H   UNL     1       5.922  45.130  49.995  1.00  0.00     0.170 HD
ENDBRANCH   1   7
BRANCH   5  21
ATOM     21  O   UNL     1       0.568  44.596  51.391  1.00  0.00    -0.490 OA
BRANCH  21  22
ATOM     22  C   UNL     1       0.060  45.045  52.641  1.00  0.00     0.173 C 
ATOM     23  C   UNL     1      -0.762  43.925  53.275  1.00  0.00     0.045 C 
ATOM     24  C   UNL     1       1.159  45.243  53.682  1.00  0.00     0.045 C 
ATOM     25  C   UNL     1      -0.814  44.291  54.752  1.00  0.00     0.004 C 
ATOM     26  C   UNL     1       0.441  45.121  55.020  1.00  0.00     0.004 C 
ENDBRANCH  21  22
ENDBRANCH   5  21
TORSDOF 3
ENDMDL
MODEL 7
REMARK VINA RESULT:    -8.718      3.520      5.774
REMARK INTER + INTRA:         -10.477
REMARK INTER:                 -10.081
REMARK INTRA:                  -0.396
REMARK UNBOUND:                -0.230
REMARK SMILES Cn1ncc2c(=O)[nH]c(Nc3cccc(OC4CCCC4)c3)nc21
REMARK SMILES IDX 11 1 12 2 13 3 14 4 15 5 22 6 10 7 2 8 3 9 24 10 4 11 23 12
REMARK SMILES IDX 5 13 9 14 6 15 8 16 1 17 7 18 16 21 17 22 18 23 21 24 19 25
REMARK SMILES IDX 20 26
REMARK H PARENT 8 19 10 20
ROOT
ATOM      1  C   UNL     1       8.214  44.558  50.027  1.00  0.00     0.044 A 
ATOM      2  C   UNL     1       9.521  44.923  50.377  1.00  0.00     0.026 A 
ATOM      3  C   UNL     1       9.754  45.947  51.294  1.00  0.00     0.006 A 
ATOM      4  C   UNL     1       8.677  46.616  51.871  1.00  0.00     0.046 A 
ATOM      5  C   UNL     1       7.366  46.276  51.535  1.00  0.00     0.121 A 
ATOM      6  C   UNL     1       7.141  45.252  50.611  1.00  0.00     0.072 A 
ENDROOT
BRANCH   1   7
ATOM      7  N   UNL     1       8.043  43.503  49.101  1.00  0.00    -0.326 N 
ATOM      8  N   UNL     1       4.728  41.231  46.598  1.00  0.00    -0.250 N 
ATOM      9  N   UNL     1       3.651  40.459  46.896  1.00  0.00    -0.179 NA
ATOM     10  C   UNL     1       5.399  41.665  47.706  1.00  0.00     0.167 A 
ATOM     11  C   UNL     1       3.659  40.408  48.235  1.00  0.00     0.151 A 
ATOM     12  N   UNL     1       6.504  42.451  47.735  1.00  0.00    -0.194 NA
ATOM     13  C   UNL     1       4.719  41.140  48.778  1.00  0.00     0.104 A 
ATOM     14  C   UNL     1       6.926  42.727  48.944  1.00  0.00     0.209 C 
ATOM     15  C   UNL     1       5.193  41.421  50.096  1.00  0.00     0.263 C 
ATOM     16  N   UNL     1       6.313  42.228  50.088  1.00  0.00    -0.292 N 
ATOM     17  C   UNL     1       5.040  41.506  45.218  1.00  0.00     0.176 C 
ATOM     18  O   UNL     1       4.675  41.005  51.126  1.00  0.00    -0.269 OA
ATOM     19  H   UNL     1       6.723  42.432  50.986  1.00  0.00     0.173 HD
ATOM     20  H   UNL     1       8.465  43.737  48.207  1.00  0.00     0.170 HD
ENDBRANCH   1   7
BRANCH   5  21
ATOM     21  O   UNL     1       6.411  47.021  52.168  1.00  0.00    -0.490 OA
BRANCH  21  22
ATOM     22  C   UNL     1       5.417  46.356  52.936  1.00  0.00     0.173 C 
ATOM     23  C   UNL     1       6.101  45.439  53.948  1.00  0.00     0.045 C 
ATOM     24  C   UNL     1       4.653  47.306  53.854  1.00  0.00     0.045 C 
ATOM     25  C   UNL     1       5.036  45.193  55.008  1.00  0.00     0.004 C 
ATOM     26  C   UNL     1       4.115  46.412  54.965  1.00  0.00     0.004 C 
ENDBRANCH  21  22
ENDBRANCH   5  21
TORSDOF 3
ENDMDL
MODEL 8
REMARK VINA RESULT:    -8.636      2.425      3.734
REMARK INTER + INTRA:         -10.381
REMARK INTER:                  -9.783
REMARK INTRA:                  -0.598
REMARK UNBOUND:                -0.230
REMARK SMILES Cn1ncc2c(=O)[nH]c(Nc3cccc(OC4CCCC4)c3)nc21
REMARK SMILES IDX 11 1 12 2 13 3 14 4 15 5 22 6 10 7 2 8 3 9 24 10 4 11 23 12
REMARK SMILES IDX 5 13 9 14 6 15 8 16 1 17 7 18 16 21 17 22 18 23 21 24 19 25
REMARK SMILES IDX 20 26
REMARK H PARENT 8 19 10 20
ROOT
ATOM      1  C   UNL     1       3.144  45.149  53.703  1.00  0.00     0.044 A 
ATOM      2  C   UNL     1       2.837  46.439  53.246  1.00  0.00     0.026 A 
ATOM      3  C   UNL     1       3.846  47.305  52.828  1.00  0.00     0.006 A 
ATOM      4  C   UNL     1       5.175  46.888  52.863  1.00  0.00     0.046 A 
ATOM      5  C   UNL     1       5.507  45.611  53.319  1.00  0.00     0.121 A 
ATOM      6  C   UNL     1       4.490  44.750  53.741  1.00  0.00     0.072 A 
ENDROOT
BRANCH   1   7
ATOM      7  N   UNL     1       2.075  44.314  54.100  1.00  0.00    -0.326 N 
ATOM      8  N   UNL     1      -2.419  44.452  55.585  1.00  0.00    -0.250 N 
ATOM      9  N   UNL     1      -3.061  44.931  56.682  1.00  0.00    -0.179 NA
ATOM     10  C   UNL     1      -1.069  44.655  55.624  1.00  0.00     0.167 A 
ATOM     11  C   UNL     1      -2.072  45.443  57.429  1.00  0.00     0.151 A 
ATOM     12  N   UNL     1      -0.162  44.296  54.680  1.00  0.00    -0.194 NA
ATOM     13  C   UNL     1      -0.826  45.296  56.813  1.00  0.00     0.104 A 
ATOM     14  C   UNL     1       1.069  44.634  54.972  1.00  0.00     0.209 C 
ATOM     15  C   UNL     1       0.520  45.644  57.144  1.00  0.00     0.263 C 
ATOM     16  N   UNL     1       1.413  45.271  56.159  1.00  0.00    -0.292 N 
ATOM     17  C   UNL     1      -3.183  43.814  54.542  1.00  0.00     0.176 C 
ATOM     18  O   UNL     1       0.860  46.211  58.175  1.00  0.00    -0.269 OA
ATOM     19  H   UNL     1       2.387  45.452  56.348  1.00  0.00     0.173 HD
ATOM     20  H   UNL     1       1.730  43.771  53.313  1.00  0.00     0.170 HD
ENDBRANCH   1   7
BRANCH   5  21
ATOM     21  O   UNL     1       6.846  45.340  53.309  1.00  0.00    -0.490 OA
BRANCH  21  22
ATOM     22  C   UNL     1       7.753  46.363  52.917  1.00  0.00     0.173 C 
ATOM     23  C   UNL     1       8.752  46.600  54.047  1.00  0.00     0.045 C 
ATOM     24  C   UNL     1       8.674  45.925  51.782  1.00  0.00     0.045 C 
ATOM     25  C   UNL     1       9.927  47.289  53.367  1.00  0.00     0.004 C 
ATOM     26  C   UNL     1       9.891  46.833  51.909  1.00  0.00     0.004 C 
ENDBRANCH  21  22
ENDBRANCH   5  21
TORSDOF 3
ENDMDL
MODEL 9
REMARK VINA RESULT:    -8.597      2.271      3.568
REMARK INTER + INTRA:         -10.334
REMARK INTER:                  -9.939
REMARK INTRA:                  -0.395
REMARK UNBOUND:                -0.230
REMARK SMILES Cn1ncc2c(=O)[nH]c(Nc3cccc(OC4CCCC4)c3)nc21
REMARK SMILES IDX 11 1 12 2 13 3 14 4 15 5 22 6 10 7 2 8 3 9 24 10 4 11 23 12
REMARK SMILES IDX 5 13 9 14 6 15 8 16 1 17 7 18 16 21 17 22 18 23 21 24 19 25
REMARK SMILES IDX 20 26
REMARK H PARENT 8 19 10 20
ROOT
ATOM      1  C   UNL     1       3.330  45.415  53.236  1.00  0.00     0.044 A 
ATOM      2  C   UNL     1       3.408  44.129  52.683  1.00  0.00     0.026 A 
ATOM      3  C   UNL     1       4.527  43.735  51.951  1.00  0.00     0.006 A 
ATOM      4  C   UNL     1       5.581  44.628  51.764  1.00  0.00     0.046 A 
ATOM      5  C   UNL     1       5.524  45.916  52.299  1.00  0.00     0.121 A 
ATOM      6  C   UNL     1       4.397  46.304  53.028  1.00  0.00     0.072 A 
ENDROOT
BRANCH   1   7
ATOM      7  N   UNL     1       2.175  45.749  53.980  1.00  0.00    -0.326 N 
ATOM      8  N   UNL     1      -2.056  44.055  55.268  1.00  0.00    -0.250 N 
ATOM      9  N   UNL     1      -3.197  43.711  54.619  1.00  0.00    -0.179 NA
ATOM     10  C   UNL     1      -1.080  44.514  54.429  1.00  0.00     0.167 A 
ATOM     11  C   UNL     1      -2.922  43.971  53.333  1.00  0.00     0.151 A 
ATOM     12  N   UNL     1       0.165  44.927  54.773  1.00  0.00    -0.194 NA
ATOM     13  C   UNL     1      -1.625  44.467  53.169  1.00  0.00     0.104 A 
ATOM     14  C   UNL     1       0.901  45.299  53.755  1.00  0.00     0.209 C 
ATOM     15  C   UNL     1      -0.832  44.895  52.061  1.00  0.00     0.263 C 
ATOM     16  N   UNL     1       0.430  45.301  52.447  1.00  0.00    -0.292 N 
ATOM     17  C   UNL     1      -1.985  43.908  56.700  1.00  0.00     0.176 C 
ATOM     18  O   UNL     1      -1.210  44.904  50.896  1.00  0.00    -0.269 OA
ATOM     19  H   UNL     1       1.029  45.654  51.717  1.00  0.00     0.173 HD
ATOM     20  H   UNL     1       2.386  45.794  54.973  1.00  0.00     0.170 HD
ENDBRANCH   1   7
BRANCH   5  21
ATOM     21  O   UNL     1       6.621  46.685  52.031  1.00  0.00    -0.490 OA
BRANCH  21  22
ATOM     22  C   UNL     1       7.864  46.346  52.630  1.00  0.00     0.173 C 
ATOM     23  C   UNL     1       8.950  46.347  51.557  1.00  0.00     0.045 C 
ATOM     24  C   UNL     1       8.372  47.429  53.578  1.00  0.00     0.045 C 
ATOM     25  C   UNL     1      10.248  46.486  52.340  1.00  0.00     0.004 C 
ATOM     26  C   UNL     1       9.879  47.209  53.635  1.00  0.00     0.004 C 
ENDBRANCH  21  22
ENDBRANCH   5  21
TORSDOF 3
ENDMDL
MODEL 10
REMARK VINA RESULT:    -8.576      1.745      2.537
REMARK INTER + INTRA:         -10.310
REMARK INTER:                 -10.131
REMARK INTRA:                  -0.179
REMARK UNBOUND:                -0.230
REMARK SMILES Cn1ncc2c(=O)[nH]c(Nc3cccc(OC4CCCC4)c3)nc21
REMARK SMILES IDX 11 1 12 2 13 3 14 4 15 5 22 6 10 7 2 8 3 9 24 10 4 11 23 12
REMARK SMILES IDX 5 13 9 14 6 15 8 16 1 17 7 18 16 21 17 22 18 23 21 24 19 25
REMARK SMILES IDX 20 26
REMARK H PARENT 8 19 10 20
ROOT
ATOM      1  C   UNL     1       3.721  42.997  51.978  1.00  0.00     0.044 A 
ATOM      2  C   UNL     1       4.412  42.613  50.820  1.00  0.00     0.026 A 
ATOM      3  C   UNL     1       5.625  43.211  50.483  1.00  0.00     0.006 A 
ATOM      4  C   UNL     1       6.158  44.203  51.303  1.00  0.00     0.046 A 
ATOM      5  C   UNL     1       5.486  44.608  52.458  1.00  0.00     0.121 A 
ATOM      6  C   UNL     1       4.268  44.006  52.786  1.00  0.00     0.072 A 
ENDROOT
BRANCH   1   7
ATOM      7  N   UNL     1       2.502  42.343  52.271  1.00  0.00    -0.326 N 
ATOM      8  N   UNL     1      -2.118  43.163  52.908  1.00  0.00    -0.250 N 
ATOM      9  N   UNL     1      -2.862  43.851  53.811  1.00  0.00    -0.179 NA
ATOM     10  C   UNL     1      -0.777  43.222  53.162  1.00  0.00     0.167 A 
ATOM     11  C   UNL     1      -1.951  44.350  54.659  1.00  0.00     0.151 A 
ATOM     12  N   UNL     1       0.217  42.645  52.442  1.00  0.00    -0.194 NA
ATOM     13  C   UNL     1      -0.650  43.988  54.295  1.00  0.00     0.104 A 
ATOM     14  C   UNL     1       1.418  42.884  52.908  1.00  0.00     0.209 C 
ATOM     15  C   UNL     1       0.658  44.230  54.818  1.00  0.00     0.263 C 
ATOM     16  N   UNL     1       1.643  43.634  54.057  1.00  0.00    -0.292 N 
ATOM     17  C   UNL     1      -2.778  42.477  51.825  1.00  0.00     0.176 C 
ATOM     18  O   UNL     1       0.895  44.891  55.822  1.00  0.00    -0.269 OA
ATOM     19  H   UNL     1       2.588  43.732  54.394  1.00  0.00     0.173 HD
ATOM     20  H   UNL     1       2.222  41.740  51.502  1.00  0.00     0.170 HD
ENDBRANCH   1   7
BRANCH   5  21
ATOM     21  O   UNL     1       6.118  45.595  53.161  1.00  0.00    -0.490 OA
BRANCH  21  22
ATOM     22  C   UNL     1       7.271  46.209  52.601  1.00  0.00     0.173 C 
ATOM     23  C   UNL     1       6.993  47.697  52.401  1.00  0.00     0.045 C 
ATOM     24  C   UNL     1       8.446  46.246  53.574  1.00  0.00     0.045 C 
ATOM     25  C   UNL     1       8.377  48.325  52.302  1.00  0.00     0.004 C 
ATOM     26  C   UNL     1       9.311  47.400  53.082  1.00  0.00     0.004 C 
ENDBRANCH  21  22
ENDBRANCH   5  21
TORSDOF 3
ENDMDL
