MODEL 1
REMARK VINA RESULT:    -8.038      0.000      0.000
REMARK INTER + INTRA:         -11.307
REMARK INTER:                 -10.387
REMARK INTRA:                  -0.920
REMARK UNBOUND:                -0.920
REMARK SMILES O=S(=O)(CCNc1ncnc2nc[nH]c12)c1ccccc1
REMARK SMILES IDX 5 1 4 2 2 3 1 4 3 5 16 6 17 7 21 8 18 9 20 10 19 11 6 12
REMARK SMILES IDX 7 14 8 15 15 16 9 17 14 18 11 19 10 20 13 21 12 22
REMARK H PARENT 6 13 14 23
ROOT
ATOM      1  C   UNL     1       3.969  44.617  53.534  1.00  0.00     0.131 C 
ENDROOT
BRANCH   1   2
ATOM      2  C   UNL     1       5.391  45.045  53.845  1.00  0.00     0.163 C 
BRANCH   2   3
ATOM      3  S   UNL     1       5.709  46.747  53.457  1.00  0.00     0.180 S 
ATOM      4  O   UNL     1       5.202  47.570  54.539  1.00  0.00    -0.224 OA
ATOM      5  O   UNL     1       5.240  46.970  52.099  1.00  0.00    -0.224 OA
BRANCH   3   6
ATOM      6  C   UNL     1       7.479  46.917  53.413  1.00  0.00     0.067 A 
ATOM      7  C   UNL     1       8.171  47.184  54.597  1.00  0.00     0.020 A 
ATOM      8  C   UNL     1       8.167  46.737  52.209  1.00  0.00     0.020 A 
ATOM      9  C   UNL     1       9.561  47.302  54.569  1.00  0.00     0.001 A 
ATOM     10  C   UNL     1       9.557  46.860  52.189  1.00  0.00     0.001 A 
ATOM     11  C   UNL     1      10.252  47.143  53.366  1.00  0.00     0.000 A 
ENDBRANCH   3   6
ENDBRANCH   2   3
ENDBRANCH   1   2
BRANCH   1  12
ATOM     12  N   UNL     1       3.749  44.618  52.089  1.00  0.00    -0.367 N 
ATOM     13  H   UNL     1       2.772  44.721  51.825  1.00  0.00     0.162 HD
BRANCH  12  14
ATOM     14  C   UNL     1       4.280  43.520  51.410  1.00  0.00     0.155 A 
ATOM     15  N   UNL     1       3.707  42.301  51.445  1.00  0.00    -0.217 NA
ATOM     16  C   UNL     1       5.440  43.632  50.668  1.00  0.00     0.128 A 
ATOM     17  C   UNL     1       4.277  41.296  50.745  1.00  0.00     0.226 A 
ATOM     18  N   UNL     1       6.336  44.641  50.447  1.00  0.00    -0.340 N 
ATOM     19  C   UNL     1       5.955  42.549  49.984  1.00  0.00     0.182 A 
ATOM     20  N   UNL     1       5.380  41.334  49.988  1.00  0.00    -0.215 NA
ATOM     21  C   UNL     1       7.317  44.148  49.632  1.00  0.00     0.199 A 
ATOM     22  N   UNL     1       7.109  42.886  49.327  1.00  0.00    -0.217 NA
ATOM     23  H   UNL     1       6.302  45.562  50.862  1.00  0.00     0.168 HD
ENDBRANCH  12  14
ENDBRANCH   1  12
TORSDOF 5
ENDMDL
MODEL 2
REMARK VINA RESULT:    -7.997      2.134      3.428
REMARK INTER + INTRA:         -11.254
REMARK INTER:                 -10.491
REMARK INTRA:                  -0.764
REMARK UNBOUND:                -0.920
REMARK SMILES O=S(=O)(CCNc1ncnc2nc[nH]c12)c1ccccc1
REMARK SMILES IDX 5 1 4 2 2 3 1 4 3 5 16 6 17 7 21 8 18 9 20 10 19 11 6 12
REMARK SMILES IDX 7 14 8 15 15 16 9 17 14 18 11 19 10 20 13 21 12 22
REMARK H PARENT 6 13 14 23
ROOT
ATOM      1  C   UNL     1       3.999  46.025  55.340  1.00  0.00     0.131 C 
ENDROOT
BRANCH   1   2
ATOM      2  C   UNL     1       5.359  45.704  54.751  1.00  0.00     0.163 C 
BRANCH   2   3
ATOM      3  S   UNL     1       5.713  46.619  53.272  1.00  0.00     0.180 S 
ATOM      4  O   UNL     1       5.244  47.980  53.449  1.00  0.00    -0.224 OA
ATOM      5  O   UNL     1       5.227  45.828  52.154  1.00  0.00    -0.224 OA
BRANCH   3   6
ATOM      6  C   UNL     1       7.485  46.656  53.132  1.00  0.00     0.067 A 
ATOM      7  C   UNL     1       8.084  46.297  51.921  1.00  0.00     0.020 A 
ATOM      8  C   UNL     1       8.262  47.085  54.211  1.00  0.00     0.020 A 
ATOM      9  C   UNL     1       9.474  46.340  51.801  1.00  0.00     0.001 A 
ATOM     10  C   UNL     1       9.651  47.122  54.086  1.00  0.00     0.001 A 
ATOM     11  C   UNL     1      10.256  46.750  52.883  1.00  0.00     0.000 A 
ENDBRANCH   3   6
ENDBRANCH   2   3
ENDBRANCH   1   2
BRANCH   1  12
ATOM     12  N   UNL     1       3.135  44.847  55.277  1.00  0.00    -0.367 N 
ATOM     13  H   UNL     1       3.633  43.968  55.396  1.00  0.00     0.162 HD
BRANCH  12  14
ATOM     14  C   UNL     1       2.342  44.756  54.131  1.00  0.00     0.155 A 
ATOM     15  N   UNL     1       1.203  45.460  53.981  1.00  0.00    -0.217 NA
ATOM     16  C   UNL     1       2.689  43.920  53.088  1.00  0.00     0.128 A 
ATOM     17  C   UNL     1       0.504  45.325  52.833  1.00  0.00     0.226 A 
ATOM     18  N   UNL     1       3.692  43.013  52.887  1.00  0.00    -0.340 N 
ATOM     19  C   UNL     1       1.913  43.843  51.949  1.00  0.00     0.182 A 
ATOM     20  N   UNL     1       0.788  44.558  51.774  1.00  0.00    -0.215 NA
ATOM     21  C   UNL     1       3.504  42.459  51.651  1.00  0.00     0.199 A 
ATOM     22  N   UNL     1       2.439  42.949  51.055  1.00  0.00    -0.217 NA
ATOM     23  H   UNL     1       4.404  42.762  53.559  1.00  0.00     0.168 HD
ENDBRANCH  12  14
ENDBRANCH   1  12
TORSDOF 5
ENDMDL
MODEL 3
REMARK VINA RESULT:    -7.937      3.565      5.808
REMARK INTER + INTRA:         -11.177
REMARK INTER:                 -10.848
REMARK INTRA:                  -0.329
REMARK UNBOUND:                -0.920
REMARK SMILES O=S(=O)(CCNc1ncnc2nc[nH]c12)c1ccccc1
REMARK SMILES IDX 5 1 4 2 2 3 1 4 3 5 16 6 17 7 21 8 18 9 20 10 19 11 6 12
REMARK SMILES IDX 7 14 8 15 15 16 9 17 14 18 11 19 10 20 13 21 12 22
REMARK H PARENT 6 13 14 23
ROOT
ATOM      1  C   UNL     1       3.716  45.070  53.941  1.00  0.00     0.131 C 
ENDROOT
BRANCH   1   2
ATOM      2  C   UNL     1       5.217  45.282  53.900  1.00  0.00     0.163 C 
BRANCH   2   3
ATOM      3  S   UNL     1       5.695  46.705  52.955  1.00  0.00     0.180 S 
ATOM      4  O   UNL     1       5.203  47.893  53.627  1.00  0.00    -0.224 OA
ATOM      5  O   UNL     1       5.319  46.448  51.575  1.00  0.00    -0.224 OA
BRANCH   3   6
ATOM      6  C   UNL     1       7.473  46.743  52.993  1.00  0.00     0.067 A 
ATOM      7  C   UNL     1       8.191  46.407  51.841  1.00  0.00     0.020 A 
ATOM      8  C   UNL     1       8.138  47.151  54.153  1.00  0.00     0.020 A 
ATOM      9  C   UNL     1       9.585  46.451  51.863  1.00  0.00     0.001 A 
ATOM     10  C   UNL     1       9.532  47.190  54.168  1.00  0.00     0.001 A 
ATOM     11  C   UNL     1      10.255  46.839  53.025  1.00  0.00     0.000 A 
ENDBRANCH   3   6
ENDBRANCH   2   3
ENDBRANCH   1   2
BRANCH   1  12
ATOM     12  N   UNL     1       3.274  44.879  55.321  1.00  0.00    -0.367 N 
ATOM     13  H   UNL     1       3.632  44.029  55.751  1.00  0.00     0.162 HD
BRANCH  12  14
ATOM     14  C   UNL     1       1.892  44.924  55.512  1.00  0.00     0.155 A 
ATOM     15  N   UNL     1       1.025  44.329  54.668  1.00  0.00    -0.217 NA
ATOM     16  C   UNL     1       1.340  45.599  56.582  1.00  0.00     0.128 A 
ATOM     17  C   UNL     1      -0.297  44.407  54.935  1.00  0.00     0.226 A 
ATOM     18  N   UNL     1       1.852  46.371  57.588  1.00  0.00    -0.340 N 
ATOM     19  C   UNL     1      -0.027  45.630  56.778  1.00  0.00     0.182 A 
ATOM     20  N   UNL     1      -0.901  45.019  55.960  1.00  0.00    -0.215 NA
ATOM     21  C   UNL     1       0.802  46.801  58.352  1.00  0.00     0.199 A 
ATOM     22  N   UNL     1      -0.348  46.361  57.890  1.00  0.00    -0.217 NA
ATOM     23  H   UNL     1       2.824  46.620  57.704  1.00  0.00     0.168 HD
ENDBRANCH  12  14
ENDBRANCH   1  12
TORSDOF 5
ENDMDL
MODEL 4
REMARK VINA RESULT:    -7.851      2.302      3.746
REMARK INTER + INTRA:         -11.065
REMARK INTER:                 -10.262
REMARK INTRA:                  -0.803
REMARK UNBOUND:                -0.920
REMARK SMILES O=S(=O)(CCNc1ncnc2nc[nH]c12)c1ccccc1
REMARK SMILES IDX 5 1 4 2 2 3 1 4 3 5 16 6 17 7 21 8 18 9 20 10 19 11 6 12
REMARK SMILES IDX 7 14 8 15 15 16 9 17 14 18 11 19 10 20 13 21 12 22
REMARK H PARENT 6 13 14 23
ROOT
ATOM      1  C   UNL     1       3.770  45.906  55.420  1.00  0.00     0.131 C 
ENDROOT
BRANCH   1   2
ATOM      2  C   UNL     1       5.220  45.592  55.105  1.00  0.00     0.163 C 
BRANCH   2   3
ATOM      3  S   UNL     1       6.058  46.921  54.280  1.00  0.00     0.180 S 
ATOM      4  O   UNL     1       7.269  47.231  55.017  1.00  0.00    -0.224 OA
ATOM      5  O   UNL     1       5.074  47.962  54.038  1.00  0.00    -0.224 OA
BRANCH   3   6
ATOM      6  C   UNL     1       6.526  46.289  52.684  1.00  0.00     0.067 A 
ATOM      7  C   UNL     1       7.846  46.438  52.248  1.00  0.00     0.020 A 
ATOM      8  C   UNL     1       5.589  45.610  51.900  1.00  0.00     0.020 A 
ATOM      9  C   UNL     1       8.220  45.929  51.004  1.00  0.00     0.001 A 
ATOM     10  C   UNL     1       5.970  45.107  50.656  1.00  0.00     0.001 A 
ATOM     11  C   UNL     1       7.283  45.267  50.208  1.00  0.00     0.000 A 
ENDBRANCH   3   6
ENDBRANCH   2   3
ENDBRANCH   1   2
BRANCH   1  12
ATOM     12  N   UNL     1       2.942  44.720  55.205  1.00  0.00    -0.367 N 
ATOM     13  H   UNL     1       3.444  43.844  55.332  1.00  0.00     0.162 HD
BRANCH  12  14
ATOM     14  C   UNL     1       2.278  44.676  53.978  1.00  0.00     0.155 A 
ATOM     15  N   UNL     1       1.230  45.475  53.693  1.00  0.00    -0.217 NA
ATOM     16  C   UNL     1       2.663  43.794  52.988  1.00  0.00     0.128 A 
ATOM     17  C   UNL     1       0.654  45.379  52.475  1.00  0.00     0.226 A 
ATOM     18  N   UNL     1       3.598  42.799  52.910  1.00  0.00    -0.340 N 
ATOM     19  C   UNL     1       2.016  43.763  51.769  1.00  0.00     0.182 A 
ATOM     20  N   UNL     1       0.986  44.570  51.462  1.00  0.00    -0.215 NA
ATOM     21  C   UNL     1       3.501  42.240  51.666  1.00  0.00     0.199 A 
ATOM     22  N   UNL     1       2.557  42.810  50.948  1.00  0.00    -0.217 NA
ATOM     23  H   UNL     1       4.205  42.499  53.660  1.00  0.00     0.168 HD
ENDBRANCH  12  14
ENDBRANCH   1  12
TORSDOF 5
ENDMDL
MODEL 5
REMARK VINA RESULT:    -7.826      2.511      5.621
REMARK INTER + INTRA:         -11.033
REMARK INTER:                 -10.092
REMARK INTRA:                  -0.941
REMARK UNBOUND:                -0.920
REMARK SMILES O=S(=O)(CCNc1ncnc2nc[nH]c12)c1ccccc1
REMARK SMILES IDX 5 1 4 2 2 3 1 4 3 5 16 6 17 7 21 8 18 9 20 10 19 11 6 12
REMARK SMILES IDX 7 14 8 15 15 16 9 17 14 18 11 19 10 20 13 21 12 22
REMARK H PARENT 6 13 14 23
ROOT
ATOM      1  C   UNL     1       5.647  45.333  53.912  1.00  0.00     0.131 C 
ENDROOT
BRANCH   1   2
ATOM      2  C   UNL     1       4.267  45.153  53.308  1.00  0.00     0.163 C 
BRANCH   2   3
ATOM      3  S   UNL     1       4.249  45.327  51.542  1.00  0.00     0.180 S 
ATOM      4  O   UNL     1       5.162  46.394  51.175  1.00  0.00    -0.224 OA
ATOM      5  O   UNL     1       2.856  45.395  51.133  1.00  0.00    -0.224 OA
BRANCH   3   6
ATOM      6  C   UNL     1       4.891  43.800  50.893  1.00  0.00     0.067 A 
ATOM      7  C   UNL     1       6.069  43.817  50.141  1.00  0.00     0.020 A 
ATOM      8  C   UNL     1       4.243  42.595  51.176  1.00  0.00     0.020 A 
ATOM      9  C   UNL     1       6.584  42.619  49.644  1.00  0.00     0.001 A 
ATOM     10  C   UNL     1       4.761  41.402  50.672  1.00  0.00     0.001 A 
ATOM     11  C   UNL     1       5.930  41.414  49.907  1.00  0.00     0.000 A 
ENDBRANCH   3   6
ENDBRANCH   2   3
ENDBRANCH   1   2
BRANCH   1  12
ATOM     12  N   UNL     1       6.065  46.729  53.799  1.00  0.00    -0.367 N 
ATOM     13  H   UNL     1       5.712  47.194  52.966  1.00  0.00     0.162 HD
BRANCH  12  14
ATOM     14  C   UNL     1       7.443  46.942  53.876  1.00  0.00     0.155 A 
ATOM     15  N   UNL     1       8.023  47.548  54.931  1.00  0.00    -0.217 NA
ATOM     16  C   UNL     1       8.285  46.545  52.857  1.00  0.00     0.128 A 
ATOM     17  C   UNL     1       9.366  47.700  54.933  1.00  0.00     0.226 A 
ATOM     18  N   UNL     1       8.091  45.984  51.625  1.00  0.00    -0.340 N 
ATOM     19  C   UNL     1       9.649  46.742  52.942  1.00  0.00     0.182 A 
ATOM     20  N   UNL     1      10.245  47.321  53.998  1.00  0.00    -0.215 NA
ATOM     21  C   UNL     1       9.319  45.839  51.041  1.00  0.00     0.199 A 
ATOM     22  N   UNL     1      10.283  46.281  51.819  1.00  0.00    -0.217 NA
ATOM     23  H   UNL     1       7.196  45.773  51.207  1.00  0.00     0.168 HD
ENDBRANCH  12  14
ENDBRANCH   1  12
TORSDOF 5
ENDMDL
MODEL 6
REMARK VINA RESULT:    -7.726      2.356      4.354
REMARK INTER + INTRA:         -10.904
REMARK INTER:                 -10.044
REMARK INTRA:                  -0.860
REMARK UNBOUND:                -0.920
REMARK SMILES O=S(=O)(CCNc1ncnc2nc[nH]c12)c1ccccc1
REMARK SMILES IDX 5 1 4 2 2 3 1 4 3 5 16 6 17 7 21 8 18 9 20 10 19 11 6 12
REMARK SMILES IDX 7 14 8 15 15 16 9 17 14 18 11 19 10 20 13 21 12 22
REMARK H PARENT 6 13 14 23
ROOT
ATOM      1  C   UNL     1       4.844  44.272  52.124  1.00  0.00     0.131 C 
ENDROOT
BRANCH   1   2
ATOM      2  C   UNL     1       4.831  45.775  52.331  1.00  0.00     0.163 C 
BRANCH   2   3
ATOM      3  S   UNL     1       5.651  46.282  53.820  1.00  0.00     0.180 S 
ATOM      4  O   UNL     1       5.591  45.191  54.774  1.00  0.00    -0.224 OA
ATOM      5  O   UNL     1       5.118  47.585  54.179  1.00  0.00    -0.224 OA
BRANCH   3   6
ATOM      6  C   UNL     1       7.355  46.539  53.378  1.00  0.00     0.067 A 
ATOM      7  C   UNL     1       8.260  46.962  54.356  1.00  0.00     0.020 A 
ATOM      8  C   UNL     1       7.785  46.274  52.075  1.00  0.00     0.020 A 
ATOM      9  C   UNL     1       9.600  47.150  54.016  1.00  0.00     0.001 A 
ATOM     10  C   UNL     1       9.126  46.468  51.742  1.00  0.00     0.001 A 
ATOM     11  C   UNL     1      10.032  46.905  52.711  1.00  0.00     0.000 A 
ENDBRANCH   3   6
ENDBRANCH   2   3
ENDBRANCH   1   2
BRANCH   1  12
ATOM     12  N   UNL     1       3.967  43.625  53.099  1.00  0.00    -0.367 N 
ATOM     13  H   UNL     1       3.966  42.610  53.035  1.00  0.00     0.162 HD
BRANCH  12  14
ATOM     14  C   UNL     1       2.644  44.072  53.092  1.00  0.00     0.155 A 
ATOM     15  N   UNL     1       1.888  44.079  51.977  1.00  0.00    -0.217 NA
ATOM     16  C   UNL     1       2.045  44.543  54.243  1.00  0.00     0.128 A 
ATOM     17  C   UNL     1       0.612  44.513  52.062  1.00  0.00     0.226 A 
ATOM     18  N   UNL     1       2.478  44.764  55.522  1.00  0.00    -0.340 N 
ATOM     19  C   UNL     1       0.732  44.970  54.239  1.00  0.00     0.182 A 
ATOM     20  N   UNL     1      -0.043  44.960  53.141  1.00  0.00    -0.215 NA
ATOM     21  C   UNL     1       1.425  45.274  56.230  1.00  0.00     0.199 A 
ATOM     22  N   UNL     1       0.351  45.402  55.482  1.00  0.00    -0.217 NA
ATOM     23  H   UNL     1       3.421  44.626  55.857  1.00  0.00     0.168 HD
ENDBRANCH  12  14
ENDBRANCH   1  12
TORSDOF 5
ENDMDL
MODEL 7
REMARK VINA RESULT:    -7.714      2.001      2.998
REMARK INTER + INTRA:         -10.889
REMARK INTER:                  -9.819
REMARK INTRA:                  -1.070
REMARK UNBOUND:                -0.920
REMARK SMILES O=S(=O)(CCNc1ncnc2nc[nH]c12)c1ccccc1
REMARK SMILES IDX 5 1 4 2 2 3 1 4 3 5 16 6 17 7 21 8 18 9 20 10 19 11 6 12
REMARK SMILES IDX 7 14 8 15 15 16 9 17 14 18 11 19 10 20 13 21 12 22
REMARK H PARENT 6 13 14 23
ROOT
ATOM      1  C   UNL     1       3.182  47.132  52.475  1.00  0.00     0.131 C 
ENDROOT
BRANCH   1   2
ATOM      2  C   UNL     1       4.656  46.860  52.240  1.00  0.00     0.163 C 
BRANCH   2   3
ATOM      3  S   UNL     1       5.546  46.500  53.732  1.00  0.00     0.180 S 
ATOM      4  O   UNL     1       5.313  45.113  54.086  1.00  0.00    -0.224 OA
ATOM      5  O   UNL     1       5.228  47.552  54.684  1.00  0.00    -0.224 OA
BRANCH   3   6
ATOM      6  C   UNL     1       7.269  46.688  53.332  1.00  0.00     0.067 A 
ATOM      7  C   UNL     1       8.169  47.060  54.334  1.00  0.00     0.020 A 
ATOM      8  C   UNL     1       7.717  46.420  52.035  1.00  0.00     0.020 A 
ATOM      9  C   UNL     1       9.524  47.192  54.027  1.00  0.00     0.001 A 
ATOM     10  C   UNL     1       9.072  46.559  51.735  1.00  0.00     0.001 A 
ATOM     11  C   UNL     1       9.974  46.945  52.729  1.00  0.00     0.000 A 
ENDBRANCH   3   6
ENDBRANCH   2   3
ENDBRANCH   1   2
BRANCH   1  12
ATOM     12  N   UNL     1       2.575  46.016  53.198  1.00  0.00    -0.367 N 
ATOM     13  H   UNL     1       3.220  45.532  53.818  1.00  0.00     0.162 HD
BRANCH  12  14
ATOM     14  C   UNL     1       1.937  45.068  52.395  1.00  0.00     0.155 A 
ATOM     15  N   UNL     1       0.638  45.168  52.051  1.00  0.00    -0.217 NA
ATOM     16  C   UNL     1       2.615  43.964  51.917  1.00  0.00     0.128 A 
ATOM     17  C   UNL     1       0.103  44.215  51.257  1.00  0.00     0.226 A 
ATOM     18  N   UNL     1       3.879  43.473  52.093  1.00  0.00    -0.340 N 
ATOM     19  C   UNL     1       1.988  43.037  51.110  1.00  0.00     0.182 A 
ATOM     20  N   UNL     1       0.700  43.136  50.738  1.00  0.00    -0.215 NA
ATOM     21  C   UNL     1       3.972  42.312  51.377  1.00  0.00     0.199 A 
ATOM     22  N   UNL     1       2.845  42.026  50.764  1.00  0.00    -0.217 NA
ATOM     23  H   UNL     1       4.589  43.872  52.692  1.00  0.00     0.168 HD
ENDBRANCH  12  14
ENDBRANCH   1  12
TORSDOF 5
ENDMDL
MODEL 8
REMARK VINA RESULT:    -7.679      2.862      4.707
REMARK INTER + INTRA:         -10.843
REMARK INTER:                  -9.916
REMARK INTRA:                  -0.927
REMARK UNBOUND:                -0.920
REMARK SMILES O=S(=O)(CCNc1ncnc2nc[nH]c12)c1ccccc1
REMARK SMILES IDX 5 1 4 2 2 3 1 4 3 5 16 6 17 7 21 8 18 9 20 10 19 11 6 12
REMARK SMILES IDX 7 14 8 15 15 16 9 17 14 18 11 19 10 20 13 21 12 22
REMARK H PARENT 6 13 14 23
ROOT
ATOM      1  C   UNL     1       3.957  45.740  55.300  1.00  0.00     0.131 C 
ENDROOT
BRANCH   1   2
ATOM      2  C   UNL     1       5.327  45.564  54.673  1.00  0.00     0.163 C 
BRANCH   2   3
ATOM      3  S   UNL     1       5.663  46.742  53.389  1.00  0.00     0.180 S 
ATOM      4  O   UNL     1       5.245  48.054  53.846  1.00  0.00    -0.224 OA
ATOM      5  O   UNL     1       5.117  46.198  52.157  1.00  0.00    -0.224 OA
BRANCH   3   6
ATOM      6  C   UNL     1       7.431  46.759  53.192  1.00  0.00     0.067 A 
ATOM      7  C   UNL     1       7.987  46.409  51.959  1.00  0.00     0.020 A 
ATOM      8  C   UNL     1       8.247  47.166  54.252  1.00  0.00     0.020 A 
ATOM      9  C   UNL     1       9.372  46.437  51.796  1.00  0.00     0.001 A 
ATOM     10  C   UNL     1       9.632  47.188  54.083  1.00  0.00     0.001 A 
ATOM     11  C   UNL     1      10.193  46.824  52.857  1.00  0.00     0.000 A 
ENDBRANCH   3   6
ENDBRANCH   2   3
ENDBRANCH   1   2
BRANCH   1  12
ATOM     12  N   UNL     1       2.959  45.992  54.262  1.00  0.00    -0.367 N 
ATOM     13  H   UNL     1       2.362  46.793  54.456  1.00  0.00     0.162 HD
BRANCH  12  14
ATOM     14  C   UNL     1       2.149  44.901  53.942  1.00  0.00     0.155 A 
ATOM     15  N   UNL     1       2.550  43.922  53.108  1.00  0.00    -0.217 NA
ATOM     16  C   UNL     1       0.877  44.779  54.465  1.00  0.00     0.128 A 
ATOM     17  C   UNL     1       1.709  42.893  52.865  1.00  0.00     0.226 A 
ATOM     18  N   UNL     1       0.094  45.569  55.262  1.00  0.00    -0.340 N 
ATOM     19  C   UNL     1       0.082  43.692  54.160  1.00  0.00     0.182 A 
ATOM     20  N   UNL     1       0.478  42.694  53.351  1.00  0.00    -0.215 NA
ATOM     21  C   UNL     1      -1.102  44.927  55.428  1.00  0.00     0.199 A 
ATOM     22  N   UNL     1      -1.136  43.783  54.780  1.00  0.00    -0.217 NA
ATOM     23  H   UNL     1       0.342  46.484  55.611  1.00  0.00     0.168 HD
ENDBRANCH  12  14
ENDBRANCH   1  12
TORSDOF 5
ENDMDL
MODEL 9
REMARK VINA RESULT:    -7.509      2.898      4.879
REMARK INTER + INTRA:         -10.623
REMARK INTER:                 -10.063
REMARK INTRA:                  -0.560
REMARK UNBOUND:                -0.920
REMARK SMILES O=S(=O)(CCNc1ncnc2nc[nH]c12)c1ccccc1
REMARK SMILES IDX 5 1 4 2 2 3 1 4 3 5 16 6 17 7 21 8 18 9 20 10 19 11 6 12
REMARK SMILES IDX 7 14 8 15 15 16 9 17 14 18 11 19 10 20 13 21 12 22
REMARK H PARENT 6 13 14 23
ROOT
ATOM      1  C   UNL     1       3.560  45.333  52.878  1.00  0.00     0.131 C 
ENDROOT
BRANCH   1   2
ATOM      2  C   UNL     1       5.063  45.413  52.682  1.00  0.00     0.163 C 
BRANCH   2   3
ATOM      3  S   UNL     1       5.856  46.527  53.813  1.00  0.00     0.180 S 
ATOM      4  O   UNL     1       5.789  45.957  55.145  1.00  0.00    -0.224 OA
ATOM      5  O   UNL     1       5.307  47.850  53.565  1.00  0.00    -0.224 OA
BRANCH   3   6
ATOM      6  C   UNL     1       7.564  46.590  53.320  1.00  0.00     0.067 A 
ATOM      7  C   UNL     1       7.909  46.281  52.002  1.00  0.00     0.020 A 
ATOM      8  C   UNL     1       8.540  46.991  54.237  1.00  0.00     0.020 A 
ATOM      9  C   UNL     1       9.246  46.345  51.608  1.00  0.00     0.001 A 
ATOM     10  C   UNL     1       9.875  47.049  53.837  1.00  0.00     0.001 A 
ATOM     11  C   UNL     1      10.227  46.726  52.525  1.00  0.00     0.000 A 
ENDBRANCH   3   6
ENDBRANCH   2   3
ENDBRANCH   1   2
BRANCH   1  12
ATOM     12  N   UNL     1       3.246  44.433  53.986  1.00  0.00    -0.367 N 
ATOM     13  H   UNL     1       3.521  43.468  53.817  1.00  0.00     0.162 HD
BRANCH  12  14
ATOM     14  C   UNL     1       1.914  44.450  54.403  1.00  0.00     0.155 A 
ATOM     15  N   UNL     1       1.461  45.299  55.346  1.00  0.00    -0.217 NA
ATOM     16  C   UNL     1       0.988  43.577  53.867  1.00  0.00     0.128 A 
ATOM     17  C   UNL     1       0.153  45.260  55.679  1.00  0.00     0.226 A 
ATOM     18  N   UNL     1       1.057  42.544  52.973  1.00  0.00    -0.340 N 
ATOM     19  C   UNL     1      -0.333  43.605  54.269  1.00  0.00     0.182 A 
ATOM     20  N   UNL     1      -0.805  44.463  55.189  1.00  0.00    -0.215 NA
ATOM     21  C   UNL     1      -0.201  42.023  52.850  1.00  0.00     0.199 A 
ATOM     22  N   UNL     1      -1.066  42.650  53.616  1.00  0.00    -0.217 NA
ATOM     23  H   UNL     1       1.899  42.200  52.534  1.00  0.00     0.168 HD
ENDBRANCH  12  14
ENDBRANCH   1  12
TORSDOF 5
ENDMDL
MODEL 10
REMARK VINA RESULT:    -7.490      1.400      2.533
REMARK INTER + INTRA:         -10.599
REMARK INTER:                  -9.810
REMARK INTRA:                  -0.789
REMARK UNBOUND:                -0.920
REMARK SMILES O=S(=O)(CCNc1ncnc2nc[nH]c12)c1ccccc1
REMARK SMILES IDX 5 1 4 2 2 3 1 4 3 5 16 6 17 7 21 8 18 9 20 10 19 11 6 12
REMARK SMILES IDX 7 14 8 15 15 16 9 17 14 18 11 19 10 20 13 21 12 22
REMARK H PARENT 6 13 14 23
ROOT
ATOM      1  C   UNL     1       4.602  45.087  52.373  1.00  0.00     0.131 C 
ENDROOT
BRANCH   1   2
ATOM      2  C   UNL     1       4.358  46.353  53.173  1.00  0.00     0.163 C 
BRANCH   2   3
ATOM      3  S   UNL     1       5.611  46.661  54.391  1.00  0.00     0.180 S 
ATOM      4  O   UNL     1       5.747  45.479  55.222  1.00  0.00    -0.224 OA
ATOM      5  O   UNL     1       5.306  47.943  55.003  1.00  0.00    -0.224 OA
BRANCH   3   6
ATOM      6  C   UNL     1       7.128  46.881  53.488  1.00  0.00     0.067 A 
ATOM      7  C   UNL     1       7.205  47.878  52.511  1.00  0.00     0.020 A 
ATOM      8  C   UNL     1       8.241  46.093  53.791  1.00  0.00     0.020 A 
ATOM      9  C   UNL     1       8.398  48.065  51.812  1.00  0.00     0.001 A 
ATOM     10  C   UNL     1       9.430  46.283  53.086  1.00  0.00     0.001 A 
ATOM     11  C   UNL     1       9.507  47.267  52.097  1.00  0.00     0.000 A 
ENDBRANCH   3   6
ENDBRANCH   2   3
ENDBRANCH   1   2
BRANCH   1  12
ATOM     12  N   UNL     1       4.956  45.424  50.996  1.00  0.00    -0.367 N 
ATOM     13  H   UNL     1       4.169  45.387  50.352  1.00  0.00     0.162 HD
BRANCH  12  14
ATOM     14  C   UNL     1       6.006  44.680  50.456  1.00  0.00     0.155 A 
ATOM     15  N   UNL     1       7.193  45.231  50.133  1.00  0.00    -0.217 NA
ATOM     16  C   UNL     1       5.873  43.327  50.214  1.00  0.00     0.128 A 
ATOM     17  C   UNL     1       8.162  44.436  49.630  1.00  0.00     0.226 A 
ATOM     18  N   UNL     1       4.841  42.436  50.328  1.00  0.00    -0.340 N 
ATOM     19  C   UNL     1       6.918  42.589  49.695  1.00  0.00     0.182 A 
ATOM     20  N   UNL     1       8.115  43.120  49.392  1.00  0.00    -0.215 NA
ATOM     21  C   UNL     1       5.302  41.218  49.912  1.00  0.00     0.199 A 
ATOM     22  N   UNL     1       6.560  41.277  49.531  1.00  0.00    -0.217 NA
ATOM     23  H   UNL     1       3.898  42.659  50.613  1.00  0.00     0.168 HD
ENDBRANCH  12  14
ENDBRANCH   1  12
TORSDOF 5
ENDMDL
