MODEL 1
REMARK VINA RESULT:    -9.081      0.000      0.000
REMARK INTER + INTRA:         -12.490
REMARK INTER:                 -11.205
REMARK INTRA:                  -1.285
REMARK UNBOUND:                -1.285
REMARK SMILES O=C(NCc1cccnc1)C1CCN(c2ncnc3nc[nH]c23)CC1
REMARK SMILES IDX 11 1 12 2 13 3 14 4 24 5 25 6 2 7 3 8 1 9 4 11 5 12 6 13
REMARK SMILES IDX 10 14 7 15 9 16 8 17 15 18 16 19 23 20 17 21 22 22 19 23
REMARK SMILES IDX 18 24 21 25 20 26
REMARK H PARENT 3 10 22 27
ROOT
ATOM      1  C   UNL     1       2.795  46.161  53.454  1.00  0.00     0.082 C 
ATOM      2  C   UNL     1       2.371  44.684  53.492  1.00  0.00     0.035 C 
ATOM      3  C   UNL     1       3.451  43.759  52.903  1.00  0.00     0.119 C 
ATOM      4  N   UNL     1       4.215  44.445  51.842  1.00  0.00    -0.355 N 
ATOM      5  C   UNL     1       3.421  45.403  51.080  1.00  0.00     0.119 C 
ATOM      6  C   UNL     1       3.107  46.587  52.000  1.00  0.00     0.035 C 
ENDROOT
BRANCH   1   7
ATOM      7  C   UNL     1       3.953  46.387  54.433  1.00  0.00     0.223 C 
ATOM      8  N   UNL     1       5.031  47.081  53.928  1.00  0.00    -0.352 N 
ATOM      9  O   UNL     1       3.905  46.038  55.611  1.00  0.00    -0.275 OA
ATOM     10  H   UNL     1       5.070  47.290  52.941  1.00  0.00     0.163 HD
BRANCH   8  11
ATOM     11  C   UNL     1       6.270  47.153  54.673  1.00  0.00     0.153 C 
BRANCH  11  12
ATOM     12  C   UNL     1       7.452  47.092  53.747  1.00  0.00    -0.010 A 
ATOM     13  C   UNL     1       8.733  46.771  54.199  1.00  0.00     0.009 A 
ATOM     14  C   UNL     1       7.314  47.441  52.405  1.00  0.00     0.116 A 
ATOM     15  C   UNL     1       9.805  46.801  53.311  1.00  0.00     0.020 A 
ATOM     16  N   UNL     1       8.341  47.503  51.524  1.00  0.00    -0.264 NA
ATOM     17  C   UNL     1       9.562  47.168  51.997  1.00  0.00     0.111 A 
ENDBRANCH  11  12
ENDBRANCH   8  11
ENDBRANCH   1   7
BRANCH   4  18
ATOM     18  C   UNL     1       4.840  43.498  51.018  1.00  0.00     0.158 A 
ATOM     19  N   UNL     1       4.271  42.301  50.745  1.00  0.00    -0.217 NA
ATOM     20  C   UNL     1       6.068  43.738  50.429  1.00  0.00     0.128 A 
ATOM     21  C   UNL     1       4.939  41.430  49.959  1.00  0.00     0.226 A 
ATOM     22  N   UNL     1       6.921  44.806  50.403  1.00  0.00    -0.340 N 
ATOM     23  C   UNL     1       6.677  42.786  49.634  1.00  0.00     0.182 A 
ATOM     24  N   UNL     1       6.133  41.585  49.374  1.00  0.00    -0.215 NA
ATOM     25  C   UNL     1       7.995  44.456  49.630  1.00  0.00     0.199 A 
ATOM     26  N   UNL     1       7.878  43.237  49.152  1.00  0.00    -0.217 NA
ATOM     27  H   UNL     1       6.763  45.713  50.826  1.00  0.00     0.168 HD
ENDBRANCH   4  18
TORSDOF 4
ENDMDL
MODEL 2
REMARK VINA RESULT:    -8.282      2.186      5.997
REMARK INTER + INTRA:         -11.504
REMARK INTER:                 -10.436
REMARK INTRA:                  -1.068
REMARK UNBOUND:                -1.285
REMARK SMILES O=C(NCc1cccnc1)C1CCN(c2ncnc3nc[nH]c23)CC1
REMARK SMILES IDX 11 1 12 2 13 3 14 4 24 5 25 6 2 7 3 8 1 9 4 11 5 12 6 13
REMARK SMILES IDX 10 14 7 15 9 16 8 17 15 18 16 19 23 20 17 21 22 22 19 23
REMARK SMILES IDX 18 24 21 25 20 26
REMARK H PARENT 3 10 22 27
ROOT
ATOM      1  C   UNL     1       9.484  47.045  51.904  1.00  0.00     0.082 C 
ATOM      2  C   UNL     1       9.523  46.743  53.410  1.00  0.00     0.035 C 
ATOM      3  C   UNL     1       8.259  46.001  53.882  1.00  0.00     0.119 C 
ATOM      4  N   UNL     1       7.085  46.390  53.076  1.00  0.00    -0.355 N 
ATOM      5  C   UNL     1       7.126  47.775  52.619  1.00  0.00     0.119 C 
ATOM      6  C   UNL     1       8.231  47.885  51.562  1.00  0.00     0.035 C 
ENDROOT
BRANCH   1   7
ATOM      7  C   UNL     1       9.591  45.735  51.115  1.00  0.00     0.223 C 
ATOM      8  N   UNL     1       8.595  45.518  50.186  1.00  0.00    -0.352 N 
ATOM      9  O   UNL     1      10.533  44.956  51.244  1.00  0.00    -0.275 OA
ATOM     10  H   UNL     1       7.801  46.138  50.155  1.00  0.00     0.163 HD
BRANCH   8  11
ATOM     11  C   UNL     1       8.455  44.224  49.552  1.00  0.00     0.153 C 
BRANCH  11  12
ATOM     12  C   UNL     1       7.168  43.567  49.964  1.00  0.00    -0.010 A 
ATOM     13  C   UNL     1       6.935  42.204  49.766  1.00  0.00     0.009 A 
ATOM     14  C   UNL     1       6.125  44.326  50.488  1.00  0.00     0.116 A 
ATOM     15  C   UNL     1       5.697  41.662  50.099  1.00  0.00     0.020 A 
ATOM     16  N   UNL     1       4.903  43.833  50.799  1.00  0.00    -0.264 NA
ATOM     17  C   UNL     1       4.723  42.507  50.608  1.00  0.00     0.111 A 
ENDBRANCH  11  12
ENDBRANCH   8  11
ENDBRANCH   1   7
BRANCH   4  18
ATOM     18  C   UNL     1       5.907  46.098  53.780  1.00  0.00     0.158 A 
ATOM     19  N   UNL     1       5.931  45.580  55.029  1.00  0.00    -0.217 NA
ATOM     20  C   UNL     1       4.656  46.334  53.240  1.00  0.00     0.128 A 
ATOM     21  C   UNL     1       4.758  45.305  55.639  1.00  0.00     0.226 A 
ATOM     22  N   UNL     1       4.209  46.883  52.070  1.00  0.00    -0.340 N 
ATOM     23  C   UNL     1       3.507  46.024  53.941  1.00  0.00     0.182 A 
ATOM     24  N   UNL     1       3.517  45.486  55.173  1.00  0.00    -0.215 NA
ATOM     25  C   UNL     1       2.841  46.862  52.103  1.00  0.00     0.199 A 
ATOM     26  N   UNL     1       2.385  46.344  53.222  1.00  0.00    -0.217 NA
ATOM     27  H   UNL     1       4.781  47.288  51.339  1.00  0.00     0.168 HD
ENDBRANCH   4  18
TORSDOF 4
ENDMDL
MODEL 3
REMARK VINA RESULT:    -8.180      1.714      5.249
REMARK INTER + INTRA:         -11.377
REMARK INTER:                 -10.723
REMARK INTRA:                  -0.654
REMARK UNBOUND:                -1.285
REMARK SMILES O=C(NCc1cccnc1)C1CCN(c2ncnc3nc[nH]c23)CC1
REMARK SMILES IDX 11 1 12 2 13 3 14 4 24 5 25 6 2 7 3 8 1 9 4 11 5 12 6 13
REMARK SMILES IDX 10 14 7 15 9 16 8 17 15 18 16 19 23 20 17 21 22 22 19 23
REMARK SMILES IDX 18 24 21 25 20 26
REMARK H PARENT 3 10 22 27
ROOT
ATOM      1  C   UNL     1       3.431  45.835  54.880  1.00  0.00     0.082 C 
ATOM      2  C   UNL     1       3.940  47.224  54.467  1.00  0.00     0.035 C 
ATOM      3  C   UNL     1       4.981  47.144  53.335  1.00  0.00     0.119 C 
ATOM      4  N   UNL     1       5.760  45.892  53.420  1.00  0.00    -0.355 N 
ATOM      5  C   UNL     1       5.966  45.428  54.788  1.00  0.00     0.119 C 
ATOM      6  C   UNL     1       4.614  44.945  55.326  1.00  0.00     0.035 C 
ENDROOT
BRANCH   1   7
ATOM      7  C   UNL     1       2.594  45.236  53.742  1.00  0.00     0.223 C 
ATOM      8  N   UNL     1       2.838  43.909  53.461  1.00  0.00    -0.352 N 
ATOM      9  O   UNL     1       1.715  45.868  53.160  1.00  0.00    -0.275 OA
ATOM     10  H   UNL     1       3.613  43.440  53.906  1.00  0.00     0.163 HD
BRANCH   8  11
ATOM     11  C   UNL     1       2.288  43.300  52.268  1.00  0.00     0.153 C 
BRANCH  11  12
ATOM     12  C   UNL     1       3.373  42.653  51.454  1.00  0.00    -0.010 A 
ATOM     13  C   UNL     1       4.637  43.229  51.315  1.00  0.00     0.009 A 
ATOM     14  C   UNL     1       3.116  41.487  50.737  1.00  0.00     0.116 A 
ATOM     15  C   UNL     1       5.581  42.625  50.488  1.00  0.00     0.020 A 
ATOM     16  N   UNL     1       4.005  40.891  49.907  1.00  0.00    -0.264 NA
ATOM     17  C   UNL     1       5.223  41.469  49.813  1.00  0.00     0.111 A 
ENDBRANCH  11  12
ENDBRANCH   8  11
ENDBRANCH   1   7
BRANCH   4  18
ATOM     18  C   UNL     1       6.967  46.036  52.721  1.00  0.00     0.158 A 
ATOM     19  N   UNL     1       7.089  45.669  51.424  1.00  0.00    -0.217 NA
ATOM     20  C   UNL     1       8.096  46.569  53.315  1.00  0.00     0.128 A 
ATOM     21  C   UNL     1       8.288  45.817  50.820  1.00  0.00     0.226 A 
ATOM     22  N   UNL     1       8.368  47.097  54.546  1.00  0.00    -0.340 N 
ATOM     23  C   UNL     1       9.282  46.686  52.615  1.00  0.00     0.182 A 
ATOM     24  N   UNL     1       9.424  46.304  51.334  1.00  0.00    -0.215 NA
ATOM     25  C   UNL     1       9.682  47.482  54.547  1.00  0.00     0.199 A 
ATOM     26  N   UNL     1      10.264  47.243  53.392  1.00  0.00    -0.217 NA
ATOM     27  H   UNL     1       7.707  47.236  55.300  1.00  0.00     0.168 HD
ENDBRANCH   4  18
TORSDOF 4
ENDMDL
MODEL 4
REMARK VINA RESULT:    -8.034      3.077      5.623
REMARK INTER + INTRA:         -11.197
REMARK INTER:                 -10.549
REMARK INTRA:                  -0.648
REMARK UNBOUND:                -1.285
REMARK SMILES O=C(NCc1cccnc1)C1CCN(c2ncnc3nc[nH]c23)CC1
REMARK SMILES IDX 11 1 12 2 13 3 14 4 24 5 25 6 2 7 3 8 1 9 4 11 5 12 6 13
REMARK SMILES IDX 10 14 7 15 9 16 8 17 15 18 16 19 23 20 17 21 22 22 19 23
REMARK SMILES IDX 18 24 21 25 20 26
REMARK H PARENT 3 10 22 27
ROOT
ATOM      1  C   UNL     1       4.067  44.765  51.807  1.00  0.00     0.082 C 
ATOM      2  C   UNL     1       2.813  45.579  51.450  1.00  0.00     0.035 C 
ATOM      3  C   UNL     1       1.865  45.734  52.654  1.00  0.00     0.119 C 
ATOM      4  N   UNL     1       1.949  44.562  53.548  1.00  0.00    -0.355 N 
ATOM      5  C   UNL     1       2.221  43.312  52.846  1.00  0.00     0.119 C 
ATOM      6  C   UNL     1       3.663  43.368  52.332  1.00  0.00     0.035 C 
ENDROOT
BRANCH   1   7
ATOM      7  C   UNL     1       4.941  45.569  52.778  1.00  0.00     0.223 C 
ATOM      8  N   UNL     1       5.415  46.770  52.295  1.00  0.00    -0.352 N 
ATOM      9  O   UNL     1       5.153  45.209  53.934  1.00  0.00    -0.275 OA
ATOM     10  H   UNL     1       5.283  47.001  51.321  1.00  0.00     0.163 HD
BRANCH   8  11
ATOM     11  C   UNL     1       6.431  47.501  53.021  1.00  0.00     0.153 C 
BRANCH  11  12
ATOM     12  C   UNL     1       7.800  46.976  52.693  1.00  0.00    -0.010 A 
ATOM     13  C   UNL     1       8.911  47.251  53.493  1.00  0.00     0.009 A 
ATOM     14  C   UNL     1       8.017  46.259  51.519  1.00  0.00     0.116 A 
ATOM     15  C   UNL     1      10.169  46.801  53.102  1.00  0.00     0.020 A 
ATOM     16  N   UNL     1       9.232  45.830  51.100  1.00  0.00    -0.264 NA
ATOM     17  C   UNL     1      10.278  46.102  51.911  1.00  0.00     0.111 A 
ENDBRANCH  11  12
ENDBRANCH   8  11
ENDBRANCH   1   7
BRANCH   4  18
ATOM     18  C   UNL     1       0.796  44.486  54.342  1.00  0.00     0.158 A 
ATOM     19  N   UNL     1      -0.318  43.841  53.924  1.00  0.00    -0.217 NA
ATOM     20  C   UNL     1       0.735  45.057  55.600  1.00  0.00     0.128 A 
ATOM     21  C   UNL     1      -1.399  43.826  54.733  1.00  0.00     0.226 A 
ATOM     22  N   UNL     1       1.631  45.725  56.389  1.00  0.00    -0.340 N 
ATOM     23  C   UNL     1      -0.416  44.987  56.360  1.00  0.00     0.182 A 
ATOM     24  N   UNL     1      -1.536  44.370  55.948  1.00  0.00    -0.215 NA
ATOM     25  C   UNL     1       0.992  46.043  57.557  1.00  0.00     0.199 A 
ATOM     26  N   UNL     1      -0.251  45.613  57.569  1.00  0.00    -0.217 NA
ATOM     27  H   UNL     1       2.605  45.900  56.177  1.00  0.00     0.168 HD
ENDBRANCH   4  18
TORSDOF 4
ENDMDL
MODEL 5
REMARK VINA RESULT:    -7.842      1.984      5.292
REMARK INTER + INTRA:         -10.961
REMARK INTER:                  -9.990
REMARK INTRA:                  -0.971
REMARK UNBOUND:                -1.285
REMARK SMILES O=C(NCc1cccnc1)C1CCN(c2ncnc3nc[nH]c23)CC1
REMARK SMILES IDX 11 1 12 2 13 3 14 4 24 5 25 6 2 7 3 8 1 9 4 11 5 12 6 13
REMARK SMILES IDX 10 14 7 15 9 16 8 17 15 18 16 19 23 20 17 21 22 22 19 23
REMARK SMILES IDX 18 24 21 25 20 26
REMARK H PARENT 3 10 22 27
ROOT
ATOM      1  C   UNL     1       4.658  47.012  54.182  1.00  0.00     0.082 C 
ATOM      2  C   UNL     1       4.185  47.254  52.740  1.00  0.00     0.035 C 
ATOM      3  C   UNL     1       4.536  46.076  51.813  1.00  0.00     0.119 C 
ATOM      4  N   UNL     1       5.782  45.413  52.248  1.00  0.00    -0.355 N 
ATOM      5  C   UNL     1       6.747  46.326  52.851  1.00  0.00     0.119 C 
ATOM      6  C   UNL     1       6.185  46.770  54.207  1.00  0.00     0.035 C 
ENDROOT
BRANCH   1   7
ATOM      7  C   UNL     1       3.837  45.879  54.808  1.00  0.00     0.223 C 
ATOM      8  N   UNL     1       2.485  45.907  54.539  1.00  0.00    -0.352 N 
ATOM      9  O   UNL     1       4.348  44.963  55.450  1.00  0.00    -0.275 OA
ATOM     10  H   UNL     1       2.088  46.707  54.070  1.00  0.00     0.163 HD
BRANCH   8  11
ATOM     11  C   UNL     1       1.577  45.037  55.257  1.00  0.00     0.153 C 
BRANCH  11  12
ATOM     12  C   UNL     1       0.930  44.056  54.320  1.00  0.00    -0.010 A 
ATOM     13  C   UNL     1       1.593  43.554  53.199  1.00  0.00     0.009 A 
ATOM     14  C   UNL     1      -0.399  43.680  54.501  1.00  0.00     0.116 A 
ATOM     15  C   UNL     1       0.920  42.705  52.324  1.00  0.00     0.020 A 
ATOM     16  N   UNL     1      -1.087  42.876  53.655  1.00  0.00    -0.264 NA
ATOM     17  C   UNL     1      -0.404  42.397  52.592  1.00  0.00     0.111 A 
ENDBRANCH  11  12
ENDBRANCH   8  11
ENDBRANCH   1   7
BRANCH   4  18
ATOM     18  C   UNL     1       6.332  44.688  51.181  1.00  0.00     0.158 A 
ATOM     19  N   UNL     1       7.431  45.115  50.518  1.00  0.00    -0.217 NA
ATOM     20  C   UNL     1       5.786  43.492  50.752  1.00  0.00     0.128 A 
ATOM     21  C   UNL     1       7.894  44.376  49.487  1.00  0.00     0.226 A 
ATOM     22  N   UNL     1       4.746  42.711  51.175  1.00  0.00    -0.340 N 
ATOM     23  C   UNL     1       6.331  42.800  49.688  1.00  0.00     0.182 A 
ATOM     24  N   UNL     1       7.409  43.225  49.006  1.00  0.00    -0.215 NA
ATOM     25  C   UNL     1       4.693  41.617  50.354  1.00  0.00     0.199 A 
ATOM     26  N   UNL     1       5.638  41.644  49.440  1.00  0.00    -0.217 NA
ATOM     27  H   UNL     1       4.160  42.878  51.984  1.00  0.00     0.168 HD
ENDBRANCH   4  18
TORSDOF 4
ENDMDL
MODEL 6
REMARK VINA RESULT:    -7.826      1.595      5.485
REMARK INTER + INTRA:         -10.941
REMARK INTER:                 -10.523
REMARK INTRA:                  -0.418
REMARK UNBOUND:                -1.285
REMARK SMILES O=C(NCc1cccnc1)C1CCN(c2ncnc3nc[nH]c23)CC1
REMARK SMILES IDX 11 1 12 2 13 3 14 4 24 5 25 6 2 7 3 8 1 9 4 11 5 12 6 13
REMARK SMILES IDX 10 14 7 15 9 16 8 17 15 18 16 19 23 20 17 21 22 22 19 23
REMARK SMILES IDX 18 24 21 25 20 26
REMARK H PARENT 3 10 22 27
ROOT
ATOM      1  C   UNL     1       3.255  46.045  53.565  1.00  0.00     0.082 C 
ATOM      2  C   UNL     1       3.889  46.879  52.441  1.00  0.00     0.035 C 
ATOM      3  C   UNL     1       5.420  46.717  52.398  1.00  0.00     0.119 C 
ATOM      4  N   UNL     1       5.965  46.471  53.748  1.00  0.00    -0.355 N 
ATOM      5  C   UNL     1       5.219  47.141  54.808  1.00  0.00     0.119 C 
ATOM      6  C   UNL     1       3.858  46.448  54.931  1.00  0.00     0.035 C 
ENDROOT
BRANCH   1   7
ATOM      7  C   UNL     1       3.392  44.553  53.238  1.00  0.00     0.223 C 
ATOM      8  N   UNL     1       2.868  44.161  52.025  1.00  0.00    -0.352 N 
ATOM      9  O   UNL     1       3.989  43.765  53.968  1.00  0.00    -0.275 OA
ATOM     10  H   UNL     1       2.324  44.816  51.484  1.00  0.00     0.163 HD
BRANCH   8  11
ATOM     11  C   UNL     1       2.727  42.755  51.708  1.00  0.00     0.153 C 
BRANCH  11  12
ATOM     12  C   UNL     1       3.844  42.298  50.814  1.00  0.00    -0.010 A 
ATOM     13  C   UNL     1       5.059  42.982  50.736  1.00  0.00     0.009 A 
ATOM     14  C   UNL     1       3.666  41.210  49.963  1.00  0.00     0.116 A 
ATOM     15  C   UNL     1       6.032  42.557  49.836  1.00  0.00     0.020 A 
ATOM     16  N   UNL     1       4.584  40.789  49.061  1.00  0.00    -0.264 NA
ATOM     17  C   UNL     1       5.752  41.467  49.029  1.00  0.00     0.111 A 
ENDBRANCH  11  12
ENDBRANCH   8  11
ENDBRANCH   1   7
BRANCH   4  18
ATOM     18  C   UNL     1       7.330  46.791  53.775  1.00  0.00     0.158 A 
ATOM     19  N   UNL     1       7.887  47.457  54.812  1.00  0.00    -0.217 NA
ATOM     20  C   UNL     1       8.184  46.435  52.747  1.00  0.00     0.128 A 
ATOM     21  C   UNL     1       9.205  47.750  54.761  1.00  0.00     0.226 A 
ATOM     22  N   UNL     1       8.038  45.729  51.586  1.00  0.00    -0.340 N 
ATOM     23  C   UNL     1       9.523  46.774  52.783  1.00  0.00     0.182 A 
ATOM     24  N   UNL     1      10.085  47.456  53.796  1.00  0.00    -0.215 NA
ATOM     25  C   UNL     1       9.260  45.690  50.971  1.00  0.00     0.199 A 
ATOM     26  N   UNL     1      10.180  46.318  51.670  1.00  0.00    -0.217 NA
ATOM     27  H   UNL     1       7.196  45.265  51.266  1.00  0.00     0.168 HD
ENDBRANCH   4  18
TORSDOF 4
ENDMDL
MODEL 7
REMARK VINA RESULT:    -7.746      1.616      2.084
REMARK INTER + INTRA:         -10.842
REMARK INTER:                  -9.617
REMARK INTRA:                  -1.225
REMARK UNBOUND:                -1.285
REMARK SMILES O=C(NCc1cccnc1)C1CCN(c2ncnc3nc[nH]c23)CC1
REMARK SMILES IDX 11 1 12 2 13 3 14 4 24 5 25 6 2 7 3 8 1 9 4 11 5 12 6 13
REMARK SMILES IDX 10 14 7 15 9 16 8 17 15 18 16 19 23 20 17 21 22 22 19 23
REMARK SMILES IDX 18 24 21 25 20 26
REMARK H PARENT 3 10 22 27
ROOT
ATOM      1  C   UNL     1       0.720  44.721  53.655  1.00  0.00     0.082 C 
ATOM      2  C   UNL     1       0.752  43.188  53.547  1.00  0.00     0.035 C 
ATOM      3  C   UNL     1       2.106  42.674  53.025  1.00  0.00     0.119 C 
ATOM      4  N   UNL     1       2.723  43.651  52.105  1.00  0.00    -0.355 N 
ATOM      5  C   UNL     1       1.751  44.408  51.323  1.00  0.00     0.119 C 
ATOM      6  C   UNL     1       1.020  45.357  52.278  1.00  0.00     0.035 C 
ENDROOT
BRANCH   1   7
ATOM      7  C   UNL     1       1.667  45.175  54.773  1.00  0.00     0.223 C 
ATOM      8  N   UNL     1       2.678  46.028  54.384  1.00  0.00    -0.352 N 
ATOM      9  O   UNL     1       1.503  44.863  55.951  1.00  0.00    -0.275 OA
ATOM     10  H   UNL     1       2.827  46.207  53.402  1.00  0.00     0.163 HD
BRANCH   8  11
ATOM     11  C   UNL     1       3.764  46.337  55.290  1.00  0.00     0.153 C 
BRANCH  11  12
ATOM     12  C   UNL     1       5.042  46.558  54.531  1.00  0.00    -0.010 A 
ATOM     13  C   UNL     1       6.241  45.948  54.905  1.00  0.00     0.009 A 
ATOM     14  C   UNL     1       5.084  47.457  53.469  1.00  0.00     0.116 A 
ATOM     15  C   UNL     1       7.411  46.246  54.211  1.00  0.00     0.020 A 
ATOM     16  N   UNL     1       6.210  47.786  52.791  1.00  0.00    -0.264 NA
ATOM     17  C   UNL     1       7.346  47.160  53.172  1.00  0.00     0.111 A 
ENDBRANCH  11  12
ENDBRANCH   8  11
ENDBRANCH   1   7
BRANCH   4  18
ATOM     18  C   UNL     1       3.671  43.008  51.296  1.00  0.00     0.158 A 
ATOM     19  N   UNL     1       3.477  41.755  50.825  1.00  0.00    -0.217 NA
ATOM     20  C   UNL     1       4.853  43.624  50.926  1.00  0.00     0.128 A 
ATOM     21  C   UNL     1       4.443  41.191  50.068  1.00  0.00     0.226 A 
ATOM     22  N   UNL     1       5.389  44.864  51.134  1.00  0.00    -0.340 N 
ATOM     23  C   UNL     1       5.784  42.968  50.143  1.00  0.00     0.182 A 
ATOM     24  N   UNL     1       5.614  41.715  49.688  1.00  0.00    -0.215 NA
ATOM     25  C   UNL     1       6.603  44.899  50.502  1.00  0.00     0.199 A 
ATOM     26  N   UNL     1       6.872  43.764  49.895  1.00  0.00    -0.217 NA
ATOM     27  H   UNL     1       4.946  45.638  51.615  1.00  0.00     0.168 HD
ENDBRANCH   4  18
TORSDOF 4
ENDMDL
MODEL 8
REMARK VINA RESULT:    -7.673      2.695      5.655
REMARK INTER + INTRA:         -10.753
REMARK INTER:                 -10.175
REMARK INTRA:                  -0.578
REMARK UNBOUND:                -1.285
REMARK SMILES O=C(NCc1cccnc1)C1CCN(c2ncnc3nc[nH]c23)CC1
REMARK SMILES IDX 11 1 12 2 13 3 14 4 24 5 25 6 2 7 3 8 1 9 4 11 5 12 6 13
REMARK SMILES IDX 10 14 7 15 9 16 8 17 15 18 16 19 23 20 17 21 22 22 19 23
REMARK SMILES IDX 18 24 21 25 20 26
REMARK H PARENT 3 10 22 27
ROOT
ATOM      1  C   UNL     1       3.890  46.979  53.615  1.00  0.00     0.082 C 
ATOM      2  C   UNL     1       3.415  46.864  52.158  1.00  0.00     0.035 C 
ATOM      3  C   UNL     1       4.091  45.693  51.423  1.00  0.00     0.119 C 
ATOM      4  N   UNL     1       5.452  45.455  51.944  1.00  0.00    -0.355 N 
ATOM      5  C   UNL     1       6.126  46.671  52.388  1.00  0.00     0.119 C 
ATOM      6  C   UNL     1       5.425  47.154  53.663  1.00  0.00     0.035 C 
ENDROOT
BRANCH   1   7
ATOM      7  C   UNL     1       3.373  45.780  54.419  1.00  0.00     0.223 C 
ATOM      8  N   UNL     1       2.017  45.545  54.330  1.00  0.00    -0.352 N 
ATOM      9  O   UNL     1       4.118  45.030  55.048  1.00  0.00    -0.275 OA
ATOM     10  H   UNL     1       1.426  46.217  53.866  1.00  0.00     0.163 HD
BRANCH   8  11
ATOM     11  C   UNL     1       1.378  44.596  55.218  1.00  0.00     0.153 C 
BRANCH  11  12
ATOM     12  C   UNL     1       0.376  45.287  56.099  1.00  0.00    -0.010 A 
ATOM     13  C   UNL     1      -0.981  45.344  55.775  1.00  0.00     0.009 A 
ATOM     14  C   UNL     1       0.792  45.971  57.238  1.00  0.00     0.116 A 
ATOM     15  C   UNL     1      -1.854  46.060  56.589  1.00  0.00     0.020 A 
ATOM     16  N   UNL     1      -0.028  46.696  58.035  1.00  0.00    -0.264 NA
ATOM     17  C   UNL     1      -1.336  46.712  57.697  1.00  0.00     0.111 A 
ENDBRANCH  11  12
ENDBRANCH   8  11
ENDBRANCH   1   7
BRANCH   4  18
ATOM     18  C   UNL     1       6.206  44.746  50.998  1.00  0.00     0.158 A 
ATOM     19  N   UNL     1       7.340  45.253  50.462  1.00  0.00    -0.217 NA
ATOM     20  C   UNL     1       5.837  43.484  50.567  1.00  0.00     0.128 A 
ATOM     21  C   UNL     1       8.004  44.521  49.540  1.00  0.00     0.226 A 
ATOM     22  N   UNL     1       4.828  42.622  50.893  1.00  0.00    -0.340 N 
ATOM     23  C   UNL     1       6.583  42.807  49.621  1.00  0.00     0.182 A 
ATOM     24  N   UNL     1       7.698  43.309  49.063  1.00  0.00    -0.215 NA
ATOM     25  C   UNL     1       4.987  41.495  50.132  1.00  0.00     0.199 A 
ATOM     26  N   UNL     1       6.040  41.578  49.349  1.00  0.00    -0.217 NA
ATOM     27  H   UNL     1       4.125  42.762  51.609  1.00  0.00     0.168 HD
ENDBRANCH   4  18
TORSDOF 4
ENDMDL
MODEL 9
REMARK VINA RESULT:    -7.627      2.748      6.122
REMARK INTER + INTRA:         -10.695
REMARK INTER:                  -9.989
REMARK INTRA:                  -0.707
REMARK UNBOUND:                -1.285
REMARK SMILES O=C(NCc1cccnc1)C1CCN(c2ncnc3nc[nH]c23)CC1
REMARK SMILES IDX 11 1 12 2 13 3 14 4 24 5 25 6 2 7 3 8 1 9 4 11 5 12 6 13
REMARK SMILES IDX 10 14 7 15 9 16 8 17 15 18 16 19 23 20 17 21 22 22 19 23
REMARK SMILES IDX 18 24 21 25 20 26
REMARK H PARENT 3 10 22 27
ROOT
ATOM      1  C   UNL     1       3.296  45.058  51.977  1.00  0.00     0.082 C 
ATOM      2  C   UNL     1       4.273  43.907  52.265  1.00  0.00     0.035 C 
ATOM      3  C   UNL     1       5.681  44.421  52.615  1.00  0.00     0.119 C 
ATOM      4  N   UNL     1       5.971  45.689  51.916  1.00  0.00    -0.355 N 
ATOM      5  C   UNL     1       5.341  45.787  50.603  1.00  0.00     0.119 C 
ATOM      6  C   UNL     1       3.831  45.933  50.820  1.00  0.00     0.035 C 
ENDROOT
BRANCH   1   7
ATOM      7  C   UNL     1       3.022  45.834  53.271  1.00  0.00     0.223 C 
ATOM      8  N   UNL     1       2.931  45.069  54.414  1.00  0.00    -0.352 N 
ATOM      9  O   UNL     1       2.955  47.061  53.309  1.00  0.00    -0.275 OA
ATOM     10  H   UNL     1       2.919  44.063  54.339  1.00  0.00     0.163 HD
BRANCH   8  11
ATOM     11  C   UNL     1       2.447  45.651  55.649  1.00  0.00     0.153 C 
BRANCH  11  12
ATOM     12  C   UNL     1       1.049  45.186  55.942  1.00  0.00    -0.010 A 
ATOM     13  C   UNL     1       0.271  44.527  54.987  1.00  0.00     0.009 A 
ATOM     14  C   UNL     1       0.451  45.478  57.165  1.00  0.00     0.116 A 
ATOM     15  C   UNL     1      -1.044  44.185  55.288  1.00  0.00     0.020 A 
ATOM     16  N   UNL     1      -0.833  45.180  57.477  1.00  0.00    -0.264 NA
ATOM     17  C   UNL     1      -1.546  44.527  56.533  1.00  0.00     0.111 A 
ENDBRANCH  11  12
ENDBRANCH   8  11
ENDBRANCH   1   7
BRANCH   4  18
ATOM     18  C   UNL     1       7.357  45.893  51.856  1.00  0.00     0.158 A 
ATOM     19  N   UNL     1       8.095  45.484  50.799  1.00  0.00    -0.217 NA
ATOM     20  C   UNL     1       8.046  46.533  52.871  1.00  0.00     0.128 A 
ATOM     21  C   UNL     1       9.429  45.696  50.819  1.00  0.00     0.226 A 
ATOM     22  N   UNL     1       7.678  47.129  54.045  1.00  0.00    -0.340 N 
ATOM     23  C   UNL     1       9.414  46.709  52.804  1.00  0.00     0.182 A 
ATOM     24  N   UNL     1      10.162  46.287  51.770  1.00  0.00    -0.215 NA
ATOM     25  C   UNL     1       8.815  47.611  54.635  1.00  0.00     0.199 A 
ATOM     26  N   UNL     1       9.885  47.369  53.909  1.00  0.00    -0.217 NA
ATOM     27  H   UNL     1       6.733  47.249  54.389  1.00  0.00     0.168 HD
ENDBRANCH   4  18
TORSDOF 4
ENDMDL
MODEL 10
REMARK VINA RESULT:    -7.610      2.789      6.046
REMARK INTER + INTRA:         -10.675
REMARK INTER:                 -10.255
REMARK INTRA:                  -0.420
REMARK UNBOUND:                -1.285
REMARK SMILES O=C(NCc1cccnc1)C1CCN(c2ncnc3nc[nH]c23)CC1
REMARK SMILES IDX 11 1 12 2 13 3 14 4 24 5 25 6 2 7 3 8 1 9 4 11 5 12 6 13
REMARK SMILES IDX 10 14 7 15 9 16 8 17 15 18 16 19 23 20 17 21 22 22 19 23
REMARK SMILES IDX 18 24 21 25 20 26
REMARK H PARENT 3 10 22 27
ROOT
ATOM      1  C   UNL     1       4.516  47.128  53.135  1.00  0.00     0.082 C 
ATOM      2  C   UNL     1       4.021  46.824  54.557  1.00  0.00     0.035 C 
ATOM      3  C   UNL     1       3.258  45.488  54.629  1.00  0.00     0.119 C 
ATOM      4  N   UNL     1       2.561  45.208  53.358  1.00  0.00    -0.355 N 
ATOM      5  C   UNL     1       2.093  46.410  52.674  1.00  0.00     0.119 C 
ATOM      6  C   UNL     1       3.323  47.159  52.151  1.00  0.00     0.035 C 
ENDROOT
BRANCH   1   7
ATOM      7  C   UNL     1       5.616  46.131  52.751  1.00  0.00     0.223 C 
ATOM      8  N   UNL     1       5.795  45.936  51.398  1.00  0.00    -0.352 N 
ATOM      9  O   UNL     1       6.342  45.588  53.582  1.00  0.00    -0.275 OA
ATOM     10  H   UNL     1       5.139  46.339  50.746  1.00  0.00     0.163 HD
BRANCH   8  11
ATOM     11  C   UNL     1       6.632  44.856  50.918  1.00  0.00     0.153 C 
BRANCH  11  12
ATOM     12  C   UNL     1       5.803  43.644  50.599  1.00  0.00    -0.010 A 
ATOM     13  C   UNL     1       4.621  43.354  51.283  1.00  0.00     0.009 A 
ATOM     14  C   UNL     1       6.242  42.718  49.655  1.00  0.00     0.116 A 
ATOM     15  C   UNL     1       3.931  42.178  50.998  1.00  0.00     0.020 A 
ATOM     16  N   UNL     1       5.607  41.556  49.374  1.00  0.00    -0.264 NA
ATOM     17  C   UNL     1       4.457  41.320  50.045  1.00  0.00     0.111 A 
ENDBRANCH  11  12
ENDBRANCH   8  11
ENDBRANCH   1   7
BRANCH   4  18
ATOM     18  C   UNL     1       1.528  44.285  53.576  1.00  0.00     0.158 A 
ATOM     19  N   UNL     1       1.521  43.067  52.987  1.00  0.00    -0.217 NA
ATOM     20  C   UNL     1       0.463  44.565  54.413  1.00  0.00     0.128 A 
ATOM     21  C   UNL     1       0.483  42.237  53.227  1.00  0.00     0.226 A 
ATOM     22  N   UNL     1       0.132  45.621  55.216  1.00  0.00    -0.340 N 
ATOM     23  C   UNL     1      -0.555  43.650  54.602  1.00  0.00     0.182 A 
ATOM     24  N   UNL     1      -0.585  42.446  54.005  1.00  0.00    -0.215 NA
ATOM     25  C   UNL     1      -1.055  45.317  55.826  1.00  0.00     0.199 A 
ATOM     26  N   UNL     1      -1.499  44.131  55.472  1.00  0.00    -0.217 NA
ATOM     27  H   UNL     1       0.690  46.450  55.380  1.00  0.00     0.168 HD
ENDBRANCH   4  18
TORSDOF 4
ENDMDL
