MODEL 1
REMARK VINA RESULT:    -9.427      0.000      0.000
REMARK INTER + INTRA:         -11.532
REMARK INTER:                 -11.080
REMARK INTRA:                  -0.451
REMARK UNBOUND:                -0.451
REMARK SMILES c1ccc(-c2nc(C3CCCN(c4ncnc5[nH]ccc45)C3)n[nH]2)cc1
REMARK SMILES IDX 8 1 9 2 10 3 11 4 12 5 22 6 7 7 5 8 6 9 24 10 23 11 4 13
REMARK SMILES IDX 1 14 2 15 26 16 3 17 25 18 13 19 14 20 21 21 15 22 20 23
REMARK SMILES IDX 17 24 16 25 19 26 18 27
REMARK H PARENT 24 12 18 28
ROOT
ATOM      1  C   UNL     1       2.948  45.529  52.082  1.00  0.00     0.079 C 
ATOM      2  C   UNL     1       2.203  44.914  50.885  1.00  0.00     0.015 C 
ATOM      3  C   UNL     1       0.848  44.316  51.267  1.00  0.00     0.022 C 
ATOM      4  C   UNL     1       0.318  44.875  52.585  1.00  0.00     0.118 C 
ATOM      5  N   UNL     1       1.265  44.559  53.656  1.00  0.00    -0.355 N 
ATOM      6  C   UNL     1       2.703  44.719  53.367  1.00  0.00     0.129 C 
ENDROOT
BRANCH   1   7
ATOM      7  C   UNL     1       4.405  45.678  51.797  1.00  0.00     0.155 A 
ATOM      8  C   UNL     1       6.466  46.090  52.109  1.00  0.00     0.155 A 
ATOM      9  N   UNL     1       5.305  46.103  52.739  1.00  0.00    -0.212 NA
ATOM     10  N   UNL     1       6.240  45.659  50.828  1.00  0.00    -0.259 N 
ATOM     11  N   UNL     1       4.942  45.391  50.607  1.00  0.00    -0.158 NA
ATOM     12  H   UNL     1       6.903  45.523  50.077  1.00  0.00     0.192 HD
BRANCH   8  13
ATOM     13  C   UNL     1       7.770  46.459  52.662  1.00  0.00     0.019 A 
ATOM     14  C   UNL     1      10.235  47.201  53.806  1.00  0.00     0.000 A 
ATOM     15  C   UNL     1       9.051  47.409  54.507  1.00  0.00     0.001 A 
ATOM     16  C   UNL     1      10.197  46.627  52.538  1.00  0.00     0.001 A 
ATOM     17  C   UNL     1       7.830  47.041  53.939  1.00  0.00     0.012 A 
ATOM     18  C   UNL     1       8.973  46.258  51.968  1.00  0.00     0.012 A 
ENDBRANCH   8  13
ENDBRANCH   1   7
BRANCH   5  19
ATOM     19  C   UNL     1       0.844  44.886  54.947  1.00  0.00     0.141 A 
ATOM     20  N   UNL     1       1.662  45.625  55.749  1.00  0.00    -0.219 NA
ATOM     21  C   UNL     1      -0.421  44.536  55.478  1.00  0.00     0.061 A 
ATOM     22  C   UNL     1       1.261  45.943  56.995  1.00  0.00     0.226 A 
ATOM     23  C   UNL     1      -1.593  43.862  55.019  1.00  0.00     0.033 A 
ATOM     24  C   UNL     1      -0.694  44.938  56.778  1.00  0.00     0.142 A 
ATOM     25  N   UNL     1       0.104  45.635  57.599  1.00  0.00    -0.218 NA
ATOM     26  C   UNL     1      -2.513  43.853  56.046  1.00  0.00     0.085 A 
ATOM     27  N   UNL     1      -1.949  44.507  57.110  1.00  0.00    -0.346 N 
ATOM     28  H   UNL     1      -2.379  44.676  58.008  1.00  0.00     0.167 HD
ENDBRANCH   5  19
TORSDOF 3
ENDMDL
MODEL 2
REMARK VINA RESULT:    -9.373      4.748      8.856
REMARK INTER + INTRA:         -11.467
REMARK INTER:                 -11.460
REMARK INTRA:                  -0.008
REMARK UNBOUND:                -0.451
REMARK SMILES c1ccc(-c2nc(C3CCCN(c4ncnc5[nH]ccc45)C3)n[nH]2)cc1
REMARK SMILES IDX 8 1 9 2 10 3 11 4 12 5 22 6 7 7 5 8 6 9 24 10 23 11 4 13
REMARK SMILES IDX 1 14 2 15 26 16 3 17 25 18 13 19 14 20 21 21 15 22 20 23
REMARK SMILES IDX 17 24 16 25 19 26 18 27
REMARK H PARENT 24 12 18 28
ROOT
ATOM      1  C   UNL     1       6.460  42.953  50.118  1.00  0.00     0.079 C 
ATOM      2  C   UNL     1       7.461  43.081  48.956  1.00  0.00     0.015 C 
ATOM      3  C   UNL     1       8.327  44.338  49.048  1.00  0.00     0.022 C 
ATOM      4  C   UNL     1       8.368  44.912  50.462  1.00  0.00     0.118 C 
ATOM      5  N   UNL     1       7.010  45.272  50.874  1.00  0.00    -0.355 N 
ATOM      6  C   UNL     1       5.923  44.330  50.543  1.00  0.00     0.129 C 
ENDROOT
BRANCH   1   7
ATOM      7  C   UNL     1       5.352  42.012  49.779  1.00  0.00     0.155 A 
ATOM      8  C   UNL     1       4.111  40.724  48.633  1.00  0.00     0.155 A 
ATOM      9  N   UNL     1       5.166  41.509  48.518  1.00  0.00    -0.212 NA
ATOM     10  N   UNL     1       3.699  40.769  49.939  1.00  0.00    -0.259 N 
ATOM     11  N   UNL     1       4.470  41.577  50.685  1.00  0.00    -0.158 NA
ATOM     12  H   UNL     1       2.928  40.285  50.379  1.00  0.00     0.192 HD
BRANCH   8  13
ATOM     13  C   UNL     1       3.482  39.936  47.572  1.00  0.00     0.019 A 
ATOM     14  C   UNL     1       2.294  38.489  45.468  1.00  0.00     0.000 A 
ATOM     15  C   UNL     1       2.857  39.738  45.223  1.00  0.00     0.001 A 
ATOM     16  C   UNL     1       2.317  37.959  46.755  1.00  0.00     0.001 A 
ATOM     17  C   UNL     1       3.446  40.454  46.267  1.00  0.00     0.012 A 
ATOM     18  C   UNL     1       2.908  38.676  47.802  1.00  0.00     0.012 A 
ENDBRANCH   8  13
ENDBRANCH   1   7
BRANCH   5  19
ATOM     19  C   UNL     1       6.910  45.942  52.096  1.00  0.00     0.141 A 
ATOM     20  N   UNL     1       5.683  46.112  52.665  1.00  0.00    -0.219 NA
ATOM     21  C   UNL     1       8.022  46.426  52.825  1.00  0.00     0.061 A 
ATOM     22  C   UNL     1       5.581  46.758  53.843  1.00  0.00     0.226 A 
ATOM     23  C   UNL     1       9.443  46.421  52.682  1.00  0.00     0.033 A 
ATOM     24  C   UNL     1       7.760  47.069  54.027  1.00  0.00     0.142 A 
ATOM     25  N   UNL     1       6.564  47.279  54.592  1.00  0.00    -0.218 NA
ATOM     26  C   UNL     1       9.986  47.073  53.768  1.00  0.00     0.085 A 
ATOM     27  N   UNL     1       8.949  47.464  54.575  1.00  0.00    -0.346 N 
ATOM     28  H   UNL     1       9.024  47.956  55.454  1.00  0.00     0.167 HD
ENDBRANCH   5  19
TORSDOF 3
ENDMDL
MODEL 3
REMARK VINA RESULT:    -9.300      4.571      8.250
REMARK INTER + INTRA:         -11.382
REMARK INTER:                 -10.958
REMARK INTRA:                  -0.424
REMARK UNBOUND:                -0.451
REMARK SMILES c1ccc(-c2nc(C3CCCN(c4ncnc5[nH]ccc45)C3)n[nH]2)cc1
REMARK SMILES IDX 8 1 9 2 10 3 11 4 12 5 22 6 7 7 5 8 6 9 24 10 23 11 4 13
REMARK SMILES IDX 1 14 2 15 26 16 3 17 25 18 13 19 14 20 21 21 15 22 20 23
REMARK SMILES IDX 17 24 16 25 19 26 18 27
REMARK H PARENT 24 12 18 28
ROOT
ATOM      1  C   UNL     1       6.185  42.744  50.068  1.00  0.00     0.079 C 
ATOM      2  C   UNL     1       7.269  42.814  48.979  1.00  0.00     0.015 C 
ATOM      3  C   UNL     1       8.113  44.087  49.055  1.00  0.00     0.022 C 
ATOM      4  C   UNL     1       8.042  44.748  50.429  1.00  0.00     0.118 C 
ATOM      5  N   UNL     1       6.653  45.113  50.716  1.00  0.00    -0.355 N 
ATOM      6  C   UNL     1       5.603  44.137  50.365  1.00  0.00     0.129 C 
ENDROOT
BRANCH   1   7
ATOM      7  C   UNL     1       5.115  41.768  49.708  1.00  0.00     0.155 A 
ATOM      8  C   UNL     1       3.918  40.466  48.530  1.00  0.00     0.155 A 
ATOM      9  N   UNL     1       4.938  41.300  48.432  1.00  0.00    -0.212 NA
ATOM     10  N   UNL     1       3.518  40.449  49.841  1.00  0.00    -0.259 N 
ATOM     11  N   UNL     1       4.262  41.265  50.606  1.00  0.00    -0.158 NA
ATOM     12  H   UNL     1       2.774  39.919  50.271  1.00  0.00     0.192 HD
BRANCH   8  13
ATOM     13  C   UNL     1       3.313  39.688  47.448  1.00  0.00     0.019 A 
ATOM     14  C   UNL     1       2.168  38.261  45.307  1.00  0.00     0.000 A 
ATOM     15  C   UNL     1       2.703  39.528  45.093  1.00  0.00     0.001 A 
ATOM     16  C   UNL     1       2.199  37.703  46.581  1.00  0.00     0.001 A 
ATOM     17  C   UNL     1       3.270  40.234  46.156  1.00  0.00     0.012 A 
ATOM     18  C   UNL     1       2.768  38.410  47.647  1.00  0.00     0.012 A 
ENDBRANCH   8  13
ENDBRANCH   1   7
BRANCH   5  19
ATOM     19  C   UNL     1       6.455  45.856  51.882  1.00  0.00     0.141 A 
ATOM     20  N   UNL     1       7.505  46.064  52.727  1.00  0.00    -0.219 NA
ATOM     21  C   UNL     1       5.226  46.462  52.234  1.00  0.00     0.061 A 
ATOM     22  C   UNL     1       7.320  46.780  53.853  1.00  0.00     0.226 A 
ATOM     23  C   UNL     1       3.923  46.584  51.662  1.00  0.00     0.033 A 
ATOM     24  C   UNL     1       5.189  47.173  53.426  1.00  0.00     0.142 A 
ATOM     25  N   UNL     1       6.195  47.364  54.290  1.00  0.00    -0.218 NA
ATOM     26  C   UNL     1       3.144  47.328  52.522  1.00  0.00     0.085 A 
ATOM     27  N   UNL     1       3.928  47.676  53.592  1.00  0.00    -0.346 N 
ATOM     28  H   UNL     1       3.647  48.232  54.387  1.00  0.00     0.167 HD
ENDBRANCH   5  19
TORSDOF 3
ENDMDL
MODEL 4
REMARK VINA RESULT:    -9.019      1.851      3.032
REMARK INTER + INTRA:         -11.051
REMARK INTER:                 -10.448
REMARK INTRA:                  -0.603
REMARK UNBOUND:                -0.451
REMARK SMILES c1ccc(-c2nc(C3CCCN(c4ncnc5[nH]ccc45)C3)n[nH]2)cc1
REMARK SMILES IDX 8 1 9 2 10 3 11 4 12 5 22 6 7 7 5 8 6 9 24 10 23 11 4 13
REMARK SMILES IDX 1 14 2 15 26 16 3 17 25 18 13 19 14 20 21 21 15 22 20 23
REMARK SMILES IDX 17 24 16 25 19 26 18 27
REMARK H PARENT 24 12 18 28
ROOT
ATOM      1  C   UNL     1       4.871  43.945  50.860  1.00  0.00     0.079 C 
ATOM      2  C   UNL     1       5.208  42.501  50.453  1.00  0.00     0.015 C 
ATOM      3  C   UNL     1       4.047  41.530  50.673  1.00  0.00     0.022 C 
ATOM      4  C   UNL     1       2.702  42.247  50.766  1.00  0.00     0.118 C 
ATOM      5  N   UNL     1       2.730  43.176  51.898  1.00  0.00    -0.355 N 
ATOM      6  C   UNL     1       3.954  43.977  52.095  1.00  0.00     0.129 C 
ENDROOT
BRANCH   1   7
ATOM      7  C   UNL     1       6.108  44.753  51.074  1.00  0.00     0.155 A 
ATOM      8  C   UNL     1       7.617  45.860  52.079  1.00  0.00     0.155 A 
ATOM      9  N   UNL     1       6.487  45.214  52.307  1.00  0.00    -0.212 NA
ATOM     10  N   UNL     1       7.887  45.766  50.739  1.00  0.00    -0.259 N 
ATOM     11  N   UNL     1       6.946  45.069  50.081  1.00  0.00    -0.158 NA
ATOM     12  H   UNL     1       8.672  46.138  50.222  1.00  0.00     0.192 HD
BRANCH   8  13
ATOM     13  C   UNL     1       8.448  46.551  53.066  1.00  0.00     0.019 A 
ATOM     14  C   UNL     1       9.968  47.921  55.002  1.00  0.00     0.000 A 
ATOM     15  C   UNL     1       8.584  48.066  54.972  1.00  0.00     0.001 A 
ATOM     16  C   UNL     1      10.598  47.098  54.072  1.00  0.00     0.001 A 
ATOM     17  C   UNL     1       7.832  47.387  54.012  1.00  0.00     0.012 A 
ATOM     18  C   UNL     1       9.844  46.417  53.110  1.00  0.00     0.012 A 
ENDBRANCH   8  13
ENDBRANCH   1   7
BRANCH   5  19
ATOM     19  C   UNL     1       1.517  43.801  52.193  1.00  0.00     0.141 A 
ATOM     20  N   UNL     1       0.551  43.870  51.232  1.00  0.00    -0.219 NA
ATOM     21  C   UNL     1       1.192  44.339  53.461  1.00  0.00     0.061 A 
ATOM     22  C   UNL     1      -0.621  44.472  51.511  1.00  0.00     0.226 A 
ATOM     23  C   UNL     1       1.816  44.436  54.742  1.00  0.00     0.033 A 
ATOM     24  C   UNL     1      -0.058  44.926  53.597  1.00  0.00     0.142 A 
ATOM     25  N   UNL     1      -1.011  45.037  52.663  1.00  0.00    -0.218 NA
ATOM     26  C   UNL     1       0.951  45.091  55.592  1.00  0.00     0.085 A 
ATOM     27  N   UNL     1      -0.183  45.386  54.880  1.00  0.00    -0.346 N 
ATOM     28  H   UNL     1      -1.007  45.855  55.228  1.00  0.00     0.167 HD
ENDBRANCH   5  19
TORSDOF 3
ENDMDL
MODEL 5
REMARK VINA RESULT:    -9.004      3.262      8.131
REMARK INTER + INTRA:         -11.034
REMARK INTER:                 -10.858
REMARK INTRA:                  -0.176
REMARK UNBOUND:                -0.451
REMARK SMILES c1ccc(-c2nc(C3CCCN(c4ncnc5[nH]ccc45)C3)n[nH]2)cc1
REMARK SMILES IDX 8 1 9 2 10 3 11 4 12 5 22 6 7 7 5 8 6 9 24 10 23 11 4 13
REMARK SMILES IDX 1 14 2 15 26 16 3 17 25 18 13 19 14 20 21 21 15 22 20 23
REMARK SMILES IDX 17 24 16 25 19 26 18 27
REMARK H PARENT 24 12 18 28
ROOT
ATOM      1  C   UNL     1       6.087  43.129  50.465  1.00  0.00     0.079 C 
ATOM      2  C   UNL     1       6.501  42.807  49.020  1.00  0.00     0.015 C 
ATOM      3  C   UNL     1       7.691  43.640  48.538  1.00  0.00     0.022 C 
ATOM      4  C   UNL     1       8.496  44.223  49.696  1.00  0.00     0.118 C 
ATOM      5  N   UNL     1       7.631  45.095  50.493  1.00  0.00    -0.355 N 
ATOM      6  C   UNL     1       6.260  44.626  50.774  1.00  0.00     0.129 C 
ENDROOT
BRANCH   1   7
ATOM      7  C   UNL     1       4.695  42.669  50.746  1.00  0.00     0.155 A 
ATOM      8  C   UNL     1       2.683  42.704  51.429  1.00  0.00     0.155 A 
ATOM      9  N   UNL     1       3.770  43.453  51.384  1.00  0.00    -0.212 NA
ATOM     10  N   UNL     1       2.975  41.511  50.821  1.00  0.00    -0.259 N 
ATOM     11  N   UNL     1       4.243  41.466  50.380  1.00  0.00    -0.158 NA
ATOM     12  H   UNL     1       2.376  40.710  50.673  1.00  0.00     0.192 HD
BRANCH   8  13
ATOM     13  C   UNL     1       1.390  43.065  52.012  1.00  0.00     0.019 A 
ATOM     14  C   UNL     1      -1.118  43.811  53.054  1.00  0.00     0.000 A 
ATOM     15  C   UNL     1      -0.722  44.265  51.799  1.00  0.00     0.001 A 
ATOM     16  C   UNL     1      -0.270  42.990  53.792  1.00  0.00     0.001 A 
ATOM     17  C   UNL     1       0.521  43.895  51.284  1.00  0.00     0.012 A 
ATOM     18  C   UNL     1       0.976  42.618  53.276  1.00  0.00     0.012 A 
ENDBRANCH   8  13
ENDBRANCH   1   7
BRANCH   5  19
ATOM     19  C   UNL     1       8.271  45.811  51.508  1.00  0.00     0.141 A 
ATOM     20  N   UNL     1       9.577  46.169  51.351  1.00  0.00    -0.219 NA
ATOM     21  C   UNL     1       7.632  46.242  52.695  1.00  0.00     0.061 A 
ATOM     22  C   UNL     1      10.199  46.859  52.326  1.00  0.00     0.226 A 
ATOM     23  C   UNL     1       6.318  46.178  53.253  1.00  0.00     0.033 A 
ATOM     24  C   UNL     1       8.402  46.949  53.608  1.00  0.00     0.142 A 
ATOM     25  N   UNL     1       9.694  47.284  53.494  1.00  0.00    -0.218 NA
ATOM     26  C   UNL     1       6.341  46.812  54.477  1.00  0.00     0.085 A 
ATOM     27  N   UNL     1       7.616  47.272  54.680  1.00  0.00    -0.346 N 
ATOM     28  H   UNL     1       7.949  47.788  55.482  1.00  0.00     0.167 HD
ENDBRANCH   5  19
TORSDOF 3
ENDMDL
MODEL 6
REMARK VINA RESULT:    -8.915      1.738      2.667
REMARK INTER + INTRA:         -10.929
REMARK INTER:                 -10.267
REMARK INTRA:                  -0.662
REMARK UNBOUND:                -0.451
REMARK SMILES c1ccc(-c2nc(C3CCCN(c4ncnc5[nH]ccc45)C3)n[nH]2)cc1
REMARK SMILES IDX 8 1 9 2 10 3 11 4 12 5 22 6 7 7 5 8 6 9 24 10 23 11 4 13
REMARK SMILES IDX 1 14 2 15 26 16 3 17 25 18 13 19 14 20 21 21 15 22 20 23
REMARK SMILES IDX 17 24 16 25 19 26 18 27
REMARK H PARENT 24 12 18 28
ROOT
ATOM      1  C   UNL     1       2.841  45.263  51.939  1.00  0.00     0.079 C 
ATOM      2  C   UNL     1       3.324  43.938  51.324  1.00  0.00     0.015 C 
ATOM      3  C   UNL     1       2.210  42.898  51.194  1.00  0.00     0.022 C 
ATOM      4  C   UNL     1       0.820  43.530  51.226  1.00  0.00     0.118 C 
ATOM      5  N   UNL     1       0.638  44.224  52.502  1.00  0.00    -0.355 N 
ATOM      6  C   UNL     1       1.770  45.020  53.015  1.00  0.00     0.129 C 
ENDROOT
BRANCH   1   7
ATOM      7  C   UNL     1       3.983  46.063  52.472  1.00  0.00     0.155 A 
ATOM      8  C   UNL     1       5.981  46.653  52.889  1.00  0.00     0.155 A 
ATOM      9  N   UNL     1       5.291  45.700  52.288  1.00  0.00    -0.212 NA
ATOM     10  N   UNL     1       5.085  47.554  53.404  1.00  0.00    -0.259 N 
ATOM     11  N   UNL     1       3.813  47.202  53.152  1.00  0.00    -0.158 NA
ATOM     12  H   UNL     1       5.264  48.405  53.918  1.00  0.00     0.192 HD
BRANCH   8  13
ATOM     13  C   UNL     1       7.437  46.752  52.992  1.00  0.00     0.019 A 
ATOM     14  C   UNL     1      10.247  46.917  53.098  1.00  0.00     0.000 A 
ATOM     15  C   UNL     1       9.615  46.548  51.914  1.00  0.00     0.001 A 
ATOM     16  C   UNL     1       9.487  47.202  54.228  1.00  0.00     0.001 A 
ATOM     17  C   UNL     1       8.222  46.467  51.863  1.00  0.00     0.012 A 
ATOM     18  C   UNL     1       8.091  47.121  54.178  1.00  0.00     0.012 A 
ENDBRANCH   8  13
ENDBRANCH   1   7
BRANCH   5  19
ATOM     19  C   UNL     1      -0.643  44.732  52.732  1.00  0.00     0.141 A 
ATOM     20  N   UNL     1      -1.251  45.472  51.762  1.00  0.00    -0.219 NA
ATOM     21  C   UNL     1      -1.390  44.489  53.909  1.00  0.00     0.061 A 
ATOM     22  C   UNL     1      -2.486  45.965  51.978  1.00  0.00     0.226 A 
ATOM     23  C   UNL     1      -1.218  43.749  55.118  1.00  0.00     0.033 A 
ATOM     24  C   UNL     1      -2.652  45.062  53.986  1.00  0.00     0.142 A 
ATOM     25  N   UNL     1      -3.260  45.819  53.064  1.00  0.00    -0.218 NA
ATOM     26  C   UNL     1      -2.349  43.915  55.888  1.00  0.00     0.085 A 
ATOM     27  N   UNL     1      -3.210  44.719  55.188  1.00  0.00    -0.346 N 
ATOM     28  H   UNL     1      -4.130  45.015  55.482  1.00  0.00     0.167 HD
ENDBRANCH   5  19
TORSDOF 3
ENDMDL
MODEL 7
REMARK VINA RESULT:    -8.885      1.384      2.489
REMARK INTER + INTRA:         -10.894
REMARK INTER:                 -10.558
REMARK INTRA:                  -0.336
REMARK UNBOUND:                -0.451
REMARK SMILES c1ccc(-c2nc(C3CCCN(c4ncnc5[nH]ccc45)C3)n[nH]2)cc1
REMARK SMILES IDX 8 1 9 2 10 3 11 4 12 5 22 6 7 7 5 8 6 9 24 10 23 11 4 13
REMARK SMILES IDX 1 14 2 15 26 16 3 17 25 18 13 19 14 20 21 21 15 22 20 23
REMARK SMILES IDX 17 24 16 25 19 26 18 27
REMARK H PARENT 24 12 18 28
ROOT
ATOM      1  C   UNL     1       2.807  45.134  53.178  1.00  0.00     0.079 C 
ATOM      2  C   UNL     1       3.087  43.733  52.607  1.00  0.00     0.015 C 
ATOM      3  C   UNL     1       2.026  42.704  53.002  1.00  0.00     0.022 C 
ATOM      4  C   UNL     1       0.716  43.357  53.434  1.00  0.00     0.118 C 
ATOM      5  N   UNL     1       0.965  44.213  54.595  1.00  0.00    -0.355 N 
ATOM      6  C   UNL     1       2.181  45.050  54.580  1.00  0.00     0.129 C 
ENDROOT
BRANCH   1   7
ATOM      7  C   UNL     1       4.040  45.977  53.178  1.00  0.00     0.155 A 
ATOM      8  C   UNL     1       6.083  46.520  52.974  1.00  0.00     0.155 A 
ATOM      9  N   UNL     1       5.279  45.477  52.876  1.00  0.00    -0.212 NA
ATOM     10  N   UNL     1       5.320  47.603  53.320  1.00  0.00    -0.259 N 
ATOM     11  N   UNL     1       4.021  47.285  53.454  1.00  0.00    -0.158 NA
ATOM     12  H   UNL     1       5.607  48.561  53.472  1.00  0.00     0.192 HD
BRANCH   8  13
ATOM     13  C   UNL     1       7.530  46.537  52.751  1.00  0.00     0.019 A 
ATOM     14  C   UNL     1      10.299  46.536  52.236  1.00  0.00     0.000 A 
ATOM     15  C   UNL     1       9.409  46.089  51.264  1.00  0.00     0.001 A 
ATOM     16  C   UNL     1       9.817  46.982  53.463  1.00  0.00     0.001 A 
ATOM     17  C   UNL     1       8.037  46.090  51.521  1.00  0.00     0.012 A 
ATOM     18  C   UNL     1       8.441  46.983  53.721  1.00  0.00     0.012 A 
ENDBRANCH   8  13
ENDBRANCH   1   7
BRANCH   5  19
ATOM     19  C   UNL     1      -0.172  44.768  55.188  1.00  0.00     0.141 A 
ATOM     20  N   UNL     1      -1.401  44.480  54.672  1.00  0.00    -0.219 NA
ATOM     21  C   UNL     1      -0.142  45.589  56.340  1.00  0.00     0.061 A 
ATOM     22  C   UNL     1      -2.501  45.012  55.239  1.00  0.00     0.226 A 
ATOM     23  C   UNL     1       0.850  46.087  57.239  1.00  0.00     0.033 A 
ATOM     24  C   UNL     1      -1.359  46.062  56.812  1.00  0.00     0.142 A 
ATOM     25  N   UNL     1      -2.576  45.822  56.306  1.00  0.00    -0.218 NA
ATOM     26  C   UNL     1       0.218  46.854  58.194  1.00  0.00     0.085 A 
ATOM     27  N   UNL     1      -1.125  46.832  57.918  1.00  0.00    -0.346 N 
ATOM     28  H   UNL     1      -1.855  47.291  58.445  1.00  0.00     0.167 HD
ENDBRANCH   5  19
TORSDOF 3
ENDMDL
MODEL 8
REMARK VINA RESULT:    -8.810      1.510      2.084
REMARK INTER + INTRA:         -10.806
REMARK INTER:                 -10.442
REMARK INTRA:                  -0.364
REMARK UNBOUND:                -0.451
REMARK SMILES c1ccc(-c2nc(C3CCCN(c4ncnc5[nH]ccc45)C3)n[nH]2)cc1
REMARK SMILES IDX 8 1 9 2 10 3 11 4 12 5 22 6 7 7 5 8 6 9 24 10 23 11 4 13
REMARK SMILES IDX 1 14 2 15 26 16 3 17 25 18 13 19 14 20 21 21 15 22 20 23
REMARK SMILES IDX 17 24 16 25 19 26 18 27
REMARK H PARENT 24 12 18 28
ROOT
ATOM      1  C   UNL     1       2.724  45.488  54.038  1.00  0.00     0.079 C 
ATOM      2  C   UNL     1       2.685  44.261  53.111  1.00  0.00     0.015 C 
ATOM      3  C   UNL     1       1.476  43.359  53.364  1.00  0.00     0.022 C 
ATOM      4  C   UNL     1       0.352  44.087  54.097  1.00  0.00     0.118 C 
ATOM      5  N   UNL     1       0.845  44.551  55.395  1.00  0.00    -0.355 N 
ATOM      6  C   UNL     1       2.196  45.144  55.441  1.00  0.00     0.129 C 
ENDROOT
BRANCH   1   7
ATOM      7  C   UNL     1       4.093  46.080  54.098  1.00  0.00     0.155 A 
ATOM      8  C   UNL     1       6.130  46.447  53.615  1.00  0.00     0.155 A 
ATOM      9  N   UNL     1       5.104  45.695  53.257  1.00  0.00    -0.212 NA
ATOM     10  N   UNL     1       5.715  47.255  54.641  1.00  0.00    -0.259 N 
ATOM     11  N   UNL     1       4.428  47.042  54.964  1.00  0.00    -0.158 NA
ATOM     12  H   UNL     1       6.237  47.956  55.149  1.00  0.00     0.192 HD
BRANCH   8  13
ATOM     13  C   UNL     1       7.472  46.437  53.032  1.00  0.00     0.019 A 
ATOM     14  C   UNL     1      10.090  46.450  51.994  1.00  0.00     0.000 A 
ATOM     15  C   UNL     1       9.861  46.839  53.310  1.00  0.00     0.001 A 
ATOM     16  C   UNL     1       9.022  46.057  51.192  1.00  0.00     0.001 A 
ATOM     17  C   UNL     1       8.563  46.833  53.824  1.00  0.00     0.012 A 
ATOM     18  C   UNL     1       7.721  46.049  51.707  1.00  0.00     0.012 A 
ENDBRANCH   8  13
ENDBRANCH   1   7
BRANCH   5  19
ATOM     19  C   UNL     1      -0.117  45.113  56.237  1.00  0.00     0.141 A 
ATOM     20  N   UNL     1       0.152  46.295  56.862  1.00  0.00    -0.219 NA
ATOM     21  C   UNL     1      -1.398  44.555  56.458  1.00  0.00     0.061 A 
ATOM     22  C   UNL     1      -0.771  46.842  57.676  1.00  0.00     0.226 A 
ATOM     23  C   UNL     1      -2.135  43.423  55.993  1.00  0.00     0.033 A 
ATOM     24  C   UNL     1      -2.245  45.235  57.322  1.00  0.00     0.142 A 
ATOM     25  N   UNL     1      -1.994  46.378  57.974  1.00  0.00    -0.218 NA
ATOM     26  C   UNL     1      -3.373  43.438  56.600  1.00  0.00     0.085 A 
ATOM     27  N   UNL     1      -3.422  44.544  57.408  1.00  0.00    -0.346 N 
ATOM     28  H   UNL     1      -4.203  44.838  57.978  1.00  0.00     0.167 HD
ENDBRANCH   5  19
TORSDOF 3
ENDMDL
MODEL 9
REMARK VINA RESULT:    -8.751      2.351      8.854
REMARK INTER + INTRA:         -10.736
REMARK INTER:                 -10.381
REMARK INTRA:                  -0.356
REMARK UNBOUND:                -0.451
REMARK SMILES c1ccc(-c2nc(C3CCCN(c4ncnc5[nH]ccc45)C3)n[nH]2)cc1
REMARK SMILES IDX 8 1 9 2 10 3 11 4 12 5 22 6 7 7 5 8 6 9 24 10 23 11 4 13
REMARK SMILES IDX 1 14 2 15 26 16 3 17 25 18 13 19 14 20 21 21 15 22 20 23
REMARK SMILES IDX 17 24 16 25 19 26 18 27
REMARK H PARENT 24 12 18 28
ROOT
ATOM      1  C   UNL     1       3.452  45.853  53.539  1.00  0.00     0.079 C 
ATOM      2  C   UNL     1       4.253  47.134  53.829  1.00  0.00     0.015 C 
ATOM      3  C   UNL     1       5.582  47.193  53.073  1.00  0.00     0.022 C 
ATOM      4  C   UNL     1       5.604  46.260  51.865  1.00  0.00     0.118 C 
ATOM      5  N   UNL     1       5.406  44.882  52.319  1.00  0.00    -0.355 N 
ATOM      6  C   UNL     1       4.384  44.643  53.356  1.00  0.00     0.129 C 
ENDROOT
BRANCH   1   7
ATOM      7  C   UNL     1       2.428  45.603  54.596  1.00  0.00     0.155 A 
ATOM      8  C   UNL     1       0.569  45.093  55.490  1.00  0.00     0.155 A 
ATOM      9  N   UNL     1       1.144  45.222  54.307  1.00  0.00    -0.212 NA
ATOM     10  N   UNL     1       1.509  45.388  56.443  1.00  0.00    -0.259 N 
ATOM     11  N   UNL     1       2.694  45.713  55.901  1.00  0.00    -0.158 NA
ATOM     12  H   UNL     1       1.415  45.384  57.450  1.00  0.00     0.192 HD
BRANCH   8  13
ATOM     13  C   UNL     1      -0.816  44.702  55.756  1.00  0.00     0.019 A 
ATOM     14  C   UNL     1      -3.496  43.944  56.173  1.00  0.00     0.000 A 
ATOM     15  C   UNL     1      -3.002  44.073  54.878  1.00  0.00     0.001 A 
ATOM     16  C   UNL     1      -2.662  44.192  57.260  1.00  0.00     0.001 A 
ATOM     17  C   UNL     1      -1.673  44.449  54.673  1.00  0.00     0.012 A 
ATOM     18  C   UNL     1      -1.330  44.568  57.055  1.00  0.00     0.012 A 
ENDBRANCH   8  13
ENDBRANCH   1   7
BRANCH   5  19
ATOM     19  C   UNL     1       5.543  43.900  51.335  1.00  0.00     0.141 A 
ATOM     20  N   UNL     1       4.613  42.907  51.248  1.00  0.00    -0.219 NA
ATOM     21  C   UNL     1       6.578  43.887  50.369  1.00  0.00     0.061 A 
ATOM     22  C   UNL     1       4.740  41.957  50.302  1.00  0.00     0.226 A 
ATOM     23  C   UNL     1       7.690  44.714  50.024  1.00  0.00     0.033 A 
ATOM     24  C   UNL     1       6.576  42.844  49.454  1.00  0.00     0.142 A 
ATOM     25  N   UNL     1       5.695  41.839  49.367  1.00  0.00    -0.218 NA
ATOM     26  C   UNL     1       8.332  44.142  48.947  1.00  0.00     0.085 A 
ATOM     27  N   UNL     1       7.645  43.004  48.614  1.00  0.00    -0.346 N 
ATOM     28  H   UNL     1       7.861  42.369  47.858  1.00  0.00     0.167 HD
ENDBRANCH   5  19
TORSDOF 3
ENDMDL
MODEL 10
REMARK VINA RESULT:    -8.602      1.824      2.593
REMARK INTER + INTRA:         -10.562
REMARK INTER:                 -10.036
REMARK INTRA:                  -0.526
REMARK UNBOUND:                -0.451
REMARK SMILES c1ccc(-c2nc(C3CCCN(c4ncnc5[nH]ccc45)C3)n[nH]2)cc1
REMARK SMILES IDX 8 1 9 2 10 3 11 4 12 5 22 6 7 7 5 8 6 9 24 10 23 11 4 13
REMARK SMILES IDX 1 14 2 15 26 16 3 17 25 18 13 19 14 20 21 21 15 22 20 23
REMARK SMILES IDX 17 24 16 25 19 26 18 27
REMARK H PARENT 24 12 18 28
ROOT
ATOM      1  C   UNL     1       2.786  44.949  52.445  1.00  0.00     0.079 C 
ATOM      2  C   UNL     1       3.278  43.695  51.704  1.00  0.00     0.015 C 
ATOM      3  C   UNL     1       2.256  42.556  51.709  1.00  0.00     0.022 C 
ATOM      4  C   UNL     1       0.840  43.051  51.993  1.00  0.00     0.118 C 
ATOM      5  N   UNL     1       0.808  43.688  53.311  1.00  0.00    -0.355 N 
ATOM      6  C   UNL     1       1.933  44.574  53.669  1.00  0.00     0.129 C 
ENDROOT
BRANCH   1   7
ATOM      7  C   UNL     1       3.923  45.839  52.822  1.00  0.00     0.155 A 
ATOM      8  C   UNL     1       5.917  46.529  53.071  1.00  0.00     0.155 A 
ATOM      9  N   UNL     1       5.233  45.489  52.627  1.00  0.00    -0.212 NA
ATOM     10  N   UNL     1       5.016  47.464  53.508  1.00  0.00    -0.259 N 
ATOM     11  N   UNL     1       3.747  47.050  53.360  1.00  0.00    -0.158 NA
ATOM     12  H   UNL     1       5.190  48.378  53.902  1.00  0.00     0.192 HD
BRANCH   8  13
ATOM     13  C   UNL     1       7.373  46.677  53.095  1.00  0.00     0.019 A 
ATOM     14  C   UNL     1      10.169  46.994  53.231  1.00  0.00     0.000 A 
ATOM     15  C   UNL     1       9.377  47.312  54.331  1.00  0.00     0.001 A 
ATOM     16  C   UNL     1       9.575  46.521  52.064  1.00  0.00     0.001 A 
ATOM     17  C   UNL     1       7.991  47.155  54.262  1.00  0.00     0.012 A 
ATOM     18  C   UNL     1       8.186  46.363  51.995  1.00  0.00     0.012 A 
ENDBRANCH   8  13
ENDBRANCH   1   7
BRANCH   5  19
ATOM     19  C   UNL     1      -0.457  44.064  53.767  1.00  0.00     0.141 A 
ATOM     20  N   UNL     1      -0.817  43.776  55.050  1.00  0.00    -0.219 NA
ATOM     21  C   UNL     1      -1.397  44.780  52.989  1.00  0.00     0.061 A 
ATOM     22  C   UNL     1      -2.037  44.135  55.495  1.00  0.00     0.226 A 
ATOM     23  C   UNL     1      -1.449  45.345  51.678  1.00  0.00     0.033 A 
ATOM     24  C   UNL     1      -2.613  45.084  53.586  1.00  0.00     0.142 A 
ATOM     25  N   UNL     1      -3.005  44.784  54.831  1.00  0.00    -0.218 NA
ATOM     26  C   UNL     1      -2.683  45.939  51.515  1.00  0.00     0.085 A 
ATOM     27  N   UNL     1      -3.380  45.768  52.683  1.00  0.00    -0.346 N 
ATOM     28  H   UNL     1      -4.313  46.101  52.880  1.00  0.00     0.167 HD
ENDBRANCH   5  19
TORSDOF 3
ENDMDL
