MODEL 1
REMARK VINA RESULT:   -10.118      0.000      0.000
REMARK INTER + INTRA:         -14.497
REMARK INTER:                 -13.667
REMARK INTRA:                  -0.830
REMARK UNBOUND:                -0.830
REMARK SMILES O=C(c1cccnc1Oc1cccnc1)N1CCCC(c2n[nH]c(-c3ccccc3)n2)C1
REMARK SMILES IDX 1 1 2 2 3 3 4 4 8 5 5 6 7 7 6 8 9 9 10 10 11 11 15 12 12 13
REMARK SMILES IDX 14 14 13 15 16 16 17 17 32 18 18 19 20 20 19 21 21 22 22 23
REMARK SMILES IDX 31 24 23 25 24 26 25 28 26 29 30 30 27 31 29 32 28 33
REMARK H PARENT 23 27
ROOT
ATOM      1  O   UNL     1       4.319  46.276  50.456  1.00  0.00    -0.269 OA
ATOM      2  C   UNL     1       5.068  45.654  51.203  1.00  0.00     0.259 C 
ENDROOT
BRANCH   2   3
ATOM      3  C   UNL     1       6.087  44.807  50.571  1.00  0.00     0.102 A 
ATOM      4  C   UNL     1       5.776  43.512  50.156  1.00  0.00     0.021 A 
ATOM      5  C   UNL     1       7.364  45.301  50.341  1.00  0.00     0.232 A 
ATOM      6  C   UNL     1       6.768  42.747  49.546  1.00  0.00     0.021 A 
ATOM      7  N   UNL     1       8.343  44.572  49.743  1.00  0.00    -0.221 NA
ATOM      8  C   UNL     1       8.022  43.315  49.367  1.00  0.00     0.115 A 
BRANCH   5   9
ATOM      9  O   UNL     1       7.624  46.627  50.638  1.00  0.00    -0.437 OA
BRANCH   9  10
ATOM     10  C   UNL     1       8.207  46.944  51.836  1.00  0.00     0.147 A 
ATOM     11  C   UNL     1       9.359  46.230  52.163  1.00  0.00     0.050 A 
ATOM     12  C   UNL     1       7.823  47.966  52.693  1.00  0.00     0.158 A 
ATOM     13  C   UNL     1      10.066  46.545  53.320  1.00  0.00     0.024 A 
ATOM     14  N   UNL     1       8.519  48.333  53.806  1.00  0.00    -0.261 NA
ATOM     15  C   UNL     1       9.611  47.593  54.102  1.00  0.00     0.111 A 
ENDBRANCH   9  10
ENDBRANCH   5   9
ENDBRANCH   2   3
BRANCH   2  16
ATOM     16  N   UNL     1       5.006  45.704  52.598  1.00  0.00    -0.338 N 
ATOM     17  C   UNL     1       5.904  44.832  53.344  1.00  0.00     0.120 C 
ATOM     18  C   UNL     1       4.360  46.781  53.363  1.00  0.00     0.131 C 
ATOM     19  C   UNL     1       5.231  44.266  54.588  1.00  0.00     0.022 C 
ATOM     20  C   UNL     1       3.774  46.354  54.720  1.00  0.00     0.079 C 
ATOM     21  C   UNL     1       4.685  45.381  55.476  1.00  0.00     0.015 C 
BRANCH  20  22
ATOM     22  C   UNL     1       2.363  45.871  54.589  1.00  0.00     0.155 A 
ATOM     23  N   UNL     1       1.740  45.688  53.423  1.00  0.00    -0.158 NA
ATOM     24  N   UNL     1       1.580  45.648  55.693  1.00  0.00    -0.212 NA
ATOM     25  N   UNL     1       0.500  45.358  53.827  1.00  0.00    -0.259 N 
ATOM     26  C   UNL     1       0.396  45.344  55.192  1.00  0.00     0.155 A 
ATOM     27  H   UNL     1      -0.224  45.208  53.134  1.00  0.00     0.192 HD
BRANCH  26  28
ATOM     28  C   UNL     1      -0.826  45.046  55.938  1.00  0.00     0.019 A 
ATOM     29  C   UNL     1      -1.313  45.985  56.861  1.00  0.00     0.012 A 
ATOM     30  C   UNL     1      -1.544  43.854  55.759  1.00  0.00     0.012 A 
ATOM     31  C   UNL     1      -2.476  45.736  57.594  1.00  0.00     0.001 A 
ATOM     32  C   UNL     1      -2.709  43.606  56.492  1.00  0.00     0.001 A 
ATOM     33  C   UNL     1      -3.172  44.544  57.410  1.00  0.00     0.000 A 
ENDBRANCH  26  28
ENDBRANCH  20  22
ENDBRANCH   2  16
TORSDOF 6
ENDMDL
MODEL 2
REMARK VINA RESULT:   -10.112      2.486      4.154
REMARK INTER + INTRA:         -14.488
REMARK INTER:                 -12.834
REMARK INTRA:                  -1.654
REMARK UNBOUND:                -0.830
REMARK SMILES O=C(c1cccnc1Oc1cccnc1)N1CCCC(c2n[nH]c(-c3ccccc3)n2)C1
REMARK SMILES IDX 1 1 2 2 3 3 4 4 8 5 5 6 7 7 6 8 9 9 10 10 11 11 15 12 12 13
REMARK SMILES IDX 14 14 13 15 16 16 17 17 32 18 18 19 20 20 19 21 21 22 22 23
REMARK SMILES IDX 31 24 23 25 24 26 25 28 26 29 30 30 27 31 29 32 28 33
REMARK H PARENT 23 27
ROOT
ATOM      1  O   UNL     1       6.894  48.618  52.374  1.00  0.00    -0.269 OA
ATOM      2  C   UNL     1       7.081  47.471  52.768  1.00  0.00     0.259 C 
ENDROOT
BRANCH   2   3
ATOM      3  C   UNL     1       8.159  46.712  52.123  1.00  0.00     0.102 A 
ATOM      4  C   UNL     1       9.467  46.791  52.602  1.00  0.00     0.021 A 
ATOM      5  C   UNL     1       7.881  45.873  51.052  1.00  0.00     0.232 A 
ATOM      6  C   UNL     1      10.458  46.043  51.970  1.00  0.00     0.021 A 
ATOM      7  N   UNL     1       8.833  45.132  50.427  1.00  0.00    -0.221 NA
ATOM      8  C   UNL     1      10.096  45.239  50.898  1.00  0.00     0.115 A 
BRANCH   5   9
ATOM      9  O   UNL     1       6.563  45.704  50.669  1.00  0.00    -0.437 OA
BRANCH   9  10
ATOM     10  C   UNL     1       6.017  44.448  50.679  1.00  0.00     0.147 A 
ATOM     11  C   UNL     1       4.884  44.280  51.474  1.00  0.00     0.050 A 
ATOM     12  C   UNL     1       6.419  43.370  49.903  1.00  0.00     0.158 A 
ATOM     13  C   UNL     1       4.213  43.060  51.479  1.00  0.00     0.024 A 
ATOM     14  N   UNL     1       5.757  42.179  49.845  1.00  0.00    -0.261 NA
ATOM     15  C   UNL     1       4.684  42.050  50.658  1.00  0.00     0.111 A 
ENDBRANCH   9  10
ENDBRANCH   5   9
ENDBRANCH   2   3
BRANCH   2  16
ATOM     16  N   UNL     1       6.337  46.857  53.779  1.00  0.00    -0.338 N 
ATOM     17  C   UNL     1       6.919  45.690  54.430  1.00  0.00     0.120 C 
ATOM     18  C   UNL     1       5.187  47.474  54.456  1.00  0.00     0.131 C 
ATOM     19  C   UNL     1       5.863  44.637  54.743  1.00  0.00     0.022 C 
ATOM     20  C   UNL     1       4.119  46.485  54.956  1.00  0.00     0.079 C 
ATOM     21  C   UNL     1       4.729  45.224  55.579  1.00  0.00     0.015 C 
BRANCH  20  22
ATOM     22  C   UNL     1       3.093  46.195  53.906  1.00  0.00     0.155 A 
ATOM     23  N   UNL     1       2.786  47.028  52.910  1.00  0.00    -0.158 NA
ATOM     24  N   UNL     1       2.333  45.053  53.946  1.00  0.00    -0.212 NA
ATOM     25  N   UNL     1       1.769  46.380  52.316  1.00  0.00    -0.259 N 
ATOM     26  C   UNL     1       1.484  45.196  52.944  1.00  0.00     0.155 A 
ATOM     27  H   UNL     1       1.289  46.815  51.536  1.00  0.00     0.192 HD
BRANCH  26  28
ATOM     28  C   UNL     1       0.419  44.273  52.553  1.00  0.00     0.019 A 
ATOM     29  C   UNL     1       0.493  42.930  52.956  1.00  0.00     0.012 A 
ATOM     30  C   UNL     1      -0.688  44.681  51.795  1.00  0.00     0.012 A 
ATOM     31  C   UNL     1      -0.503  42.017  52.603  1.00  0.00     0.001 A 
ATOM     32  C   UNL     1      -1.686  43.767  51.443  1.00  0.00     0.001 A 
ATOM     33  C   UNL     1      -1.592  42.437  51.843  1.00  0.00     0.000 A 
ENDBRANCH  26  28
ENDBRANCH  20  22
ENDBRANCH   2  16
TORSDOF 6
ENDMDL
MODEL 3
REMARK VINA RESULT:   -10.090      3.251      7.254
REMARK INTER + INTRA:         -14.459
REMARK INTER:                 -13.786
REMARK INTRA:                  -0.672
REMARK UNBOUND:                -0.830
REMARK SMILES O=C(c1cccnc1Oc1cccnc1)N1CCCC(c2n[nH]c(-c3ccccc3)n2)C1
REMARK SMILES IDX 1 1 2 2 3 3 4 4 8 5 5 6 7 7 6 8 9 9 10 10 11 11 15 12 12 13
REMARK SMILES IDX 14 14 13 15 16 16 17 17 32 18 18 19 20 20 19 21 21 22 22 23
REMARK SMILES IDX 31 24 23 25 24 26 25 28 26 29 30 30 27 31 29 32 28 33
REMARK H PARENT 23 27
ROOT
ATOM      1  O   UNL     1       4.273  40.832  50.951  1.00  0.00    -0.269 OA
ATOM      2  C   UNL     1       4.232  42.058  51.004  1.00  0.00     0.259 C 
ENDROOT
BRANCH   2   3
ATOM      3  C   UNL     1       5.365  42.788  50.421  1.00  0.00     0.102 A 
ATOM      4  C   UNL     1       5.838  43.957  51.018  1.00  0.00     0.021 A 
ATOM      5  C   UNL     1       6.005  42.300  49.290  1.00  0.00     0.232 A 
ATOM      6  C   UNL     1       6.924  44.610  50.442  1.00  0.00     0.021 A 
ATOM      7  N   UNL     1       7.068  42.921  48.716  1.00  0.00    -0.221 NA
ATOM      8  C   UNL     1       7.498  44.061  49.302  1.00  0.00     0.115 A 
BRANCH   5   9
ATOM      9  O   UNL     1       5.610  41.076  48.782  1.00  0.00    -0.437 OA
BRANCH   9  10
ATOM     10  C   UNL     1       4.835  41.036  47.654  1.00  0.00     0.147 A 
ATOM     11  C   UNL     1       5.402  41.579  46.502  1.00  0.00     0.050 A 
ATOM     12  C   UNL     1       3.597  40.420  47.528  1.00  0.00     0.158 A 
ATOM     13  C   UNL     1       4.720  41.504  45.290  1.00  0.00     0.024 A 
ATOM     14  N   UNL     1       2.925  40.285  46.349  1.00  0.00    -0.261 NA
ATOM     15  C   UNL     1       3.497  40.856  45.265  1.00  0.00     0.111 A 
ENDBRANCH   9  10
ENDBRANCH   5   9
ENDBRANCH   2   3
BRANCH   2  16
ATOM     16  N   UNL     1       3.188  42.785  51.579  1.00  0.00    -0.338 N 
ATOM     17  C   UNL     1       1.981  42.976  50.784  1.00  0.00     0.120 C 
ATOM     18  C   UNL     1       3.075  43.085  53.015  1.00  0.00     0.131 C 
ATOM     19  C   UNL     1       1.387  44.364  50.989  1.00  0.00     0.022 C 
ATOM     20  C   UNL     1       2.350  44.400  53.350  1.00  0.00     0.079 C 
ATOM     21  C   UNL     1       1.119  44.637  52.467  1.00  0.00     0.015 C 
BRANCH  20  22
ATOM     22  C   UNL     1       3.292  45.562  53.385  1.00  0.00     0.155 A 
ATOM     23  N   UNL     1       2.916  46.835  53.250  1.00  0.00    -0.158 NA
ATOM     24  N   UNL     1       4.648  45.378  53.491  1.00  0.00    -0.212 NA
ATOM     25  N   UNL     1       4.102  47.470  53.249  1.00  0.00    -0.259 N 
ATOM     26  C   UNL     1       5.148  46.596  53.381  1.00  0.00     0.155 A 
ATOM     27  H   UNL     1       4.128  48.473  53.104  1.00  0.00     0.192 HD
BRANCH  26  28
ATOM     28  C   UNL     1       6.561  46.973  53.392  1.00  0.00     0.019 A 
ATOM     29  C   UNL     1       7.129  47.540  52.241  1.00  0.00     0.012 A 
ATOM     30  C   UNL     1       7.376  46.798  54.521  1.00  0.00     0.012 A 
ATOM     31  C   UNL     1       8.475  47.912  52.212  1.00  0.00     0.001 A 
ATOM     32  C   UNL     1       8.723  47.171  54.492  1.00  0.00     0.001 A 
ATOM     33  C   UNL     1       9.273  47.724  53.338  1.00  0.00     0.000 A 
ENDBRANCH  26  28
ENDBRANCH  20  22
ENDBRANCH   2  16
TORSDOF 6
ENDMDL
MODEL 4
REMARK VINA RESULT:   -10.042      1.853      2.327
REMARK INTER + INTRA:         -14.393
REMARK INTER:                 -13.552
REMARK INTRA:                  -0.842
REMARK UNBOUND:                -0.830
REMARK SMILES O=C(c1cccnc1Oc1cccnc1)N1CCCC(c2n[nH]c(-c3ccccc3)n2)C1
REMARK SMILES IDX 1 1 2 2 3 3 4 4 8 5 5 6 7 7 6 8 9 9 10 10 11 11 15 12 12 13
REMARK SMILES IDX 14 14 13 15 16 16 17 17 32 18 18 19 20 20 19 21 21 22 22 23
REMARK SMILES IDX 31 24 23 25 24 26 25 28 26 29 30 30 27 31 29 32 28 33
REMARK H PARENT 23 27
ROOT
ATOM      1  O   UNL     1       4.341  46.342  50.549  1.00  0.00    -0.269 OA
ATOM      2  C   UNL     1       5.090  45.699  51.279  1.00  0.00     0.259 C 
ENDROOT
BRANCH   2   3
ATOM      3  C   UNL     1       6.079  44.835  50.624  1.00  0.00     0.102 A 
ATOM      4  C   UNL     1       5.741  43.540  50.230  1.00  0.00     0.021 A 
ATOM      5  C   UNL     1       7.354  45.312  50.350  1.00  0.00     0.232 A 
ATOM      6  C   UNL     1       6.705  42.758  49.598  1.00  0.00     0.021 A 
ATOM      7  N   UNL     1       8.306  44.567  49.730  1.00  0.00    -0.221 NA
ATOM      8  C   UNL     1       7.960  43.309  49.375  1.00  0.00     0.115 A 
BRANCH   5   9
ATOM      9  O   UNL     1       7.638  46.637  50.628  1.00  0.00    -0.437 OA
BRANCH   9  10
ATOM     10  C   UNL     1       8.228  46.962  51.820  1.00  0.00     0.147 A 
ATOM     11  C   UNL     1       9.391  46.262  52.138  1.00  0.00     0.050 A 
ATOM     12  C   UNL     1       7.840  47.980  52.680  1.00  0.00     0.158 A 
ATOM     13  C   UNL     1      10.105  46.586  53.288  1.00  0.00     0.024 A 
ATOM     14  N   UNL     1       8.542  48.356  53.787  1.00  0.00    -0.261 NA
ATOM     15  C   UNL     1       9.644  47.628  54.074  1.00  0.00     0.111 A 
ENDBRANCH   9  10
ENDBRANCH   5   9
ENDBRANCH   2   3
BRANCH   2  16
ATOM     16  N   UNL     1       5.053  45.742  52.674  1.00  0.00    -0.338 N 
ATOM     17  C   UNL     1       6.052  44.966  53.399  1.00  0.00     0.120 C 
ATOM     18  C   UNL     1       4.317  46.746  53.456  1.00  0.00     0.131 C 
ATOM     19  C   UNL     1       5.467  44.333  54.656  1.00  0.00     0.022 C 
ATOM     20  C   UNL     1       3.807  46.260  54.824  1.00  0.00     0.079 C 
ATOM     21  C   UNL     1       4.829  45.385  55.558  1.00  0.00     0.015 C 
BRANCH  20  22
ATOM     22  C   UNL     1       2.451  45.636  54.722  1.00  0.00     0.155 A 
ATOM     23  N   UNL     1       1.739  45.216  55.770  1.00  0.00    -0.158 NA
ATOM     24  N   UNL     1       1.870  45.386  53.505  1.00  0.00    -0.212 NA
ATOM     25  N   UNL     1       0.674  44.657  55.170  1.00  0.00    -0.259 N 
ATOM     26  C   UNL     1       0.754  44.745  53.805  1.00  0.00     0.155 A 
ATOM     27  H   UNL     1      -0.030  44.196  55.735  1.00  0.00     0.192 HD
BRANCH  26  28
ATOM     28  C   UNL     1      -0.235  44.213  52.869  1.00  0.00     0.019 A 
ATOM     29  C   UNL     1      -0.857  45.082  51.960  1.00  0.00     0.012 A 
ATOM     30  C   UNL     1      -0.582  42.854  52.836  1.00  0.00     0.012 A 
ATOM     31  C   UNL     1      -1.808  44.612  51.051  1.00  0.00     0.001 A 
ATOM     32  C   UNL     1      -1.533  42.383  51.925  1.00  0.00     0.001 A 
ATOM     33  C   UNL     1      -2.148  43.262  51.036  1.00  0.00     0.000 A 
ENDBRANCH  26  28
ENDBRANCH  20  22
ENDBRANCH   2  16
TORSDOF 6
ENDMDL
MODEL 5
REMARK VINA RESULT:    -9.952      2.252      8.214
REMARK INTER + INTRA:         -14.273
REMARK INTER:                 -12.297
REMARK INTRA:                  -1.976
REMARK UNBOUND:                -0.830
REMARK SMILES O=C(c1cccnc1Oc1cccnc1)N1CCCC(c2n[nH]c(-c3ccccc3)n2)C1
REMARK SMILES IDX 1 1 2 2 3 3 4 4 8 5 5 6 7 7 6 8 9 9 10 10 11 11 15 12 12 13
REMARK SMILES IDX 14 14 13 15 16 16 17 17 32 18 18 19 20 20 19 21 21 22 22 23
REMARK SMILES IDX 31 24 23 25 24 26 25 28 26 29 30 30 27 31 29 32 28 33
REMARK H PARENT 23 27
ROOT
ATOM      1  O   UNL     1       3.269  42.500  52.714  1.00  0.00    -0.269 OA
ATOM      2  C   UNL     1       4.129  43.288  52.330  1.00  0.00     0.259 C 
ENDROOT
BRANCH   2   3
ATOM      3  C   UNL     1       4.399  44.449  53.187  1.00  0.00     0.102 A 
ATOM      4  C   UNL     1       5.579  44.525  53.928  1.00  0.00     0.021 A 
ATOM      5  C   UNL     1       3.500  45.506  53.239  1.00  0.00     0.232 A 
ATOM      6  C   UNL     1       5.803  45.650  54.717  1.00  0.00     0.021 A 
ATOM      7  N   UNL     1       3.704  46.614  53.998  1.00  0.00    -0.221 NA
ATOM      8  C   UNL     1       4.846  46.656  54.720  1.00  0.00     0.115 A 
BRANCH   5   9
ATOM      9  O   UNL     1       2.398  45.478  52.404  1.00  0.00    -0.437 OA
BRANCH   9  10
ATOM     10  C   UNL     1       1.161  45.225  52.933  1.00  0.00     0.147 A 
ATOM     11  C   UNL     1       0.088  45.300  52.046  1.00  0.00     0.050 A 
ATOM     12  C   UNL     1       0.890  44.806  54.229  1.00  0.00     0.158 A 
ATOM     13  C   UNL     1      -1.195  44.975  52.478  1.00  0.00     0.024 A 
ATOM     14  N   UNL     1      -0.344  44.433  54.670  1.00  0.00    -0.261 NA
ATOM     15  C   UNL     1      -1.359  44.553  53.786  1.00  0.00     0.111 A 
ENDBRANCH   9  10
ENDBRANCH   5   9
ENDBRANCH   2   3
BRANCH   2  16
ATOM     16  N   UNL     1       4.852  43.145  51.144  1.00  0.00    -0.338 N 
ATOM     17  C   UNL     1       5.096  41.791  50.662  1.00  0.00     0.120 C 
ATOM     18  C   UNL     1       5.096  44.231  50.183  1.00  0.00     0.131 C 
ATOM     19  C   UNL     1       6.485  41.655  50.052  1.00  0.00     0.022 C 
ATOM     20  C   UNL     1       6.411  44.116  49.391  1.00  0.00     0.079 C 
ATOM     21  C   UNL     1       6.705  42.680  48.943  1.00  0.00     0.015 C 
BRANCH  20  22
ATOM     22  C   UNL     1       7.553  44.763  50.110  1.00  0.00     0.155 A 
ATOM     23  N   UNL     1       8.836  44.582  49.793  1.00  0.00    -0.158 NA
ATOM     24  N   UNL     1       7.347  45.550  51.215  1.00  0.00    -0.212 NA
ATOM     25  N   UNL     1       9.457  45.272  50.765  1.00  0.00    -0.259 N 
ATOM     26  C   UNL     1       8.565  45.847  51.631  1.00  0.00     0.155 A 
ATOM     27  H   UNL     1      10.470  45.268  50.809  1.00  0.00     0.192 HD
BRANCH  26  28
ATOM     28  C   UNL     1       8.925  46.641  52.804  1.00  0.00     0.019 A 
ATOM     29  C   UNL     1       8.191  47.801  53.100  1.00  0.00     0.012 A 
ATOM     30  C   UNL     1       9.977  46.282  53.660  1.00  0.00     0.012 A 
ATOM     31  C   UNL     1       8.506  48.587  54.211  1.00  0.00     0.001 A 
ATOM     32  C   UNL     1      10.291  47.069  54.773  1.00  0.00     0.001 A 
ATOM     33  C   UNL     1       9.558  48.222  55.046  1.00  0.00     0.000 A 
ENDBRANCH  26  28
ENDBRANCH  20  22
ENDBRANCH   2  16
TORSDOF 6
ENDMDL
MODEL 6
REMARK VINA RESULT:    -9.847      2.080      4.181
REMARK INTER + INTRA:         -14.131
REMARK INTER:                 -12.573
REMARK INTRA:                  -1.558
REMARK UNBOUND:                -0.830
REMARK SMILES O=C(c1cccnc1Oc1cccnc1)N1CCCC(c2n[nH]c(-c3ccccc3)n2)C1
REMARK SMILES IDX 1 1 2 2 3 3 4 4 8 5 5 6 7 7 6 8 9 9 10 10 11 11 15 12 12 13
REMARK SMILES IDX 14 14 13 15 16 16 17 17 32 18 18 19 20 20 19 21 21 22 22 23
REMARK SMILES IDX 31 24 23 25 24 26 25 28 26 29 30 30 27 31 29 32 28 33
REMARK H PARENT 23 27
ROOT
ATOM      1  O   UNL     1       3.140  47.869  52.329  1.00  0.00    -0.269 OA
ATOM      2  C   UNL     1       3.614  46.771  52.605  1.00  0.00     0.259 C 
ENDROOT
BRANCH   2   3
ATOM      3  C   UNL     1       4.986  46.748  53.126  1.00  0.00     0.102 A 
ATOM      4  C   UNL     1       5.238  47.013  54.473  1.00  0.00     0.021 A 
ATOM      5  C   UNL     1       6.047  46.423  52.292  1.00  0.00     0.232 A 
ATOM      6  C   UNL     1       6.553  46.967  54.930  1.00  0.00     0.021 A 
ATOM      7  N   UNL     1       7.335  46.368  52.720  1.00  0.00    -0.221 NA
ATOM      8  C   UNL     1       7.556  46.646  54.024  1.00  0.00     0.115 A 
BRANCH   5   9
ATOM      9  O   UNL     1       5.772  46.038  50.992  1.00  0.00    -0.437 OA
BRANCH   9  10
ATOM     10  C   UNL     1       6.333  44.891  50.499  1.00  0.00     0.147 A 
ATOM     11  C   UNL     1       5.577  43.729  50.643  1.00  0.00     0.050 A 
ATOM     12  C   UNL     1       7.522  44.796  49.789  1.00  0.00     0.158 A 
ATOM     13  C   UNL     1       6.031  42.532  50.096  1.00  0.00     0.024 A 
ATOM     14  N   UNL     1       7.971  43.652  49.197  1.00  0.00    -0.261 NA
ATOM     15  C   UNL     1       7.222  42.543  49.391  1.00  0.00     0.111 A 
ENDBRANCH   9  10
ENDBRANCH   5   9
ENDBRANCH   2   3
BRANCH   2  16
ATOM     16  N   UNL     1       2.932  45.561  52.453  1.00  0.00    -0.338 N 
ATOM     17  C   UNL     1       2.355  45.271  51.147  1.00  0.00     0.120 C 
ATOM     18  C   UNL     1       3.032  44.428  53.386  1.00  0.00     0.131 C 
ATOM     19  C   UNL     1       1.009  44.569  51.271  1.00  0.00     0.022 C 
ATOM     20  C   UNL     1       1.772  43.550  53.480  1.00  0.00     0.079 C 
ATOM     21  C   UNL     1       1.122  43.302  52.113  1.00  0.00     0.015 C 
BRANCH  20  22
ATOM     22  C   UNL     1       0.815  44.058  54.512  1.00  0.00     0.155 A 
ATOM     23  N   UNL     1      -0.485  43.759  54.540  1.00  0.00    -0.158 NA
ATOM     24  N   UNL     1       1.214  44.945  55.480  1.00  0.00    -0.212 NA
ATOM     25  N   UNL     1      -0.918  44.517  55.563  1.00  0.00    -0.259 N 
ATOM     26  C   UNL     1       0.099  45.242  56.124  1.00  0.00     0.155 A 
ATOM     27  H   UNL     1      -1.906  44.532  55.787  1.00  0.00     0.192 HD
BRANCH  26  28
ATOM     28  C   UNL     1      -0.051  46.177  57.239  1.00  0.00     0.019 A 
ATOM     29  C   UNL     1       1.047  46.431  58.075  1.00  0.00     0.012 A 
ATOM     30  C   UNL     1      -1.257  46.845  57.501  1.00  0.00     0.012 A 
ATOM     31  C   UNL     1       0.943  47.317  59.150  1.00  0.00     0.001 A 
ATOM     32  C   UNL     1      -1.361  47.732  58.577  1.00  0.00     0.001 A 
ATOM     33  C   UNL     1      -0.263  47.965  59.402  1.00  0.00     0.000 A 
ENDBRANCH  26  28
ENDBRANCH  20  22
ENDBRANCH   2  16
TORSDOF 6
ENDMDL
MODEL 7
REMARK VINA RESULT:    -9.598      2.868      9.211
REMARK INTER + INTRA:         -13.794
REMARK INTER:                 -12.849
REMARK INTRA:                  -0.946
REMARK UNBOUND:                -0.830
REMARK SMILES O=C(c1cccnc1Oc1cccnc1)N1CCCC(c2n[nH]c(-c3ccccc3)n2)C1
REMARK SMILES IDX 1 1 2 2 3 3 4 4 8 5 5 6 7 7 6 8 9 9 10 10 11 11 15 12 12 13
REMARK SMILES IDX 14 14 13 15 16 16 17 17 32 18 18 19 20 20 19 21 21 22 22 23
REMARK SMILES IDX 31 24 23 25 24 26 25 28 26 29 30 30 27 31 29 32 28 33
REMARK H PARENT 23 27
ROOT
ATOM      1  O   UNL     1       1.222  42.570  53.781  1.00  0.00    -0.269 OA
ATOM      2  C   UNL     1       1.163  43.795  53.832  1.00  0.00     0.259 C 
ENDROOT
BRANCH   2   3
ATOM      3  C   UNL     1       0.521  44.382  55.014  1.00  0.00     0.102 A 
ATOM      4  C   UNL     1       1.290  44.925  56.044  1.00  0.00     0.021 A 
ATOM      5  C   UNL     1      -0.863  44.442  55.103  1.00  0.00     0.232 A 
ATOM      6  C   UNL     1       0.641  45.486  57.141  1.00  0.00     0.021 A 
ATOM      7  N   UNL     1      -1.514  44.989  56.162  1.00  0.00    -0.221 NA
ATOM      8  C   UNL     1      -0.747  45.492  57.155  1.00  0.00     0.115 A 
BRANCH   5   9
ATOM      9  O   UNL     1      -1.614  44.018  54.021  1.00  0.00    -0.437 OA
BRANCH   9  10
ATOM     10  C   UNL     1      -2.256  44.946  53.246  1.00  0.00     0.147 A 
ATOM     11  C   UNL     1      -3.318  45.619  53.849  1.00  0.00     0.050 A 
ATOM     12  C   UNL     1      -1.889  45.347  51.968  1.00  0.00     0.158 A 
ATOM     13  C   UNL     1      -3.973  46.639  53.164  1.00  0.00     0.024 A 
ATOM     14  N   UNL     1      -2.475  46.374  51.290  1.00  0.00    -0.261 NA
ATOM     15  C   UNL     1      -3.521  46.975  51.900  1.00  0.00     0.111 A 
ENDBRANCH   9  10
ENDBRANCH   5   9
ENDBRANCH   2   3
BRANCH   2  16
ATOM     16  N   UNL     1       1.664  44.648  52.846  1.00  0.00    -0.338 N 
ATOM     17  C   UNL     1       1.806  44.111  51.498  1.00  0.00     0.120 C 
ATOM     18  C   UNL     1       1.746  46.110  52.974  1.00  0.00     0.131 C 
ATOM     19  C   UNL     1       3.064  44.631  50.816  1.00  0.00     0.022 C 
ATOM     20  C   UNL     1       2.899  46.769  52.195  1.00  0.00     0.079 C 
ATOM     21  C   UNL     1       3.094  46.157  50.804  1.00  0.00     0.015 C 
BRANCH  20  22
ATOM     22  C   UNL     1       4.156  46.826  53.005  1.00  0.00     0.155 A 
ATOM     23  N   UNL     1       4.196  47.115  54.307  1.00  0.00    -0.158 NA
ATOM     24  N   UNL     1       5.387  46.648  52.425  1.00  0.00    -0.212 NA
ATOM     25  N   UNL     1       5.520  47.140  54.540  1.00  0.00    -0.259 N 
ATOM     26  C   UNL     1       6.242  46.872  53.407  1.00  0.00     0.155 A 
ATOM     27  H   UNL     1       5.858  47.393  55.462  1.00  0.00     0.192 HD
BRANCH  26  28
ATOM     28  C   UNL     1       7.701  46.848  53.327  1.00  0.00     0.019 A 
ATOM     29  C   UNL     1       8.316  46.472  52.123  1.00  0.00     0.012 A 
ATOM     30  C   UNL     1       8.519  47.201  54.411  1.00  0.00     0.012 A 
ATOM     31  C   UNL     1       9.708  46.435  52.007  1.00  0.00     0.001 A 
ATOM     32  C   UNL     1       9.912  47.165  54.294  1.00  0.00     0.001 A 
ATOM     33  C   UNL     1      10.505  46.780  53.095  1.00  0.00     0.000 A 
ENDBRANCH  26  28
ENDBRANCH  20  22
ENDBRANCH   2  16
TORSDOF 6
ENDMDL
MODEL 8
REMARK VINA RESULT:    -9.517      1.784      2.606
REMARK INTER + INTRA:         -13.685
REMARK INTER:                 -12.991
REMARK INTRA:                  -0.695
REMARK UNBOUND:                -0.830
REMARK SMILES O=C(c1cccnc1Oc1cccnc1)N1CCCC(c2n[nH]c(-c3ccccc3)n2)C1
REMARK SMILES IDX 1 1 2 2 3 3 4 4 8 5 5 6 7 7 6 8 9 9 10 10 11 11 15 12 12 13
REMARK SMILES IDX 14 14 13 15 16 16 17 17 32 18 18 19 20 20 19 21 21 22 22 23
REMARK SMILES IDX 31 24 23 25 24 26 25 28 26 29 30 30 27 31 29 32 28 33
REMARK H PARENT 23 27
ROOT
ATOM      1  O   UNL     1       5.453  44.233  53.764  1.00  0.00    -0.269 OA
ATOM      2  C   UNL     1       4.926  44.247  52.656  1.00  0.00     0.259 C 
ENDROOT
BRANCH   2   3
ATOM      3  C   UNL     1       5.817  44.161  51.493  1.00  0.00     0.102 A 
ATOM      4  C   UNL     1       5.800  43.037  50.666  1.00  0.00     0.021 A 
ATOM      5  C   UNL     1       6.660  45.218  51.177  1.00  0.00     0.232 A 
ATOM      6  C   UNL     1       6.651  43.003  49.564  1.00  0.00     0.021 A 
ATOM      7  N   UNL     1       7.494  45.205  50.104  1.00  0.00    -0.221 NA
ATOM      8  C   UNL     1       7.472  44.098  49.329  1.00  0.00     0.115 A 
BRANCH   5   9
ATOM      9  O   UNL     1       6.577  46.377  51.927  1.00  0.00    -0.437 OA
BRANCH   9  10
ATOM     10  C   UNL     1       7.577  46.677  52.813  1.00  0.00     0.147 A 
ATOM     11  C   UNL     1       8.876  46.626  52.310  1.00  0.00     0.050 A 
ATOM     12  C   UNL     1       7.414  47.122  54.118  1.00  0.00     0.158 A 
ATOM     13  C   UNL     1       9.949  46.998  53.116  1.00  0.00     0.024 A 
ATOM     14  N   UNL     1       8.436  47.541  54.917  1.00  0.00    -0.261 NA
ATOM     15  C   UNL     1       9.681  47.442  54.399  1.00  0.00     0.111 A 
ENDBRANCH   9  10
ENDBRANCH   5   9
ENDBRANCH   2   3
BRANCH   2  16
ATOM     16  N   UNL     1       3.548  44.338  52.442  1.00  0.00    -0.338 N 
ATOM     17  C   UNL     1       3.092  45.155  51.325  1.00  0.00     0.120 C 
ATOM     18  C   UNL     1       2.553  43.431  53.034  1.00  0.00     0.131 C 
ATOM     19  C   UNL     1       1.820  45.919  51.670  1.00  0.00     0.022 C 
ATOM     20  C   UNL     1       1.171  44.058  53.288  1.00  0.00     0.079 C 
ATOM     21  C   UNL     1       0.719  44.973  52.144  1.00  0.00     0.015 C 
BRANCH  20  22
ATOM     22  C   UNL     1       1.091  44.703  54.636  1.00  0.00     0.155 A 
ATOM     23  N   UNL     1       2.065  44.655  55.547  1.00  0.00    -0.158 NA
ATOM     24  N   UNL     1      -0.048  45.343  55.055  1.00  0.00    -0.212 NA
ATOM     25  N   UNL     1       1.491  45.276  56.592  1.00  0.00    -0.259 N 
ATOM     26  C   UNL     1       0.214  45.681  56.305  1.00  0.00     0.155 A 
ATOM     27  H   UNL     1       1.994  45.342  57.469  1.00  0.00     0.192 HD
BRANCH  26  28
ATOM     28  C   UNL     1      -0.681  46.363  57.239  1.00  0.00     0.019 A 
ATOM     29  C   UNL     1      -2.063  46.129  57.160  1.00  0.00     0.012 A 
ATOM     30  C   UNL     1      -0.209  47.241  58.226  1.00  0.00     0.012 A 
ATOM     31  C   UNL     1      -2.951  46.762  58.033  1.00  0.00     0.001 A 
ATOM     32  C   UNL     1      -1.098  47.874  59.101  1.00  0.00     0.001 A 
ATOM     33  C   UNL     1      -2.467  47.637  59.002  1.00  0.00     0.000 A 
ENDBRANCH  26  28
ENDBRANCH  20  22
ENDBRANCH   2  16
TORSDOF 6
ENDMDL
MODEL 9
REMARK VINA RESULT:    -9.098      3.586      7.429
REMARK INTER + INTRA:         -13.119
REMARK INTER:                 -12.433
REMARK INTRA:                  -0.686
REMARK UNBOUND:                -0.830
REMARK SMILES O=C(c1cccnc1Oc1cccnc1)N1CCCC(c2n[nH]c(-c3ccccc3)n2)C1
REMARK SMILES IDX 1 1 2 2 3 3 4 4 8 5 5 6 7 7 6 8 9 9 10 10 11 11 15 12 12 13
REMARK SMILES IDX 14 14 13 15 16 16 17 17 32 18 18 19 20 20 19 21 21 22 22 23
REMARK SMILES IDX 31 24 23 25 24 26 25 28 26 29 30 30 27 31 29 32 28 33
REMARK H PARENT 23 27
ROOT
ATOM      1  O   UNL     1       3.891  46.075  50.441  1.00  0.00    -0.269 OA
ATOM      2  C   UNL     1       4.511  45.394  51.252  1.00  0.00     0.259 C 
ENDROOT
BRANCH   2   3
ATOM      3  C   UNL     1       4.258  45.657  52.674  1.00  0.00     0.102 A 
ATOM      4  C   UNL     1       3.349  44.877  53.389  1.00  0.00     0.021 A 
ATOM      5  C   UNL     1       4.953  46.661  53.336  1.00  0.00     0.232 A 
ATOM      6  C   UNL     1       3.149  45.150  54.740  1.00  0.00     0.021 A 
ATOM      7  N   UNL     1       4.775  46.939  54.654  1.00  0.00    -0.221 NA
ATOM      8  C   UNL     1       3.876  46.181  55.320  1.00  0.00     0.115 A 
BRANCH   5   9
ATOM      9  O   UNL     1       5.943  47.342  52.651  1.00  0.00    -0.437 OA
BRANCH   9  10
ATOM     10  C   UNL     1       7.251  47.174  53.020  1.00  0.00     0.147 A 
ATOM     11  C   UNL     1       8.182  47.160  51.983  1.00  0.00     0.050 A 
ATOM     12  C   UNL     1       7.739  47.121  54.318  1.00  0.00     0.158 A 
ATOM     13  C   UNL     1       9.542  47.079  52.271  1.00  0.00     0.024 A 
ATOM     14  N   UNL     1       9.064  47.093  54.637  1.00  0.00    -0.261 NA
ATOM     15  C   UNL     1       9.930  47.047  53.599  1.00  0.00     0.111 A 
ENDBRANCH   9  10
ENDBRANCH   5   9
ENDBRANCH   2   3
BRANCH   2  16
ATOM     16  N   UNL     1       5.429  44.400  50.905  1.00  0.00    -0.338 N 
ATOM     17  C   UNL     1       6.586  44.797  50.112  1.00  0.00     0.120 C 
ATOM     18  C   UNL     1       5.500  43.076  51.540  1.00  0.00     0.131 C 
ATOM     19  C   UNL     1       6.951  43.736  49.082  1.00  0.00     0.022 C 
ATOM     20  C   UNL     1       6.008  41.944  50.630  1.00  0.00     0.079 C 
ATOM     21  C   UNL     1       7.179  42.380  49.743  1.00  0.00     0.015 C 
BRANCH  20  22
ATOM     22  C   UNL     1       4.891  41.299  49.869  1.00  0.00     0.155 A 
ATOM     23  N   UNL     1       3.793  40.795  50.436  1.00  0.00    -0.158 NA
ATOM     24  N   UNL     1       4.964  41.119  48.511  1.00  0.00    -0.212 NA
ATOM     25  N   UNL     1       3.164  40.255  49.377  1.00  0.00    -0.259 N 
ATOM     26  C   UNL     1       3.871  40.437  48.217  1.00  0.00     0.155 A 
ATOM     27  H   UNL     1       2.301  39.743  49.519  1.00  0.00     0.192 HD
BRANCH  26  28
ATOM     28  C   UNL     1       3.466  39.948  46.901  1.00  0.00     0.019 A 
ATOM     29  C   UNL     1       2.869  38.681  46.793  1.00  0.00     0.012 A 
ATOM     30  C   UNL     1       3.640  40.704  45.732  1.00  0.00     0.012 A 
ATOM     31  C   UNL     1       2.469  38.178  45.553  1.00  0.00     0.001 A 
ATOM     32  C   UNL     1       3.238  40.200  44.491  1.00  0.00     0.001 A 
ATOM     33  C   UNL     1       2.657  38.938  44.401  1.00  0.00     0.000 A 
ENDBRANCH  26  28
ENDBRANCH  20  22
ENDBRANCH   2  16
TORSDOF 6
ENDMDL
MODEL 10
REMARK VINA RESULT:    -9.059      2.221      4.609
REMARK INTER + INTRA:         -13.066
REMARK INTER:                 -11.406
REMARK INTRA:                  -1.660
REMARK UNBOUND:                -0.830
REMARK SMILES O=C(c1cccnc1Oc1cccnc1)N1CCCC(c2n[nH]c(-c3ccccc3)n2)C1
REMARK SMILES IDX 1 1 2 2 3 3 4 4 8 5 5 6 7 7 6 8 9 9 10 10 11 11 15 12 12 13
REMARK SMILES IDX 14 14 13 15 16 16 17 17 32 18 18 19 20 20 19 21 21 22 22 23
REMARK SMILES IDX 31 24 23 25 24 26 25 28 26 29 30 30 27 31 29 32 28 33
REMARK H PARENT 23 27
ROOT
ATOM      1  O   UNL     1       4.200  46.105  50.086  1.00  0.00    -0.269 OA
ATOM      2  C   UNL     1       4.868  45.506  50.924  1.00  0.00     0.259 C 
ENDROOT
BRANCH   2   3
ATOM      3  C   UNL     1       5.244  44.122  50.612  1.00  0.00     0.102 A 
ATOM      4  C   UNL     1       6.283  43.853  49.720  1.00  0.00     0.021 A 
ATOM      5  C   UNL     1       4.596  43.062  51.233  1.00  0.00     0.232 A 
ATOM      6  C   UNL     1       6.618  42.526  49.463  1.00  0.00     0.021 A 
ATOM      7  N   UNL     1       4.913  41.762  50.998  1.00  0.00    -0.221 NA
ATOM      8  C   UNL     1       5.910  41.527  50.117  1.00  0.00     0.115 A 
BRANCH   5   9
ATOM      9  O   UNL     1       3.658  43.342  52.209  1.00  0.00    -0.437 OA
BRANCH   9  10
ATOM     10  C   UNL     1       2.337  43.073  51.968  1.00  0.00     0.147 A 
ATOM     11  C   UNL     1       1.581  42.679  53.071  1.00  0.00     0.050 A 
ATOM     12  C   UNL     1       1.668  43.252  50.765  1.00  0.00     0.158 A 
ATOM     13  C   UNL     1       0.212  42.468  52.935  1.00  0.00     0.024 A 
ATOM     14  N   UNL     1       0.321  43.103  50.609  1.00  0.00    -0.261 NA
ATOM     15  C   UNL     1      -0.366  42.689  51.697  1.00  0.00     0.111 A 
ENDBRANCH   9  10
ENDBRANCH   5   9
ENDBRANCH   2   3
BRANCH   2  16
ATOM     16  N   UNL     1       5.282  46.058  52.139  1.00  0.00    -0.338 N 
ATOM     17  C   UNL     1       6.662  45.828  52.548  1.00  0.00     0.120 C 
ATOM     18  C   UNL     1       4.555  47.109  52.866  1.00  0.00     0.131 C 
ATOM     19  C   UNL     1       6.773  45.605  54.051  1.00  0.00     0.022 C 
ATOM     20  C   UNL     1       4.719  47.075  54.395  1.00  0.00     0.079 C 
ATOM     21  C   UNL     1       6.156  46.765  54.828  1.00  0.00     0.015 C 
BRANCH  20  22
ATOM     22  C   UNL     1       3.696  46.196  55.045  1.00  0.00     0.155 A 
ATOM     23  N   UNL     1       3.891  44.908  55.333  1.00  0.00    -0.158 NA
ATOM     24  N   UNL     1       2.435  46.657  55.329  1.00  0.00    -0.212 NA
ATOM     25  N   UNL     1       2.682  44.547  55.797  1.00  0.00    -0.259 N 
ATOM     26  C   UNL     1       1.798  45.593  55.785  1.00  0.00     0.155 A 
ATOM     27  H   UNL     1       2.516  43.580  56.051  1.00  0.00     0.192 HD
BRANCH  26  28
ATOM     28  C   UNL     1       0.400  45.517  56.205  1.00  0.00     0.019 A 
ATOM     29  C   UNL     1      -0.432  44.534  55.646  1.00  0.00     0.012 A 
ATOM     30  C   UNL     1      -0.146  46.387  57.161  1.00  0.00     0.012 A 
ATOM     31  C   UNL     1      -1.773  44.429  56.021  1.00  0.00     0.001 A 
ATOM     32  C   UNL     1      -1.489  46.281  57.537  1.00  0.00     0.001 A 
ATOM     33  C   UNL     1      -2.302  45.306  56.964  1.00  0.00     0.000 A 
ENDBRANCH  26  28
ENDBRANCH  20  22
ENDBRANCH   2  16
TORSDOF 6
ENDMDL
