MODEL 1
REMARK VINA RESULT:    -9.516      0.000      0.000
REMARK INTER + INTRA:         -12.629
REMARK INTER:                 -11.742
REMARK INTRA:                  -0.888
REMARK UNBOUND:                -0.888
REMARK SMILES O=C(CSc1nnc2[nH]c3ccccc3n12)NC1CCCCC1
REMARK SMILES IDX 3 1 2 2 17 3 1 4 18 6 19 7 23 8 20 9 22 10 21 11 4 12 5 13
REMARK SMILES IDX 6 14 16 15 7 16 15 17 8 18 14 19 10 20 9 21 13 22 11 23
REMARK SMILES IDX 12 24
REMARK H PARENT 17 5 9 25
ROOT
ATOM      1  C   UNL     1       4.599  46.001  54.392  1.00  0.00     0.178 C 
ENDROOT
BRANCH   1   2
ATOM      2  C   UNL     1       5.483  47.175  54.009  1.00  0.00     0.230 C 
ATOM      3  N   UNL     1       6.826  46.872  53.887  1.00  0.00    -0.353 N 
ATOM      4  O   UNL     1       5.028  48.301  53.829  1.00  0.00    -0.274 OA
ATOM      5  H   UNL     1       7.073  45.888  53.783  1.00  0.00     0.163 HD
BRANCH   3   6
ATOM      6  C   UNL     1       7.795  47.870  53.448  1.00  0.00     0.082 C 
ATOM      7  C   UNL     1       9.059  47.798  54.307  1.00  0.00     0.025 C 
ATOM      8  C   UNL     1       8.104  47.740  51.943  1.00  0.00     0.025 C 
ATOM      9  C   UNL     1       9.889  46.536  54.054  1.00  0.00     0.002 C 
ATOM     10  C   UNL     1       9.501  47.196  51.640  1.00  0.00     0.002 C 
ATOM     11  C   UNL     1       9.883  46.077  52.596  1.00  0.00     0.000 C 
ENDBRANCH   3   6
ENDBRANCH   1   2
BRANCH   1  12
ATOM     12  S   UNL     1       3.015  46.081  53.508  1.00  0.00    -0.076 SA
BRANCH  12  13
ATOM     13  C   UNL     1       2.803  44.432  53.054  1.00  0.00     0.197 A 
ATOM     14  N   UNL     1       1.828  43.623  53.438  1.00  0.00    -0.121 NA
ATOM     15  N   UNL     1       3.622  43.755  52.217  1.00  0.00    -0.254 N 
ATOM     16  N   UNL     1       2.021  42.379  52.832  1.00  0.00    -0.110 NA
ATOM     17  C   UNL     1       4.741  43.890  51.412  1.00  0.00     0.075 A 
ATOM     18  C   UNL     1       3.118  42.482  52.130  1.00  0.00     0.234 A 
ATOM     19  C   UNL     1       5.574  44.955  51.169  1.00  0.00     0.029 A 
ATOM     20  C   UNL     1       4.878  42.619  50.803  1.00  0.00     0.065 A 
ATOM     21  N   UNL     1       3.902  41.738  51.313  1.00  0.00    -0.322 N 
ATOM     22  C   UNL     1       6.619  44.711  50.274  1.00  0.00     0.002 A 
ATOM     23  C   UNL     1       5.922  42.375  49.945  1.00  0.00     0.028 A 
ATOM     24  C   UNL     1       6.793  43.442  49.673  1.00  0.00     0.002 A 
ATOM     25  H   UNL     1       3.600  40.918  50.809  1.00  0.00     0.170 HD
ENDBRANCH  12  13
ENDBRANCH   1  12
TORSDOF 4
ENDMDL
MODEL 2
REMARK VINA RESULT:    -8.647      2.308      5.964
REMARK INTER + INTRA:         -11.557
REMARK INTER:                 -10.855
REMARK INTRA:                  -0.703
REMARK UNBOUND:                -0.888
REMARK SMILES O=C(CSc1nnc2[nH]c3ccccc3n12)NC1CCCCC1
REMARK SMILES IDX 3 1 2 2 17 3 1 4 18 6 19 7 23 8 20 9 22 10 21 11 4 12 5 13
REMARK SMILES IDX 6 14 16 15 7 16 15 17 8 18 14 19 10 20 9 21 13 22 11 23
REMARK SMILES IDX 12 24
REMARK H PARENT 17 5 9 25
ROOT
ATOM      1  C   UNL     1       4.331  45.785  55.374  1.00  0.00     0.178 C 
ENDROOT
BRANCH   1   2
ATOM      2  C   UNL     1       2.876  45.353  55.333  1.00  0.00     0.230 C 
ATOM      3  N   UNL     1       2.554  44.503  54.293  1.00  0.00    -0.353 N 
ATOM      4  O   UNL     1       2.058  45.740  56.164  1.00  0.00    -0.274 OA
ATOM      5  H   UNL     1       3.325  44.024  53.828  1.00  0.00     0.163 HD
BRANCH   3   6
ATOM      6  C   UNL     1       1.217  43.934  54.159  1.00  0.00     0.082 C 
ATOM      7  C   UNL     1       0.265  44.954  53.531  1.00  0.00     0.025 C 
ATOM      8  C   UNL     1       1.240  42.602  53.382  1.00  0.00     0.025 C 
ATOM      9  C   UNL     1       0.557  45.221  52.052  1.00  0.00     0.002 C 
ATOM     10  C   UNL     1       0.638  42.691  51.979  1.00  0.00     0.002 C 
ATOM     11  C   UNL     1       1.028  43.986  51.285  1.00  0.00     0.000 C 
ENDBRANCH   3   6
ENDBRANCH   1   2
BRANCH   1  12
ATOM     12  S   UNL     1       4.576  47.292  54.390  1.00  0.00    -0.076 SA
BRANCH  12  13
ATOM     13  C   UNL     1       4.955  46.625  52.848  1.00  0.00     0.197 A 
ATOM     14  N   UNL     1       4.094  46.226  51.923  1.00  0.00    -0.121 NA
ATOM     15  N   UNL     1       6.210  46.439  52.378  1.00  0.00    -0.254 N 
ATOM     16  N   UNL     1       4.815  45.764  50.818  1.00  0.00    -0.110 NA
ATOM     17  C   UNL     1       7.547  46.635  52.684  1.00  0.00     0.075 A 
ATOM     18  C   UNL     1       6.078  45.878  51.133  1.00  0.00     0.234 A 
ATOM     19  C   UNL     1       8.169  47.157  53.791  1.00  0.00     0.029 A 
ATOM     20  C   UNL     1       8.230  46.178  51.530  1.00  0.00     0.065 A 
ATOM     21  N   UNL     1       7.305  45.650  50.606  1.00  0.00    -0.322 N 
ATOM     22  C   UNL     1       9.564  47.199  53.735  1.00  0.00     0.002 A 
ATOM     23  C   UNL     1       9.602  46.197  51.490  1.00  0.00     0.028 A 
ATOM     24  C   UNL     1      10.271  46.725  52.604  1.00  0.00     0.002 A 
ATOM     25  H   UNL     1       7.507  45.579  49.620  1.00  0.00     0.170 HD
ENDBRANCH  12  13
ENDBRANCH   1  12
TORSDOF 4
ENDMDL
MODEL 3
REMARK VINA RESULT:    -8.634      2.410      3.721
REMARK INTER + INTRA:         -11.541
REMARK INTER:                 -10.408
REMARK INTRA:                  -1.133
REMARK UNBOUND:                -0.888
REMARK SMILES O=C(CSc1nnc2[nH]c3ccccc3n12)NC1CCCCC1
REMARK SMILES IDX 3 1 2 2 17 3 1 4 18 6 19 7 23 8 20 9 22 10 21 11 4 12 5 13
REMARK SMILES IDX 6 14 16 15 7 16 15 17 8 18 14 19 10 20 9 21 13 22 11 23
REMARK SMILES IDX 12 24
REMARK H PARENT 17 5 9 25
ROOT
ATOM      1  C   UNL     1       2.315  44.084  51.268  1.00  0.00     0.178 C 
ENDROOT
BRANCH   1   2
ATOM      2  C   UNL     1       2.453  45.315  52.146  1.00  0.00     0.230 C 
ATOM      3  N   UNL     1       3.433  45.226  53.116  1.00  0.00    -0.353 N 
ATOM      4  O   UNL     1       1.739  46.303  51.999  1.00  0.00    -0.274 OA
ATOM      5  H   UNL     1       4.144  44.505  52.993  1.00  0.00     0.163 HD
BRANCH   3   6
ATOM      6  C   UNL     1       3.745  46.353  53.989  1.00  0.00     0.082 C 
ATOM      7  C   UNL     1       4.059  45.859  55.402  1.00  0.00     0.025 C 
ATOM      8  C   UNL     1       4.879  47.224  53.410  1.00  0.00     0.025 C 
ATOM      9  C   UNL     1       5.391  45.110  55.498  1.00  0.00     0.002 C 
ATOM     10  C   UNL     1       6.202  47.107  54.168  1.00  0.00     0.002 C 
ATOM     11  C   UNL     1       6.481  45.672  54.585  1.00  0.00     0.000 C 
ENDBRANCH   3   6
ENDBRANCH   1   2
BRANCH   1  12
ATOM     12  S   UNL     1       3.062  42.639  52.075  1.00  0.00    -0.076 SA
BRANCH  12  13
ATOM     13  C   UNL     1       3.889  41.909  50.751  1.00  0.00     0.197 A 
ATOM     14  N   UNL     1       3.512  40.835  50.075  1.00  0.00    -0.121 NA
ATOM     15  N   UNL     1       5.046  42.369  50.221  1.00  0.00    -0.254 N 
ATOM     16  N   UNL     1       4.456  40.588  49.074  1.00  0.00    -0.110 NA
ATOM     17  C   UNL     1       5.977  43.391  50.312  1.00  0.00     0.075 A 
ATOM     18  C   UNL     1       5.375  41.507  49.205  1.00  0.00     0.234 A 
ATOM     19  C   UNL     1       6.075  44.472  51.154  1.00  0.00     0.029 A 
ATOM     20  C   UNL     1       6.891  43.112  49.267  1.00  0.00     0.065 A 
ATOM     21  N   UNL     1       6.539  41.902  48.635  1.00  0.00    -0.322 N 
ATOM     22  C   UNL     1       7.175  45.306  50.938  1.00  0.00     0.002 A 
ATOM     23  C   UNL     1       7.985  43.920  49.075  1.00  0.00     0.028 A 
ATOM     24  C   UNL     1       8.116  45.035  49.917  1.00  0.00     0.002 A 
ATOM     25  H   UNL     1       6.826  41.682  47.693  1.00  0.00     0.170 HD
ENDBRANCH  12  13
ENDBRANCH   1  12
TORSDOF 4
ENDMDL
MODEL 4
REMARK VINA RESULT:    -8.588      2.350      4.586
REMARK INTER + INTRA:         -11.484
REMARK INTER:                 -10.895
REMARK INTRA:                  -0.589
REMARK UNBOUND:                -0.888
REMARK SMILES O=C(CSc1nnc2[nH]c3ccccc3n12)NC1CCCCC1
REMARK SMILES IDX 3 1 2 2 17 3 1 4 18 6 19 7 23 8 20 9 22 10 21 11 4 12 5 13
REMARK SMILES IDX 6 14 16 15 7 16 15 17 8 18 14 19 10 20 9 21 13 22 11 23
REMARK SMILES IDX 12 24
REMARK H PARENT 17 5 9 25
ROOT
ATOM      1  C   UNL     1       6.019  44.175  50.590  1.00  0.00     0.178 C 
ENDROOT
BRANCH   1   2
ATOM      2  C   UNL     1       7.326  44.915  50.371  1.00  0.00     0.230 C 
ATOM      3  N   UNL     1       7.556  45.956  51.250  1.00  0.00    -0.353 N 
ATOM      4  O   UNL     1       8.107  44.607  49.474  1.00  0.00    -0.274 OA
ATOM      5  H   UNL     1       7.008  45.967  52.110  1.00  0.00     0.163 HD
BRANCH   3   6
ATOM      6  C   UNL     1       8.801  46.716  51.223  1.00  0.00     0.082 C 
ATOM      7  C   UNL     1       8.533  48.189  51.541  1.00  0.00     0.025 C 
ATOM      8  C   UNL     1       9.863  46.102  52.158  1.00  0.00     0.025 C 
ATOM      9  C   UNL     1       8.141  48.430  53.001  1.00  0.00     0.002 C 
ATOM     10  C   UNL     1      10.141  46.932  53.412  1.00  0.00     0.002 C 
ATOM     11  C   UNL     1       8.862  47.514  53.991  1.00  0.00     0.000 C 
ENDBRANCH   3   6
ENDBRANCH   1   2
BRANCH   1  12
ATOM     12  S   UNL     1       4.704  45.332  51.071  1.00  0.00    -0.076 SA
BRANCH  12  13
ATOM     13  C   UNL     1       4.780  45.226  52.789  1.00  0.00     0.197 A 
ATOM     14  N   UNL     1       5.868  45.296  53.541  1.00  0.00    -0.121 NA
ATOM     15  N   UNL     1       3.706  45.071  53.597  1.00  0.00    -0.254 N 
ATOM     16  N   UNL     1       5.488  45.180  54.881  1.00  0.00    -0.110 NA
ATOM     17  C   UNL     1       2.324  44.980  53.597  1.00  0.00     0.075 A 
ATOM     18  C   UNL     1       4.191  45.019  54.880  1.00  0.00     0.234 A 
ATOM     19  C   UNL     1       1.403  44.987  52.578  1.00  0.00     0.029 A 
ATOM     20  C   UNL     1       1.988  44.891  54.970  1.00  0.00     0.065 A 
ATOM     21  N   UNL     1       3.165  44.849  55.747  1.00  0.00    -0.322 N 
ATOM     22  C   UNL     1       0.067  44.876  52.972  1.00  0.00     0.002 A 
ATOM     23  C   UNL     1       0.676  44.756  55.352  1.00  0.00     0.028 A 
ATOM     24  C   UNL     1      -0.292  44.761  54.336  1.00  0.00     0.002 A 
ATOM     25  H   UNL     1       3.179  45.115  56.720  1.00  0.00     0.170 HD
ENDBRANCH  12  13
ENDBRANCH   1  12
TORSDOF 4
ENDMDL
MODEL 5
REMARK VINA RESULT:    -8.301      2.271      5.999
REMARK INTER + INTRA:         -11.129
REMARK INTER:                 -10.241
REMARK INTRA:                  -0.888
REMARK UNBOUND:                -0.888
REMARK SMILES O=C(CSc1nnc2[nH]c3ccccc3n12)NC1CCCCC1
REMARK SMILES IDX 3 1 2 2 17 3 1 4 18 6 19 7 23 8 20 9 22 10 21 11 4 12 5 13
REMARK SMILES IDX 6 14 16 15 7 16 15 17 8 18 14 19 10 20 9 21 13 22 11 23
REMARK SMILES IDX 12 24
REMARK H PARENT 17 5 9 25
ROOT
ATOM      1  C   UNL     1       3.554  47.507  52.726  1.00  0.00     0.178 C 
ENDROOT
BRANCH   1   2
ATOM      2  C   UNL     1       2.856  46.557  51.770  1.00  0.00     0.230 C 
ATOM      3  N   UNL     1       1.912  45.736  52.357  1.00  0.00    -0.353 N 
ATOM      4  O   UNL     1       3.123  46.527  50.572  1.00  0.00    -0.274 OA
ATOM      5  H   UNL     1       1.565  46.010  53.276  1.00  0.00     0.163 HD
BRANCH   3   6
ATOM      6  C   UNL     1       1.098  44.822  51.564  1.00  0.00     0.082 C 
ATOM      7  C   UNL     1       1.886  43.551  51.241  1.00  0.00     0.025 C 
ATOM      8  C   UNL     1      -0.248  44.516  52.252  1.00  0.00     0.025 C 
ATOM      9  C   UNL     1       2.118  42.658  52.463  1.00  0.00     0.002 C 
ATOM     10  C   UNL     1      -0.352  43.094  52.807  1.00  0.00     0.002 C 
ATOM     11  C   UNL     1       0.951  42.650  53.450  1.00  0.00     0.000 C 
ENDBRANCH   3   6
ENDBRANCH   1   2
BRANCH   1  12
ATOM     12  S   UNL     1       4.759  46.612  53.749  1.00  0.00    -0.076 SA
BRANCH  12  13
ATOM     13  C   UNL     1       6.225  46.949  52.908  1.00  0.00     0.197 A 
ATOM     14  N   UNL     1       7.050  47.963  53.127  1.00  0.00    -0.121 NA
ATOM     15  N   UNL     1       6.730  46.191  51.909  1.00  0.00    -0.254 N 
ATOM     16  N   UNL     1       8.123  47.859  52.239  1.00  0.00    -0.110 NA
ATOM     17  C   UNL     1       6.518  45.028  51.186  1.00  0.00     0.075 A 
ATOM     18  C   UNL     1       7.888  46.804  51.505  1.00  0.00     0.234 A 
ATOM     19  C   UNL     1       5.515  44.090  51.228  1.00  0.00     0.029 A 
ATOM     20  C   UNL     1       7.639  44.954  50.324  1.00  0.00     0.065 A 
ATOM     21  N   UNL     1       8.444  46.100  50.488  1.00  0.00    -0.322 N 
ATOM     22  C   UNL     1       5.645  43.028  50.329  1.00  0.00     0.002 A 
ATOM     23  C   UNL     1       7.750  43.922  49.424  1.00  0.00     0.028 A 
ATOM     24  C   UNL     1       6.743  42.945  49.440  1.00  0.00     0.002 A 
ATOM     25  H   UNL     1       9.422  46.112  50.243  1.00  0.00     0.170 HD
ENDBRANCH  12  13
ENDBRANCH   1  12
TORSDOF 4
ENDMDL
MODEL 6
REMARK VINA RESULT:    -8.287      2.307      4.121
REMARK INTER + INTRA:         -11.113
REMARK INTER:                 -10.591
REMARK INTRA:                  -0.522
REMARK UNBOUND:                -0.888
REMARK SMILES O=C(CSc1nnc2[nH]c3ccccc3n12)NC1CCCCC1
REMARK SMILES IDX 3 1 2 2 17 3 1 4 18 6 19 7 23 8 20 9 22 10 21 11 4 12 5 13
REMARK SMILES IDX 6 14 16 15 7 16 15 17 8 18 14 19 10 20 9 21 13 22 11 23
REMARK SMILES IDX 12 24
REMARK H PARENT 17 5 9 25
ROOT
ATOM      1  C   UNL     1       7.559  43.684  49.772  1.00  0.00     0.178 C 
ENDROOT
BRANCH   1   2
ATOM      2  C   UNL     1       8.733  44.586  50.108  1.00  0.00     0.230 C 
ATOM      3  N   UNL     1       8.409  45.704  50.853  1.00  0.00    -0.353 N 
ATOM      4  O   UNL     1       9.876  44.333  49.736  1.00  0.00    -0.274 OA
ATOM      5  H   UNL     1       7.514  45.693  51.341  1.00  0.00     0.163 HD
BRANCH   3   6
ATOM      6  C   UNL     1       9.434  46.629  51.325  1.00  0.00     0.082 C 
ATOM      7  C   UNL     1       8.842  48.027  51.516  1.00  0.00     0.025 C 
ATOM      8  C   UNL     1      10.126  46.109  52.601  1.00  0.00     0.025 C 
ATOM      9  C   UNL     1       7.879  48.117  52.703  1.00  0.00     0.002 C 
ATOM     10  C   UNL     1       9.762  46.886  53.866  1.00  0.00     0.002 C 
ATOM     11  C   UNL     1       8.286  47.248  53.893  1.00  0.00     0.000 C 
ENDBRANCH   3   6
ENDBRANCH   1   2
BRANCH   1  12
ATOM     12  S   UNL     1       5.988  44.540  50.087  1.00  0.00    -0.076 SA
BRANCH  12  13
ATOM     13  C   UNL     1       5.038  43.260  50.743  1.00  0.00     0.197 A 
ATOM     14  N   UNL     1       5.150  41.969  50.471  1.00  0.00    -0.121 NA
ATOM     15  N   UNL     1       4.048  43.426  51.650  1.00  0.00    -0.254 N 
ATOM     16  N   UNL     1       4.201  41.274  51.225  1.00  0.00    -0.110 NA
ATOM     17  C   UNL     1       3.400  44.377  52.422  1.00  0.00     0.075 A 
ATOM     18  C   UNL     1       3.539  42.176  51.899  1.00  0.00     0.234 A 
ATOM     19  C   UNL     1       3.555  45.738  52.523  1.00  0.00     0.029 A 
ATOM     20  C   UNL     1       2.472  43.624  53.181  1.00  0.00     0.065 A 
ATOM     21  N   UNL     1       2.526  42.269  52.794  1.00  0.00    -0.322 N 
ATOM     22  C   UNL     1       2.706  46.375  53.432  1.00  0.00     0.002 A 
ATOM     23  C   UNL     1       1.621  44.257  54.054  1.00  0.00     0.028 A 
ATOM     24  C   UNL     1       1.753  45.648  54.184  1.00  0.00     0.002 A 
ATOM     25  H   UNL     1       2.218  41.522  53.398  1.00  0.00     0.170 HD
ENDBRANCH  12  13
ENDBRANCH   1  12
TORSDOF 4
ENDMDL
MODEL 7
REMARK VINA RESULT:    -8.180      1.841      3.741
REMARK INTER + INTRA:         -10.981
REMARK INTER:                 -10.274
REMARK INTRA:                  -0.707
REMARK UNBOUND:                -0.888
REMARK SMILES O=C(CSc1nnc2[nH]c3ccccc3n12)NC1CCCCC1
REMARK SMILES IDX 3 1 2 2 17 3 1 4 18 6 19 7 23 8 20 9 22 10 21 11 4 12 5 13
REMARK SMILES IDX 6 14 16 15 7 16 15 17 8 18 14 19 10 20 9 21 13 22 11 23
REMARK SMILES IDX 12 24
REMARK H PARENT 17 5 9 25
ROOT
ATOM      1  C   UNL     1       4.643  46.544  54.955  1.00  0.00     0.178 C 
ENDROOT
BRANCH   1   2
ATOM      2  C   UNL     1       5.336  47.307  53.841  1.00  0.00     0.230 C 
ATOM      3  N   UNL     1       6.532  46.757  53.420  1.00  0.00    -0.353 N 
ATOM      4  O   UNL     1       4.862  48.334  53.362  1.00  0.00    -0.274 OA
ATOM      5  H   UNL     1       6.708  45.784  53.668  1.00  0.00     0.163 HD
BRANCH   3   6
ATOM      6  C   UNL     1       7.282  47.325  52.305  1.00  0.00     0.082 C 
ATOM      7  C   UNL     1       8.357  48.284  52.820  1.00  0.00     0.025 C 
ATOM      8  C   UNL     1       7.868  46.226  51.395  1.00  0.00     0.025 C 
ATOM      9  C   UNL     1       9.506  47.573  53.539  1.00  0.00     0.002 C 
ATOM     10  C   UNL     1       9.387  46.080  51.496  1.00  0.00     0.002 C 
ATOM     11  C   UNL     1       9.866  46.216  52.933  1.00  0.00     0.000 C 
ENDBRANCH   3   6
ENDBRANCH   1   2
BRANCH   1  12
ATOM     12  S   UNL     1       5.074  44.781  54.884  1.00  0.00    -0.076 SA
BRANCH  12  13
ATOM     13  C   UNL     1       4.389  44.332  53.368  1.00  0.00     0.197 A 
ATOM     14  N   UNL     1       5.046  44.047  52.254  1.00  0.00    -0.121 NA
ATOM     15  N   UNL     1       3.064  44.198  53.133  1.00  0.00    -0.254 N 
ATOM     16  N   UNL     1       4.116  43.719  51.264  1.00  0.00    -0.110 NA
ATOM     17  C   UNL     1       1.820  44.258  53.740  1.00  0.00     0.075 A 
ATOM     18  C   UNL     1       2.938  43.846  51.813  1.00  0.00     0.234 A 
ATOM     19  C   UNL     1       1.438  44.560  55.025  1.00  0.00     0.029 A 
ATOM     20  C   UNL     1       0.920  43.895  52.709  1.00  0.00     0.065 A 
ATOM     21  N   UNL     1       1.626  43.709  51.503  1.00  0.00    -0.322 N 
ATOM     22  C   UNL     1       0.064  44.512  55.272  1.00  0.00     0.002 A 
ATOM     23  C   UNL     1      -0.432  43.874  52.949  1.00  0.00     0.028 A 
ATOM     24  C   UNL     1      -0.857  44.177  54.252  1.00  0.00     0.002 A 
ATOM     25  H   UNL     1       1.266  43.145  50.748  1.00  0.00     0.170 HD
ENDBRANCH  12  13
ENDBRANCH   1  12
TORSDOF 4
ENDMDL
MODEL 8
REMARK VINA RESULT:    -8.149      2.361      6.443
REMARK INTER + INTRA:         -10.943
REMARK INTER:                 -10.234
REMARK INTRA:                  -0.709
REMARK UNBOUND:                -0.888
REMARK SMILES O=C(CSc1nnc2[nH]c3ccccc3n12)NC1CCCCC1
REMARK SMILES IDX 3 1 2 2 17 3 1 4 18 6 19 7 23 8 20 9 22 10 21 11 4 12 5 13
REMARK SMILES IDX 6 14 16 15 7 16 15 17 8 18 14 19 10 20 9 21 13 22 11 23
REMARK SMILES IDX 12 24
REMARK H PARENT 17 5 9 25
ROOT
ATOM      1  C   UNL     1       5.291  43.882  50.907  1.00  0.00     0.178 C 
ENDROOT
BRANCH   1   2
ATOM      2  C   UNL     1       4.100  42.986  51.195  1.00  0.00     0.230 C 
ATOM      3  N   UNL     1       2.943  43.656  51.544  1.00  0.00    -0.353 N 
ATOM      4  O   UNL     1       4.174  41.762  51.124  1.00  0.00    -0.274 OA
ATOM      5  H   UNL     1       2.894  44.648  51.315  1.00  0.00     0.163 HD
BRANCH   3   6
ATOM      6  C   UNL     1       1.691  42.945  51.774  1.00  0.00     0.082 C 
ATOM      7  C   UNL     1       1.491  42.689  53.270  1.00  0.00     0.025 C 
ATOM      8  C   UNL     1       0.493  43.683  51.144  1.00  0.00     0.025 C 
ATOM      9  C   UNL     1       1.189  43.962  54.064  1.00  0.00     0.002 C 
ATOM     10  C   UNL     1      -0.443  44.335  52.164  1.00  0.00     0.002 C 
ATOM     11  C   UNL     1       0.334  44.975  53.303  1.00  0.00     0.000 C 
ENDBRANCH   3   6
ENDBRANCH   1   2
BRANCH   1  12
ATOM     12  S   UNL     1       4.770  45.618  50.791  1.00  0.00    -0.076 SA
BRANCH  12  13
ATOM     13  C   UNL     1       5.019  46.149  52.411  1.00  0.00     0.197 A 
ATOM     14  N   UNL     1       4.093  46.311  53.345  1.00  0.00    -0.121 NA
ATOM     15  N   UNL     1       6.225  46.458  52.941  1.00  0.00    -0.254 N 
ATOM     16  N   UNL     1       4.719  46.741  54.518  1.00  0.00    -0.110 NA
ATOM     17  C   UNL     1       7.581  46.492  52.662  1.00  0.00     0.075 A 
ATOM     18  C   UNL     1       5.991  46.845  54.236  1.00  0.00     0.234 A 
ATOM     19  C   UNL     1       8.293  46.197  51.525  1.00  0.00     0.029 A 
ATOM     20  C   UNL     1       8.170  46.905  53.882  1.00  0.00     0.065 A 
ATOM     21  N   UNL     1       7.161  47.185  54.828  1.00  0.00    -0.322 N 
ATOM     22  C   UNL     1       9.678  46.349  51.624  1.00  0.00     0.002 A 
ATOM     23  C   UNL     1       9.529  47.079  53.968  1.00  0.00     0.028 A 
ATOM     24  C   UNL     1      10.287  46.785  52.825  1.00  0.00     0.002 A 
ATOM     25  H   UNL     1       7.333  47.169  55.821  1.00  0.00     0.170 HD
ENDBRANCH  12  13
ENDBRANCH   1  12
TORSDOF 4
ENDMDL
MODEL 9
REMARK VINA RESULT:    -8.106      2.752      4.904
REMARK INTER + INTRA:         -10.890
REMARK INTER:                 -10.503
REMARK INTRA:                  -0.386
REMARK UNBOUND:                -0.888
REMARK SMILES O=C(CSc1nnc2[nH]c3ccccc3n12)NC1CCCCC1
REMARK SMILES IDX 3 1 2 2 17 3 1 4 18 6 19 7 23 8 20 9 22 10 21 11 4 12 5 13
REMARK SMILES IDX 6 14 16 15 7 16 15 17 8 18 14 19 10 20 9 21 13 22 11 23
REMARK SMILES IDX 12 24
REMARK H PARENT 17 5 9 25
ROOT
ATOM      1  C   UNL     1       5.092  44.295  52.576  1.00  0.00     0.178 C 
ENDROOT
BRANCH   1   2
ATOM      2  C   UNL     1       5.991  45.105  51.660  1.00  0.00     0.230 C 
ATOM      3  N   UNL     1       6.871  45.949  52.311  1.00  0.00    -0.353 N 
ATOM      4  O   UNL     1       5.928  45.013  50.437  1.00  0.00    -0.274 OA
ATOM      5  H   UNL     1       7.045  45.766  53.299  1.00  0.00     0.163 HD
BRANCH   3   6
ATOM      6  C   UNL     1       7.855  46.737  51.577  1.00  0.00     0.082 C 
ATOM      7  C   UNL     1       8.125  48.058  52.301  1.00  0.00     0.025 C 
ATOM      8  C   UNL     1       9.148  45.937  51.322  1.00  0.00     0.025 C 
ATOM      9  C   UNL     1       8.895  47.881  53.613  1.00  0.00     0.002 C 
ATOM     10  C   UNL     1      10.345  46.409  52.150  1.00  0.00     0.002 C 
ATOM     11  C   UNL     1       9.936  46.763  53.570  1.00  0.00     0.000 C 
ENDBRANCH   3   6
ENDBRANCH   1   2
BRANCH   1  12
ATOM     12  S   UNL     1       4.084  45.392  53.614  1.00  0.00    -0.076 SA
BRANCH  12  13
ATOM     13  C   UNL     1       2.546  45.252  52.850  1.00  0.00     0.197 A 
ATOM     14  N   UNL     1       2.310  45.177  51.548  1.00  0.00    -0.121 NA
ATOM     15  N   UNL     1       1.365  45.186  53.506  1.00  0.00    -0.254 N 
ATOM     16  N   UNL     1       0.932  45.059  51.355  1.00  0.00    -0.110 NA
ATOM     17  C   UNL     1       0.802  45.146  54.771  1.00  0.00     0.075 A 
ATOM     18  C   UNL     1       0.392  45.096  52.544  1.00  0.00     0.234 A 
ATOM     19  C   UNL     1       1.358  45.201  56.026  1.00  0.00     0.029 A 
ATOM     20  C   UNL     1      -0.584  45.001  54.522  1.00  0.00     0.065 A 
ATOM     21  N   UNL     1      -0.827  45.040  53.134  1.00  0.00    -0.322 N 
ATOM     22  C   UNL     1       0.454  45.127  57.090  1.00  0.00     0.002 A 
ATOM     23  C   UNL     1      -1.472  44.955  55.570  1.00  0.00     0.028 A 
ATOM     24  C   UNL     1      -0.938  45.008  56.866  1.00  0.00     0.002 A 
ATOM     25  H   UNL     1      -1.653  44.637  52.719  1.00  0.00     0.170 HD
ENDBRANCH  12  13
ENDBRANCH   1  12
TORSDOF 4
ENDMDL
MODEL 10
REMARK VINA RESULT:    -7.938      2.196      5.807
REMARK INTER + INTRA:         -10.682
REMARK INTER:                  -9.991
REMARK INTRA:                  -0.691
REMARK UNBOUND:                -0.888
REMARK SMILES O=C(CSc1nnc2[nH]c3ccccc3n12)NC1CCCCC1
REMARK SMILES IDX 3 1 2 2 17 3 1 4 18 6 19 7 23 8 20 9 22 10 21 11 4 12 5 13
REMARK SMILES IDX 6 14 16 15 7 16 15 17 8 18 14 19 10 20 9 21 13 22 11 23
REMARK SMILES IDX 12 24
REMARK H PARENT 17 5 9 25
ROOT
ATOM      1  C   UNL     1       2.155  44.866  51.289  1.00  0.00     0.178 C 
ENDROOT
BRANCH   1   2
ATOM      2  C   UNL     1       2.732  43.506  51.638  1.00  0.00     0.230 C 
ATOM      3  N   UNL     1       3.399  42.878  50.603  1.00  0.00    -0.353 N 
ATOM      4  O   UNL     1       2.604  43.010  52.754  1.00  0.00    -0.274 OA
ATOM      5  H   UNL     1       3.691  43.460  49.818  1.00  0.00     0.163 HD
BRANCH   3   6
ATOM      6  C   UNL     1       4.078  41.601  50.797  1.00  0.00     0.082 C 
ATOM      7  C   UNL     1       3.651  40.602  49.720  1.00  0.00     0.025 C 
ATOM      8  C   UNL     1       5.609  41.775  50.858  1.00  0.00     0.025 C 
ATOM      9  C   UNL     1       4.191  40.947  48.329  1.00  0.00     0.002 C 
ATOM     10  C   UNL     1       6.345  41.240  49.628  1.00  0.00     0.002 C 
ATOM     11  C   UNL     1       5.592  41.558  48.346  1.00  0.00     0.000 C 
ENDBRANCH   3   6
ENDBRANCH   1   2
BRANCH   1  12
ATOM     12  S   UNL     1       3.486  46.069  51.005  1.00  0.00    -0.076 SA
BRANCH  12  13
ATOM     13  C   UNL     1       4.002  46.381  52.619  1.00  0.00     0.197 A 
ATOM     14  N   UNL     1       3.230  46.514  53.688  1.00  0.00    -0.121 NA
ATOM     15  N   UNL     1       5.293  46.516  53.001  1.00  0.00    -0.254 N 
ATOM     16  N   UNL     1       4.046  46.745  54.798  1.00  0.00    -0.110 NA
ATOM     17  C   UNL     1       6.596  46.462  52.536  1.00  0.00     0.075 A 
ATOM     18  C   UNL     1       5.273  46.768  54.349  1.00  0.00     0.234 A 
ATOM     19  C   UNL     1       7.117  46.240  51.284  1.00  0.00     0.029 A 
ATOM     20  C   UNL     1       7.381  46.674  53.696  1.00  0.00     0.065 A 
ATOM     21  N   UNL     1       6.541  46.930  54.799  1.00  0.00    -0.322 N 
ATOM     22  C   UNL     1       8.511  46.256  51.199  1.00  0.00     0.002 A 
ATOM     23  C   UNL     1       8.750  46.715  53.603  1.00  0.00     0.028 A 
ATOM     24  C   UNL     1       9.316  46.491  52.339  1.00  0.00     0.002 A 
ATOM     25  H   UNL     1       6.840  46.782  55.751  1.00  0.00     0.170 HD
ENDBRANCH  12  13
ENDBRANCH   1  12
TORSDOF 4
ENDMDL
