MODEL 1
REMARK VINA RESULT:    -8.610      0.000      0.000
REMARK INTER + INTRA:         -11.266
REMARK INTER:                 -10.623
REMARK INTRA:                  -0.643
REMARK UNBOUND:                -0.643
REMARK SMILES c1ccc(NC2CCN(c3ccnc(N4CCCCC4)n3)C2)cc1
REMARK SMILES IDX 6 1 7 2 8 3 9 4 22 5 5 6 4 8 1 9 2 10 24 11 3 12 23 13 10 14
REMARK SMILES IDX 11 15 21 16 12 17 14 18 13 19 15 20 16 21 20 22 17 23 19 24
REMARK SMILES IDX 18 25
REMARK H PARENT 5 7
ROOT
ATOM      1  C   UNL     1       7.736  45.092  49.981  1.00  0.00     0.100 C 
ATOM      2  C   UNL     1       8.021  43.738  49.332  1.00  0.00     0.048 C 
ATOM      3  C   UNL     1       6.658  43.058  49.349  1.00  0.00     0.120 C 
ATOM      4  N   UNL     1       6.082  43.493  50.611  1.00  0.00    -0.354 N 
ATOM      5  C   UNL     1       6.710  44.734  51.081  1.00  0.00     0.142 C 
ENDROOT
BRANCH   1   6
ATOM      6  N   UNL     1       8.978  45.677  50.489  1.00  0.00    -0.380 N 
ATOM      7  H   UNL     1       9.752  45.016  50.483  1.00  0.00     0.160 HD
BRANCH   6   8
ATOM      8  C   UNL     1       8.971  46.431  51.670  1.00  0.00     0.034 A 
ATOM      9  C   UNL     1       9.170  47.951  54.043  1.00  0.00     0.000 A 
ATOM     10  C   UNL     1       8.305  48.344  53.027  1.00  0.00     0.002 A 
ATOM     11  C   UNL     1       9.960  46.820  53.871  1.00  0.00     0.002 A 
ATOM     12  C   UNL     1       8.219  47.599  51.846  1.00  0.00     0.025 A 
ATOM     13  C   UNL     1       9.869  46.078  52.689  1.00  0.00     0.025 A 
ENDBRANCH   6   8
ENDBRANCH   1   6
BRANCH   4  14
ATOM     14  C   UNL     1       4.806  43.187  51.027  1.00  0.00     0.134 A 
ATOM     15  C   UNL     1       4.079  42.166  50.457  1.00  0.00     0.067 A 
ATOM     16  N   UNL     1       4.285  43.899  52.044  1.00  0.00    -0.196 NA
ATOM     17  C   UNL     1       2.823  41.943  50.964  1.00  0.00     0.119 A 
ATOM     18  C   UNL     1       3.048  43.627  52.495  1.00  0.00     0.227 A 
ATOM     19  N   UNL     1       2.292  42.655  51.967  1.00  0.00    -0.221 NA
BRANCH  18  20
ATOM     20  N   UNL     1       2.533  44.391  53.524  1.00  0.00    -0.341 N 
ATOM     21  C   UNL     1       3.429  44.792  54.598  1.00  0.00     0.119 C 
ATOM     22  C   UNL     1       1.091  44.410  53.736  1.00  0.00     0.119 C 
ATOM     23  C   UNL     1       2.780  45.899  55.425  1.00  0.00     0.022 C 
ATOM     24  C   UNL     1       0.769  44.348  55.228  1.00  0.00     0.022 C 
ATOM     25  C   UNL     1       1.438  45.471  56.017  1.00  0.00     0.004 C 
ENDBRANCH  18  20
ENDBRANCH   4  14
TORSDOF 4
ENDMDL
MODEL 2
REMARK VINA RESULT:    -8.268      2.153      7.087
REMARK INTER + INTRA:         -10.845
REMARK INTER:                 -10.274
REMARK INTRA:                  -0.570
REMARK UNBOUND:                -0.643
REMARK SMILES c1ccc(NC2CCN(c3ccnc(N4CCCCC4)n3)C2)cc1
REMARK SMILES IDX 6 1 7 2 8 3 9 4 22 5 5 6 4 8 1 9 2 10 24 11 3 12 23 13 10 14
REMARK SMILES IDX 11 15 21 16 12 17 14 18 13 19 15 20 16 21 20 22 17 23 19 24
REMARK SMILES IDX 18 25
REMARK H PARENT 5 7
ROOT
ATOM      1  C   UNL     1       3.137  42.646  51.347  1.00  0.00     0.100 C 
ATOM      2  C   UNL     1       2.113  42.525  52.476  1.00  0.00     0.048 C 
ATOM      3  C   UNL     1       2.234  43.865  53.190  1.00  0.00     0.120 C 
ATOM      4  N   UNL     1       3.656  44.156  53.120  1.00  0.00    -0.354 N 
ATOM      5  C   UNL     1       4.293  43.423  52.019  1.00  0.00     0.142 C 
ENDROOT
BRANCH   1   6
ATOM      6  N   UNL     1       3.513  41.316  50.865  1.00  0.00    -0.380 N 
ATOM      7  H   UNL     1       4.016  40.774  51.565  1.00  0.00     0.160 HD
BRANCH   6   8
ATOM      8  C   UNL     1       4.093  41.162  49.599  1.00  0.00     0.034 A 
ATOM      9  C   UNL     1       5.076  40.914  46.963  1.00  0.00     0.000 A 
ATOM     10  C   UNL     1       5.815  41.591  47.927  1.00  0.00     0.002 A 
ATOM     11  C   UNL     1       3.834  40.385  47.296  1.00  0.00     0.002 A 
ATOM     12  C   UNL     1       5.319  41.727  49.229  1.00  0.00     0.025 A 
ATOM     13  C   UNL     1       3.345  40.521  48.599  1.00  0.00     0.025 A 
ENDBRANCH   6   8
ENDBRANCH   1   6
BRANCH   4  14
ATOM     14  C   UNL     1       4.232  45.321  53.573  1.00  0.00     0.134 A 
ATOM     15  C   UNL     1       3.559  46.194  54.398  1.00  0.00     0.067 A 
ATOM     16  N   UNL     1       5.503  45.580  53.213  1.00  0.00    -0.196 NA
ATOM     17  C   UNL     1       4.240  47.316  54.798  1.00  0.00     0.119 A 
ATOM     18  C   UNL     1       6.114  46.697  53.643  1.00  0.00     0.227 A 
ATOM     19  N   UNL     1       5.500  47.588  54.435  1.00  0.00    -0.221 NA
BRANCH  18  20
ATOM     20  N   UNL     1       7.410  46.945  53.236  1.00  0.00    -0.341 N 
ATOM     21  C   UNL     1       7.805  46.522  51.901  1.00  0.00     0.119 C 
ATOM     22  C   UNL     1       8.428  47.210  54.245  1.00  0.00     0.119 C 
ATOM     23  C   UNL     1       9.124  47.188  51.518  1.00  0.00     0.022 C 
ATOM     24  C   UNL     1       9.730  46.493  53.893  1.00  0.00     0.022 C 
ATOM     25  C   UNL     1      10.246  46.867  52.504  1.00  0.00     0.004 C 
ENDBRANCH  18  20
ENDBRANCH   4  14
TORSDOF 4
ENDMDL
MODEL 3
REMARK VINA RESULT:    -8.227      2.251      3.446
REMARK INTER + INTRA:         -10.794
REMARK INTER:                 -10.349
REMARK INTRA:                  -0.445
REMARK UNBOUND:                -0.643
REMARK SMILES c1ccc(NC2CCN(c3ccnc(N4CCCCC4)n3)C2)cc1
REMARK SMILES IDX 6 1 7 2 8 3 9 4 22 5 5 6 4 8 1 9 2 10 24 11 3 12 23 13 10 14
REMARK SMILES IDX 11 15 21 16 12 17 14 18 13 19 15 20 16 21 20 22 17 23 19 24
REMARK SMILES IDX 18 25
REMARK H PARENT 5 7
ROOT
ATOM      1  C   UNL     1       5.103  46.277  52.536  1.00  0.00     0.100 C 
ATOM      2  C   UNL     1       5.803  44.919  52.578  1.00  0.00     0.048 C 
ATOM      3  C   UNL     1       4.640  43.935  52.536  1.00  0.00     0.120 C 
ATOM      4  N   UNL     1       3.618  44.590  53.335  1.00  0.00    -0.354 N 
ATOM      5  C   UNL     1       3.845  46.039  53.403  1.00  0.00     0.142 C 
ENDROOT
BRANCH   1   6
ATOM      6  N   UNL     1       5.994  47.318  53.051  1.00  0.00    -0.380 N 
ATOM      7  H   UNL     1       5.746  48.246  52.715  1.00  0.00     0.160 HD
BRANCH   6   8
ATOM      8  C   UNL     1       7.383  47.131  53.029  1.00  0.00     0.034 A 
ATOM      9  C   UNL     1      10.192  46.908  52.835  1.00  0.00     0.000 A 
ATOM     10  C   UNL     1       9.579  47.004  54.080  1.00  0.00     0.002 A 
ATOM     11  C   UNL     1       9.415  46.952  51.683  1.00  0.00     0.002 A 
ATOM     12  C   UNL     1       8.188  47.131  54.173  1.00  0.00     0.025 A 
ATOM     13  C   UNL     1       8.026  47.077  51.783  1.00  0.00     0.025 A 
ENDBRANCH   6   8
ENDBRANCH   1   6
BRANCH   4  14
ATOM     14  C   UNL     1       2.344  44.101  53.516  1.00  0.00     0.134 A 
ATOM     15  C   UNL     1       1.914  42.944  52.906  1.00  0.00     0.067 A 
ATOM     16  N   UNL     1       1.520  44.772  54.342  1.00  0.00    -0.196 NA
ATOM     17  C   UNL     1       0.628  42.545  53.171  1.00  0.00     0.119 A 
ATOM     18  C   UNL     1       0.272  44.324  54.562  1.00  0.00     0.227 A 
ATOM     19  N   UNL     1      -0.202  43.213  53.983  1.00  0.00    -0.221 NA
BRANCH  18  20
ATOM     20  N   UNL     1      -0.556  45.049  55.398  1.00  0.00    -0.341 N 
ATOM     21  C   UNL     1       0.024  45.646  56.591  1.00  0.00     0.119 C 
ATOM     22  C   UNL     1      -1.997  44.846  55.313  1.00  0.00     0.119 C 
ATOM     23  C   UNL     1      -0.942  46.676  57.173  1.00  0.00     0.022 C 
ATOM     24  C   UNL     1      -2.615  44.811  56.710  1.00  0.00     0.022 C 
ATOM     25  C   UNL     1      -2.301  46.069  57.519  1.00  0.00     0.004 C 
ENDBRANCH  18  20
ENDBRANCH   4  14
TORSDOF 4
ENDMDL
MODEL 4
REMARK VINA RESULT:    -8.209      2.426      4.058
REMARK INTER + INTRA:         -10.772
REMARK INTER:                 -10.125
REMARK INTRA:                  -0.647
REMARK UNBOUND:                -0.643
REMARK SMILES c1ccc(NC2CCN(c3ccnc(N4CCCCC4)n3)C2)cc1
REMARK SMILES IDX 6 1 7 2 8 3 9 4 22 5 5 6 4 8 1 9 2 10 24 11 3 12 23 13 10 14
REMARK SMILES IDX 11 15 21 16 12 17 14 18 13 19 15 20 16 21 20 22 17 23 19 24
REMARK SMILES IDX 18 25
REMARK H PARENT 5 7
ROOT
ATOM      1  C   UNL     1       5.505  46.326  53.406  1.00  0.00     0.100 C 
ATOM      2  C   UNL     1       4.999  47.172  54.575  1.00  0.00     0.048 C 
ATOM      3  C   UNL     1       3.821  46.359  55.097  1.00  0.00     0.120 C 
ATOM      4  N   UNL     1       3.225  45.816  53.888  1.00  0.00    -0.354 N 
ATOM      5  C   UNL     1       4.197  45.782  52.788  1.00  0.00     0.142 C 
ENDROOT
BRANCH   1   6
ATOM      6  N   UNL     1       6.298  47.152  52.495  1.00  0.00    -0.380 N 
ATOM      7  H   UNL     1       5.859  47.260  51.583  1.00  0.00     0.160 HD
BRANCH   6   8
ATOM      8  C   UNL     1       7.676  46.937  52.365  1.00  0.00     0.034 A 
ATOM      9  C   UNL     1      10.457  46.439  52.309  1.00  0.00     0.000 A 
ATOM     10  C   UNL     1       9.635  45.952  51.298  1.00  0.00     0.002 A 
ATOM     11  C   UNL     1       9.897  47.148  53.366  1.00  0.00     0.002 A 
ATOM     12  C   UNL     1       8.256  46.186  51.336  1.00  0.00     0.025 A 
ATOM     13  C   UNL     1       8.519  47.380  53.397  1.00  0.00     0.025 A 
ENDBRANCH   6   8
ENDBRANCH   1   6
BRANCH   4  14
ATOM     14  C   UNL     1       2.163  44.942  53.872  1.00  0.00     0.134 A 
ATOM     15  C   UNL     1       2.167  43.803  53.099  1.00  0.00     0.067 A 
ATOM     16  N   UNL     1       1.110  45.211  54.668  1.00  0.00    -0.196 NA
ATOM     17  C   UNL     1       1.057  42.998  53.175  1.00  0.00     0.119 A 
ATOM     18  C   UNL     1       0.055  44.379  54.698  1.00  0.00     0.227 A 
ATOM     19  N   UNL     1       0.001  43.265  53.955  1.00  0.00    -0.221 NA
BRANCH  18  20
ATOM     20  N   UNL     1      -1.018  44.696  55.507  1.00  0.00    -0.341 N 
ATOM     21  C   UNL     1      -0.812  45.663  56.575  1.00  0.00     0.119 C 
ATOM     22  C   UNL     1      -2.156  43.787  55.560  1.00  0.00     0.119 C 
ATOM     23  C   UNL     1      -2.162  46.136  57.110  1.00  0.00     0.022 C 
ATOM     24  C   UNL     1      -2.658  43.640  56.995  1.00  0.00     0.022 C 
ATOM     25  C   UNL     1      -3.019  44.982  57.628  1.00  0.00     0.004 C 
ENDBRANCH  18  20
ENDBRANCH   4  14
TORSDOF 4
ENDMDL
MODEL 5
REMARK VINA RESULT:    -8.134      1.739      3.129
REMARK INTER + INTRA:         -10.679
REMARK INTER:                 -10.496
REMARK INTRA:                  -0.183
REMARK UNBOUND:                -0.643
REMARK SMILES c1ccc(NC2CCN(c3ccnc(N4CCCCC4)n3)C2)cc1
REMARK SMILES IDX 6 1 7 2 8 3 9 4 22 5 5 6 4 8 1 9 2 10 24 11 3 12 23 13 10 14
REMARK SMILES IDX 11 15 21 16 12 17 14 18 13 19 15 20 16 21 20 22 17 23 19 24
REMARK SMILES IDX 18 25
REMARK H PARENT 5 7
ROOT
ATOM      1  C   UNL     1       6.012  45.225  50.541  1.00  0.00     0.100 C 
ATOM      2  C   UNL     1       6.007  43.697  50.504  1.00  0.00     0.048 C 
ATOM      3  C   UNL     1       4.758  43.342  51.301  1.00  0.00     0.120 C 
ATOM      4  N   UNL     1       4.734  44.345  52.352  1.00  0.00    -0.354 N 
ATOM      5  C   UNL     1       5.506  45.533  51.969  1.00  0.00     0.142 C 
ENDROOT
BRANCH   1   6
ATOM      6  N   UNL     1       7.358  45.730  50.262  1.00  0.00    -0.380 N 
ATOM      7  H   UNL     1       7.900  45.094  49.680  1.00  0.00     0.160 HD
BRANCH   6   8
ATOM      8  C   UNL     1       8.143  46.255  51.296  1.00  0.00     0.034 A 
ATOM      9  C   UNL     1       9.892  47.310  53.248  1.00  0.00     0.000 A 
ATOM     10  C   UNL     1       8.659  47.908  53.013  1.00  0.00     0.002 A 
ATOM     11  C   UNL     1      10.273  46.205  52.494  1.00  0.00     0.002 A 
ATOM     12  C   UNL     1       7.800  47.393  52.035  1.00  0.00     0.025 A 
ATOM     13  C   UNL     1       9.410  45.695  51.520  1.00  0.00     0.025 A 
ENDBRANCH   6   8
ENDBRANCH   1   6
BRANCH   4  14
ATOM     14  C   UNL     1       3.728  44.469  53.282  1.00  0.00     0.134 A 
ATOM     15  C   UNL     1       3.933  45.073  54.503  1.00  0.00     0.067 A 
ATOM     16  N   UNL     1       2.506  44.008  52.957  1.00  0.00    -0.196 NA
ATOM     17  C   UNL     1       2.852  45.153  55.344  1.00  0.00     0.119 A 
ATOM     18  C   UNL     1       1.487  44.121  53.827  1.00  0.00     0.227 A 
ATOM     19  N   UNL     1       1.635  44.686  55.033  1.00  0.00    -0.221 NA
BRANCH  18  20
ATOM     20  N   UNL     1       0.251  43.617  53.471  1.00  0.00    -0.341 N 
ATOM     21  C   UNL     1       0.060  43.168  52.101  1.00  0.00     0.119 C 
ATOM     22  C   UNL     1      -0.905  43.932  54.301  1.00  0.00     0.119 C 
ATOM     23  C   UNL     1      -1.217  42.336  52.004  1.00  0.00     0.022 C 
ATOM     24  C   UNL     1      -2.120  44.245  53.429  1.00  0.00     0.022 C 
ATOM     25  C   UNL     1      -2.452  43.110  52.461  1.00  0.00     0.004 C 
ENDBRANCH  18  20
ENDBRANCH   4  14
TORSDOF 4
ENDMDL
MODEL 6
REMARK VINA RESULT:    -8.105      1.245      6.874
REMARK INTER + INTRA:         -10.643
REMARK INTER:                  -9.955
REMARK INTRA:                  -0.689
REMARK UNBOUND:                -0.643
REMARK SMILES c1ccc(NC2CCN(c3ccnc(N4CCCCC4)n3)C2)cc1
REMARK SMILES IDX 6 1 7 2 8 3 9 4 22 5 5 6 4 8 1 9 2 10 24 11 3 12 23 13 10 14
REMARK SMILES IDX 11 15 21 16 12 17 14 18 13 19 15 20 16 21 20 22 17 23 19 24
REMARK SMILES IDX 18 25
REMARK H PARENT 5 7
ROOT
ATOM      1  C   UNL     1       2.459  43.482  52.721  1.00  0.00     0.100 C 
ATOM      2  C   UNL     1       2.411  42.335  51.712  1.00  0.00     0.048 C 
ATOM      3  C   UNL     1       3.852  42.250  51.226  1.00  0.00     0.120 C 
ATOM      4  N   UNL     1       4.275  43.640  51.183  1.00  0.00    -0.354 N 
ATOM      5  C   UNL     1       3.448  44.472  52.065  1.00  0.00     0.142 C 
ENDROOT
BRANCH   1   6
ATOM      6  N   UNL     1       1.115  44.027  52.925  1.00  0.00    -0.380 N 
ATOM      7  H   UNL     1       0.898  44.782  52.279  1.00  0.00     0.160 HD
BRANCH   6   8
ATOM      8  C   UNL     1       0.665  44.327  54.217  1.00  0.00     0.034 A 
ATOM      9  C   UNL     1      -0.145  45.120  56.805  1.00  0.00     0.000 A 
ATOM     10  C   UNL     1      -1.067  44.579  55.916  1.00  0.00     0.002 A 
ATOM     11  C   UNL     1       1.174  45.297  56.402  1.00  0.00     0.002 A 
ATOM     12  C   UNL     1      -0.667  44.201  54.629  1.00  0.00     0.025 A 
ATOM     13  C   UNL     1       1.568  44.916  55.117  1.00  0.00     0.025 A 
ENDBRANCH   6   8
ENDBRANCH   1   6
BRANCH   4  14
ATOM     14  C   UNL     1       5.550  44.053  50.871  1.00  0.00     0.134 A 
ATOM     15  C   UNL     1       6.208  43.602  49.749  1.00  0.00     0.067 A 
ATOM     16  N   UNL     1       6.142  44.948  51.684  1.00  0.00    -0.196 NA
ATOM     17  C   UNL     1       7.471  44.094  49.532  1.00  0.00     0.119 A 
ATOM     18  C   UNL     1       7.381  45.392  51.412  1.00  0.00     0.227 A 
ATOM     19  N   UNL     1       8.072  44.976  50.342  1.00  0.00    -0.221 NA
BRANCH  18  20
ATOM     20  N   UNL     1       7.969  46.293  52.279  1.00  0.00    -0.341 N 
ATOM     21  C   UNL     1       9.365  46.091  52.636  1.00  0.00     0.119 C 
ATOM     22  C   UNL     1       7.117  47.124  53.119  1.00  0.00     0.119 C 
ATOM     23  C   UNL     1       9.916  47.354  53.295  1.00  0.00     0.022 C 
ATOM     24  C   UNL     1       7.692  47.227  54.530  1.00  0.00     0.022 C 
ATOM     25  C   UNL     1       9.126  47.754  54.540  1.00  0.00     0.004 C 
ENDBRANCH  18  20
ENDBRANCH   4  14
TORSDOF 4
ENDMDL
MODEL 7
REMARK VINA RESULT:    -8.057      2.264      3.692
REMARK INTER + INTRA:         -10.585
REMARK INTER:                 -10.170
REMARK INTRA:                  -0.415
REMARK UNBOUND:                -0.643
REMARK SMILES c1ccc(NC2CCN(c3ccnc(N4CCCCC4)n3)C2)cc1
REMARK SMILES IDX 6 1 7 2 8 3 9 4 22 5 5 6 4 8 1 9 2 10 24 11 3 12 23 13 10 14
REMARK SMILES IDX 11 15 21 16 12 17 14 18 13 19 15 20 16 21 20 22 17 23 19 24
REMARK SMILES IDX 18 25
REMARK H PARENT 5 7
ROOT
ATOM      1  C   UNL     1       5.788  46.417  54.598  1.00  0.00     0.100 C 
ATOM      2  C   UNL     1       4.639  47.367  54.258  1.00  0.00     0.048 C 
ATOM      3  C   UNL     1       3.589  46.433  53.668  1.00  0.00     0.120 C 
ATOM      4  N   UNL     1       4.380  45.467  52.923  1.00  0.00    -0.354 N 
ATOM      5  C   UNL     1       5.759  45.412  53.423  1.00  0.00     0.142 C 
ENDROOT
BRANCH   1   6
ATOM      6  N   UNL     1       7.040  47.165  54.713  1.00  0.00    -0.380 N 
ATOM      7  H   UNL     1       6.898  48.113  55.056  1.00  0.00     0.160 HD
BRANCH   6   8
ATOM      8  C   UNL     1       7.974  47.144  53.669  1.00  0.00     0.034 A 
ATOM      9  C   UNL     1       9.874  46.891  51.595  1.00  0.00     0.000 A 
ATOM     10  C   UNL     1       8.698  47.602  51.386  1.00  0.00     0.002 A 
ATOM     11  C   UNL     1      10.097  46.279  52.823  1.00  0.00     0.002 A 
ATOM     12  C   UNL     1       7.750  47.713  52.410  1.00  0.00     0.025 A 
ATOM     13  C   UNL     1       9.148  46.395  53.843  1.00  0.00     0.025 A 
ENDBRANCH   6   8
ENDBRANCH   1   6
BRANCH   4  14
ATOM     14  C   UNL     1       3.856  44.370  52.277  1.00  0.00     0.134 A 
ATOM     15  C   UNL     1       4.647  43.500  51.561  1.00  0.00     0.067 A 
ATOM     16  N   UNL     1       2.533  44.145  52.385  1.00  0.00    -0.196 NA
ATOM     17  C   UNL     1       4.016  42.433  50.970  1.00  0.00     0.119 A 
ATOM     18  C   UNL     1       1.978  43.078  51.783  1.00  0.00     0.227 A 
ATOM     19  N   UNL     1       2.699  42.207  51.063  1.00  0.00    -0.221 NA
BRANCH  18  20
ATOM     20  N   UNL     1       0.615  42.887  51.895  1.00  0.00    -0.341 N 
ATOM     21  C   UNL     1      -0.240  43.403  50.836  1.00  0.00     0.119 C 
ATOM     22  C   UNL     1       0.049  42.583  53.202  1.00  0.00     0.119 C 
ATOM     23  C   UNL     1      -1.635  42.794  50.957  1.00  0.00     0.022 C 
ATOM     24  C   UNL     1      -1.255  43.352  53.413  1.00  0.00     0.022 C 
ATOM     25  C   UNL     1      -2.279  43.079  52.313  1.00  0.00     0.004 C 
ENDBRANCH  18  20
ENDBRANCH   4  14
TORSDOF 4
ENDMDL
MODEL 8
REMARK VINA RESULT:    -8.004      2.627      4.615
REMARK INTER + INTRA:         -10.519
REMARK INTER:                  -9.880
REMARK INTRA:                  -0.638
REMARK UNBOUND:                -0.643
REMARK SMILES c1ccc(NC2CCN(c3ccnc(N4CCCCC4)n3)C2)cc1
REMARK SMILES IDX 6 1 7 2 8 3 9 4 22 5 5 6 4 8 1 9 2 10 24 11 3 12 23 13 10 14
REMARK SMILES IDX 11 15 21 16 12 17 14 18 13 19 15 20 16 21 20 22 17 23 19 24
REMARK SMILES IDX 18 25
REMARK H PARENT 5 7
ROOT
ATOM      1  C   UNL     1       5.335  46.196  53.261  1.00  0.00     0.100 C 
ATOM      2  C   UNL     1       5.859  45.445  54.485  1.00  0.00     0.048 C 
ATOM      3  C   UNL     1       4.620  44.721  54.996  1.00  0.00     0.120 C 
ATOM      4  N   UNL     1       3.550  45.675  54.755  1.00  0.00    -0.354 N 
ATOM      5  C   UNL     1       3.922  46.636  53.710  1.00  0.00     0.142 C 
ENDROOT
BRANCH   1   6
ATOM      6  N   UNL     1       6.230  47.306  52.931  1.00  0.00    -0.380 N 
ATOM      7  H   UNL     1       5.830  47.938  52.240  1.00  0.00     0.160 HD
BRANCH   6   8
ATOM      8  C   UNL     1       7.585  47.065  52.666  1.00  0.00     0.034 A 
ATOM      9  C   UNL     1      10.334  46.510  52.333  1.00  0.00     0.000 A 
ATOM     10  C   UNL     1       9.411  46.074  51.390  1.00  0.00     0.002 A 
ATOM     11  C   UNL     1       9.893  47.197  53.459  1.00  0.00     0.002 A 
ATOM     12  C   UNL     1       8.047  46.336  51.565  1.00  0.00     0.025 A 
ATOM     13  C   UNL     1       8.530  47.457  53.627  1.00  0.00     0.025 A 
ENDBRANCH   6   8
ENDBRANCH   1   6
BRANCH   4  14
ATOM     14  C   UNL     1       2.218  45.421  54.991  1.00  0.00     0.134 A 
ATOM     15  C   UNL     1       1.661  45.554  56.243  1.00  0.00     0.067 A 
ATOM     16  N   UNL     1       1.448  45.064  53.946  1.00  0.00    -0.196 NA
ATOM     17  C   UNL     1       0.320  45.288  56.355  1.00  0.00     0.119 A 
ATOM     18  C   UNL     1       0.138  44.821  54.124  1.00  0.00     0.227 A 
ATOM     19  N   UNL     1      -0.452  44.920  55.323  1.00  0.00    -0.221 NA
BRANCH  18  20
ATOM     20  N   UNL     1      -0.620  44.434  53.036  1.00  0.00    -0.341 N 
ATOM     21  C   UNL     1      -1.721  43.509  53.260  1.00  0.00     0.119 C 
ATOM     22  C   UNL     1      -0.069  44.596  51.697  1.00  0.00     0.119 C 
ATOM     23  C   UNL     1      -2.633  43.487  52.035  1.00  0.00     0.022 C 
ATOM     24  C   UNL     1      -0.389  43.377  50.834  1.00  0.00     0.022 C 
ATOM     25  C   UNL     1      -1.888  43.091  50.762  1.00  0.00     0.004 C 
ENDBRANCH  18  20
ENDBRANCH   4  14
TORSDOF 4
ENDMDL
MODEL 9
REMARK VINA RESULT:    -7.884      1.997      4.890
REMARK INTER + INTRA:         -10.371
REMARK INTER:                  -9.739
REMARK INTRA:                  -0.632
REMARK UNBOUND:                -0.643
REMARK SMILES c1ccc(NC2CCN(c3ccnc(N4CCCCC4)n3)C2)cc1
REMARK SMILES IDX 6 1 7 2 8 3 9 4 22 5 5 6 4 8 1 9 2 10 24 11 3 12 23 13 10 14
REMARK SMILES IDX 11 15 21 16 12 17 14 18 13 19 15 20 16 21 20 22 17 23 19 24
REMARK SMILES IDX 18 25
REMARK H PARENT 5 7
ROOT
ATOM      1  C   UNL     1       5.848  46.728  54.955  1.00  0.00     0.100 C 
ATOM      2  C   UNL     1       4.735  47.713  54.596  1.00  0.00     0.048 C 
ATOM      3  C   UNL     1       3.583  46.797  54.205  1.00  0.00     0.120 C 
ATOM      4  N   UNL     1       4.244  45.698  53.521  1.00  0.00    -0.354 N 
ATOM      5  C   UNL     1       5.655  45.602  53.913  1.00  0.00     0.142 C 
ENDROOT
BRANCH   1   6
ATOM      6  N   UNL     1       7.150  47.393  54.882  1.00  0.00    -0.380 N 
ATOM      7  H   UNL     1       7.092  48.389  55.085  1.00  0.00     0.160 HD
BRANCH   6   8
ATOM      8  C   UNL     1       8.006  47.151  53.799  1.00  0.00     0.034 A 
ATOM      9  C   UNL     1       9.731  46.874  51.579  1.00  0.00     0.000 A 
ATOM     10  C   UNL     1      10.031  46.248  52.785  1.00  0.00     0.002 A 
ATOM     11  C   UNL     1       8.589  47.662  51.482  1.00  0.00     0.002 A 
ATOM     12  C   UNL     1       9.184  46.400  53.888  1.00  0.00     0.025 A 
ATOM     13  C   UNL     1       7.746  47.808  52.586  1.00  0.00     0.025 A 
ENDBRANCH   6   8
ENDBRANCH   1   6
BRANCH   4  14
ATOM     14  C   UNL     1       3.599  44.576  53.053  1.00  0.00     0.134 A 
ATOM     15  C   UNL     1       2.362  44.197  53.524  1.00  0.00     0.067 A 
ATOM     16  N   UNL     1       4.199  43.860  52.084  1.00  0.00    -0.196 NA
ATOM     17  C   UNL     1       1.809  43.068  52.972  1.00  0.00     0.119 A 
ATOM     18  C   UNL     1       3.601  42.764  51.584  1.00  0.00     0.227 A 
ATOM     19  N   UNL     1       2.405  42.342  52.017  1.00  0.00    -0.221 NA
BRANCH  18  20
ATOM     20  N   UNL     1       4.254  42.038  50.607  1.00  0.00    -0.341 N 
ATOM     21  C   UNL     1       5.414  42.637  49.966  1.00  0.00     0.119 C 
ATOM     22  C   UNL     1       3.553  40.936  49.960  1.00  0.00     0.119 C 
ATOM     23  C   UNL     1       6.188  41.567  49.198  1.00  0.00     0.022 C 
ATOM     24  C   UNL     1       3.834  40.932  48.458  1.00  0.00     0.022 C 
ATOM     25  C   UNL     1       5.328  40.871  48.144  1.00  0.00     0.004 C 
ENDBRANCH  18  20
ENDBRANCH   4  14
TORSDOF 4
ENDMDL
MODEL 10
REMARK VINA RESULT:    -7.833      2.347      7.846
REMARK INTER + INTRA:         -10.308
REMARK INTER:                  -9.750
REMARK INTRA:                  -0.558
REMARK UNBOUND:                -0.643
REMARK SMILES c1ccc(NC2CCN(c3ccnc(N4CCCCC4)n3)C2)cc1
REMARK SMILES IDX 6 1 7 2 8 3 9 4 22 5 5 6 4 8 1 9 2 10 24 11 3 12 23 13 10 14
REMARK SMILES IDX 11 15 21 16 12 17 14 18 13 19 15 20 16 21 20 22 17 23 19 24
REMARK SMILES IDX 18 25
REMARK H PARENT 5 7
ROOT
ATOM      1  C   UNL     1       2.034  42.633  52.697  1.00  0.00     0.100 C 
ATOM      2  C   UNL     1       2.963  42.543  51.485  1.00  0.00     0.048 C 
ATOM      3  C   UNL     1       4.128  43.440  51.883  1.00  0.00     0.120 C 
ATOM      4  N   UNL     1       3.485  44.524  52.609  1.00  0.00    -0.354 N 
ATOM      5  C   UNL     1       2.175  44.111  53.125  1.00  0.00     0.142 C 
ENDROOT
BRANCH   1   6
ATOM      6  N   UNL     1       0.675  42.247  52.316  1.00  0.00    -0.380 N 
ATOM      7  H   UNL     1       0.652  41.677  51.472  1.00  0.00     0.160 HD
BRANCH   6   8
ATOM      8  C   UNL     1      -0.352  43.200  52.306  1.00  0.00     0.034 A 
ATOM      9  C   UNL     1      -2.497  45.028  52.108  1.00  0.00     0.000 A 
ATOM     10  C   UNL     1      -2.215  44.404  53.318  1.00  0.00     0.002 A 
ATOM     11  C   UNL     1      -1.734  44.724  50.986  1.00  0.00     0.002 A 
ATOM     12  C   UNL     1      -1.162  43.487  53.411  1.00  0.00     0.025 A 
ATOM     13  C   UNL     1      -0.682  43.809  51.085  1.00  0.00     0.025 A 
ENDBRANCH   6   8
ENDBRANCH   1   6
BRANCH   4  14
ATOM     14  C   UNL     1       4.162  45.547  53.233  1.00  0.00     0.134 A 
ATOM     15  C   UNL     1       3.568  46.332  54.196  1.00  0.00     0.067 A 
ATOM     16  N   UNL     1       5.450  45.750  52.899  1.00  0.00    -0.196 NA
ATOM     17  C   UNL     1       4.344  47.314  54.760  1.00  0.00     0.119 A 
ATOM     18  C   UNL     1       6.156  46.728  53.493  1.00  0.00     0.227 A 
ATOM     19  N   UNL     1       5.623  47.530  54.425  1.00  0.00    -0.221 NA
BRANCH  18  20
ATOM     20  N   UNL     1       7.469  46.925  53.111  1.00  0.00    -0.341 N 
ATOM     21  C   UNL     1       7.883  46.447  51.801  1.00  0.00     0.119 C 
ATOM     22  C   UNL     1       8.469  47.195  54.136  1.00  0.00     0.119 C 
ATOM     23  C   UNL     1       9.231  47.062  51.430  1.00  0.00     0.022 C 
ATOM     24  C   UNL     1       9.758  46.430  53.841  1.00  0.00     0.022 C 
ATOM     25  C   UNL     1      10.318  46.743  52.454  1.00  0.00     0.004 C 
ENDBRANCH  18  20
ENDBRANCH   4  14
TORSDOF 4
ENDMDL
