MODEL 1
REMARK VINA RESULT:    -7.178      0.000      0.000
REMARK INTER + INTRA:         -11.599
REMARK INTER:                 -11.375
REMARK INTRA:                  -0.225
REMARK UNBOUND:                -0.225
REMARK SMILES Cc1nc(C2CCCCCN2C(=O)Cc2c[nH]c3ncccc23)no1
REMARK SMILES IDX 11 1 5 2 4 3 2 4 3 5 25 6 24 7 1 8 6 9 10 11 9 12 8 13 7 14
REMARK SMILES IDX 12 16 13 17 14 18 15 19 16 20 23 21 17 22 22 23 18 24 21 25
REMARK SMILES IDX 19 26 20 27
REMARK H PARENT 17 28
REMARK Flexibility Score:   71.900
ROOT
ATOM      1  N   UNL     1       4.986  46.271  52.324  1.00  0.00    -0.332 N 
ENDROOT
BRANCH   1   2
ATOM      2  C   UNL     1       5.348  46.951  53.582  1.00  0.00     0.157 C 
BRANCH   2   3
ATOM      3  C   UNL     1       6.807  47.344  53.616  1.00  0.00     0.194 A 
ATOM      4  C   UNL     1       8.800  47.501  54.229  1.00  0.00     0.223 A 
ATOM      5  N   UNL     1       7.682  46.919  54.591  1.00  0.00    -0.194 NA
ATOM      6  O   UNL     1       8.668  48.303  53.135  1.00  0.00    -0.340 OA
ATOM      7  N   UNL     1       7.333  48.220  52.741  1.00  0.00    -0.060 NA
ATOM      8  C   UNL     1      10.141  47.421  54.831  1.00  0.00     0.114 C 
ENDBRANCH   2   3
BRANCH   2   9
ATOM      9  C   UNL     1       4.876  46.183  54.824  1.00  0.00     0.033 CG0
ATOM     10  G   UNL     1       3.356  46.134  55.028  1.00  0.00     0.000 G0
ENDBRANCH   2   9
ENDBRANCH   1   2
BRANCH   1  11
ATOM     11  C   UNL     1       3.744  46.730  51.709  1.00  0.00     0.120 C 
BRANCH  11  12
ATOM     12  C   UNL     1       2.593  46.877  52.708  1.00  0.00     0.022 C 
BRANCH  12  13
ATOM     13  C   UNL     1       2.520  45.801  53.798  1.00  0.00     0.002 C 
BRANCH  13  14
ATOM     14  C   UNL     1       3.359  46.132  55.035  1.00  0.00     0.003 CG0
ATOM     15  G   UNL     1       4.878  46.181  54.819  1.00  0.00     0.000 G0
ENDBRANCH  13  14
ENDBRANCH  12  13
ENDBRANCH  11  12
ENDBRANCH   1  11
BRANCH   1  16
ATOM     16  C   UNL     1       5.630  45.079  51.996  1.00  0.00     0.227 C 
ATOM     17  O   UNL     1       6.502  45.031  51.123  1.00  0.00    -0.275 OA
BRANCH  16  18
ATOM     18  C   UNL     1       5.204  43.794  52.696  1.00  0.00     0.138 C 
BRANCH  18  19
ATOM     19  C   UNL     1       4.260  42.948  51.903  1.00  0.00    -0.012 A 
ATOM     20  C   UNL     1       2.914  42.754  52.179  1.00  0.00     0.089 A 
ATOM     21  C   UNL     1       4.539  42.215  50.702  1.00  0.00     0.022 A 
ATOM     22  N   UNL     1       2.389  41.926  51.222  1.00  0.00    -0.346 N 
ATOM     23  C   UNL     1       5.662  42.004  49.884  1.00  0.00     0.014 A 
ATOM     24  C   UNL     1       3.358  41.586  50.322  1.00  0.00     0.137 A 
ATOM     25  C   UNL     1       5.511  41.180  48.768  1.00  0.00     0.021 A 
ATOM     26  N   UNL     1       3.155  40.783  49.260  1.00  0.00    -0.239 NA
ATOM     27  C   UNL     1       4.270  40.612  48.514  1.00  0.00     0.113 A 
ATOM     28  H   UNL     1       1.435  41.607  51.157  1.00  0.00     0.167 HD
ENDBRANCH  18  19
ENDBRANCH  16  18
ENDBRANCH   1  16
TORSDOF 4
ENDMDL
MODEL 2
REMARK VINA RESULT:    -6.996      1.461      2.342
REMARK INTER + INTRA:         -11.311
REMARK INTER:                 -11.253
REMARK INTRA:                  -0.058
REMARK UNBOUND:                -0.225
REMARK SMILES Cc1nc(C2CCCCCN2C(=O)Cc2c[nH]c3ncccc23)no1
REMARK SMILES IDX 11 1 5 2 4 3 2 4 3 5 25 6 24 7 1 8 6 9 10 11 9 12 8 13 7 14
REMARK SMILES IDX 12 16 13 17 14 18 15 19 16 20 23 21 17 22 22 23 18 24 21 25
REMARK SMILES IDX 19 26 20 27
REMARK H PARENT 17 28
REMARK Flexibility Score:   71.900
ROOT
ATOM      1  N   UNL     1       5.866  45.842  52.587  1.00  0.00    -0.332 N 
ENDROOT
BRANCH   1   2
ATOM      2  C   UNL     1       6.210  47.201  53.048  1.00  0.00     0.157 C 
BRANCH   2   3
ATOM      3  C   UNL     1       7.671  47.325  53.412  1.00  0.00     0.194 A 
ATOM      4  C   UNL     1       9.421  47.496  54.545  1.00  0.00     0.223 A 
ATOM      5  N   UNL     1       8.125  47.384  54.711  1.00  0.00    -0.194 NA
ATOM      6  O   UNL     1       9.799  47.568  53.237  1.00  0.00    -0.340 OA
ATOM      7  N   UNL     1       8.630  47.481  52.481  1.00  0.00    -0.060 NA
ATOM      8  C   UNL     1      10.497  47.563  55.548  1.00  0.00     0.114 C 
ENDBRANCH   2   3
BRANCH   2   9
ATOM      9  C   UNL     1       5.249  47.717  54.128  1.00  0.00     0.033 CG0
ATOM     10  G   UNL     1       3.873  47.038  54.162  1.00  0.00     0.000 G0
ENDBRANCH   2   9
ENDBRANCH   1   2
BRANCH   1  11
ATOM     11  C   UNL     1       5.856  44.821  53.631  1.00  0.00     0.120 C 
BRANCH  11  12
ATOM     12  C   UNL     1       4.458  44.541  54.189  1.00  0.00     0.022 C 
BRANCH  12  13
ATOM     13  C   UNL     1       3.798  45.706  54.938  1.00  0.00     0.002 C 
BRANCH  13  14
ATOM     14  C   UNL     1       3.866  47.032  54.175  1.00  0.00     0.003 CG0
ATOM     15  G   UNL     1       5.241  47.713  54.141  1.00  0.00     0.000 G0
ENDBRANCH  13  14
ENDBRANCH  12  13
ENDBRANCH  11  12
ENDBRANCH   1  11
BRANCH   1  16
ATOM     16  C   UNL     1       5.902  45.568  51.221  1.00  0.00     0.227 C 
ATOM     17  O   UNL     1       5.011  45.953  50.458  1.00  0.00    -0.275 OA
BRANCH  16  18
ATOM     18  C   UNL     1       7.042  44.721  50.669  1.00  0.00     0.138 C 
BRANCH  18  19
ATOM     19  C   UNL     1       6.599  43.578  49.813  1.00  0.00    -0.012 A 
ATOM     20  C   UNL     1       7.244  43.115  48.676  1.00  0.00     0.089 A 
ATOM     21  C   UNL     1       5.464  42.724  50.013  1.00  0.00     0.022 A 
ATOM     22  N   UNL     1       6.538  42.051  48.178  1.00  0.00    -0.346 N 
ATOM     23  C   UNL     1       4.430  42.620  50.960  1.00  0.00     0.014 A 
ATOM     24  C   UNL     1       5.456  41.801  48.971  1.00  0.00     0.137 A 
ATOM     25  C   UNL     1       3.477  41.616  50.779  1.00  0.00     0.021 A 
ATOM     26  N   UNL     1       4.566  40.816  48.748  1.00  0.00    -0.239 NA
ATOM     27  C   UNL     1       3.593  40.768  49.686  1.00  0.00     0.113 A 
ATOM     28  H   UNL     1       6.764  41.506  47.360  1.00  0.00     0.167 HD
ENDBRANCH  18  19
ENDBRANCH  16  18
ENDBRANCH   1  16
TORSDOF 4
ENDMDL
MODEL 3
REMARK VINA RESULT:    -6.931      2.224      5.872
REMARK INTER + INTRA:         -11.208
REMARK INTER:                 -10.939
REMARK INTRA:                  -0.270
REMARK UNBOUND:                -0.225
REMARK SMILES Cc1nc(C2CCCCCN2C(=O)Cc2c[nH]c3ncccc23)no1
REMARK SMILES IDX 11 1 5 2 4 3 2 4 3 5 25 6 24 7 1 8 6 9 10 11 9 12 8 13 7 14
REMARK SMILES IDX 12 16 13 17 14 18 15 19 16 20 23 21 17 22 22 23 18 24 21 25
REMARK SMILES IDX 19 26 20 27
REMARK H PARENT 17 28
REMARK Flexibility Score:   71.900
ROOT
ATOM      1  N   UNL     1       4.435  44.920  53.074  1.00  0.00    -0.332 N 
ENDROOT
BRANCH   1   2
ATOM      2  C   UNL     1       3.371  43.924  53.304  1.00  0.00     0.157 C 
BRANCH   2   3
ATOM      3  C   UNL     1       3.096  43.093  52.073  1.00  0.00     0.194 A 
ATOM      4  C   UNL     1       3.379  41.792  50.460  1.00  0.00     0.223 A 
ATOM      5  N   UNL     1       4.047  42.302  51.467  1.00  0.00    -0.194 NA
ATOM      6  O   UNL     1       2.101  42.254  50.363  1.00  0.00    -0.340 OA
ATOM      7  N   UNL     1       1.919  43.142  51.423  1.00  0.00    -0.060 NA
ATOM      8  C   UNL     1       3.811  40.823  49.439  1.00  0.00     0.114 C 
ENDBRANCH   2   3
BRANCH   2   9
ATOM      9  C   UNL     1       2.116  44.540  53.939  1.00  0.00     0.033 CG0
ATOM     10  G   UNL     1       2.303  45.097  55.356  1.00  0.00     0.000 G0
ENDBRANCH   2   9
ENDBRANCH   1   2
BRANCH   1  11
ATOM     11  C   UNL     1       5.450  44.991  54.122  1.00  0.00     0.120 C 
BRANCH  11  12
ATOM     12  C   UNL     1       4.867  45.270  55.510  1.00  0.00     0.022 C 
BRANCH  12  13
ATOM     13  C   UNL     1       3.533  46.027  55.530  1.00  0.00     0.002 C 
BRANCH  13  14
ATOM     14  C   UNL     1       2.316  45.114  55.356  1.00  0.00     0.003 CG0
ATOM     15  G   UNL     1       2.112  44.533  53.951  1.00  0.00     0.000 G0
ENDBRANCH  13  14
ENDBRANCH  12  13
ENDBRANCH  11  12
ENDBRANCH   1  11
BRANCH   1  16
ATOM     16  C   UNL     1       4.239  45.901  52.104  1.00  0.00     0.227 C 
ATOM     17  O   UNL     1       3.539  46.896  52.319  1.00  0.00    -0.275 OA
BRANCH  16  18
ATOM     18  C   UNL     1       4.859  45.709  50.725  1.00  0.00     0.138 C 
BRANCH  18  19
ATOM     19  C   UNL     1       6.338  45.485  50.744  1.00  0.00    -0.012 A 
ATOM     20  C   UNL     1       7.018  44.486  50.064  1.00  0.00     0.089 A 
ATOM     21  C   UNL     1       7.332  46.265  51.423  1.00  0.00     0.022 A 
ATOM     22  N   UNL     1       8.357  44.617  50.323  1.00  0.00    -0.346 N 
ATOM     23  C   UNL     1       7.336  47.403  52.247  1.00  0.00     0.014 A 
ATOM     24  C   UNL     1       8.567  45.686  51.146  1.00  0.00     0.137 A 
ATOM     25  C   UNL     1       8.565  47.855  52.731  1.00  0.00     0.021 A 
ATOM     26  N   UNL     1       9.778  46.077  51.583  1.00  0.00    -0.239 NA
ATOM     27  C   UNL     1       9.720  47.171  52.376  1.00  0.00     0.113 A 
ATOM     28  H   UNL     1       9.101  44.037  49.966  1.00  0.00     0.167 HD
ENDBRANCH  18  19
ENDBRANCH  16  18
ENDBRANCH   1  16
TORSDOF 4
ENDMDL
MODEL 4
REMARK VINA RESULT:    -6.881      1.909      3.287
REMARK INTER + INTRA:         -11.129
REMARK INTER:                 -10.592
REMARK INTRA:                  -0.538
REMARK UNBOUND:                -0.225
REMARK SMILES Cc1nc(C2CCCCCN2C(=O)Cc2c[nH]c3ncccc23)no1
REMARK SMILES IDX 11 1 5 2 4 3 2 4 3 5 25 6 24 7 1 8 6 9 10 11 9 12 8 13 7 14
REMARK SMILES IDX 12 16 13 17 14 18 15 19 16 20 23 21 17 22 22 23 18 24 21 25
REMARK SMILES IDX 19 26 20 27
REMARK H PARENT 17 28
REMARK Flexibility Score:   71.900
ROOT
ATOM      1  N   UNL     1       6.039  45.644  52.547  1.00  0.00    -0.332 N 
ENDROOT
BRANCH   1   2
ATOM      2  C   UNL     1       6.485  47.044  52.677  1.00  0.00     0.157 C 
BRANCH   2   3
ATOM      3  C   UNL     1       7.879  47.144  53.253  1.00  0.00     0.194 A 
ATOM      4  C   UNL     1       9.448  47.516  54.586  1.00  0.00     0.223 A 
ATOM      5  N   UNL     1       8.139  47.587  54.531  1.00  0.00    -0.194 NA
ATOM      6  O   UNL     1      10.021  47.118  53.415  1.00  0.00    -0.340 OA
ATOM      7  N   UNL     1       8.977  46.895  52.517  1.00  0.00    -0.060 NA
ATOM      8  C   UNL     1      10.361  47.810  55.702  1.00  0.00     0.114 C 
ENDBRANCH   2   3
BRANCH   2   9
ATOM      9  C   UNL     1       5.450  47.929  53.384  1.00  0.00     0.033 CG0
ATOM     10  G   UNL     1       4.272  47.180  54.021  1.00  0.00     0.000 G0
ENDBRANCH   2   9
ENDBRANCH   1   2
BRANCH   1  11
ATOM     11  C   UNL     1       6.249  44.816  53.732  1.00  0.00     0.120 C 
BRANCH  11  12
ATOM     12  C   UNL     1       5.067  44.843  54.705  1.00  0.00     0.022 C 
BRANCH  12  13
ATOM     13  C   UNL     1       4.625  46.235  55.172  1.00  0.00     0.002 C 
BRANCH  13  14
ATOM     14  C   UNL     1       4.268  47.177  54.018  1.00  0.00     0.003 CG0
ATOM     15  G   UNL     1       5.442  47.938  53.389  1.00  0.00     0.000 G0
ENDBRANCH  13  14
ENDBRANCH  12  13
ENDBRANCH  11  12
ENDBRANCH   1  11
BRANCH   1  16
ATOM     16  C   UNL     1       5.774  45.140  51.275  1.00  0.00     0.227 C 
ATOM     17  O   UNL     1       6.681  44.834  50.495  1.00  0.00    -0.275 OA
BRANCH  16  18
ATOM     18  C   UNL     1       4.325  45.017  50.818  1.00  0.00     0.138 C 
BRANCH  18  19
ATOM     19  C   UNL     1       3.502  44.074  51.637  1.00  0.00    -0.012 A 
ATOM     20  C   UNL     1       3.819  42.754  51.921  1.00  0.00     0.089 A 
ATOM     21  C   UNL     1       2.266  44.350  52.312  1.00  0.00     0.022 A 
ATOM     22  N   UNL     1       2.826  42.227  52.705  1.00  0.00    -0.346 N 
ATOM     23  C   UNL     1       1.421  45.463  52.460  1.00  0.00     0.014 A 
ATOM     24  C   UNL     1       1.876  43.176  52.949  1.00  0.00     0.137 A 
ATOM     25  C   UNL     1       0.261  45.306  53.218  1.00  0.00     0.021 A 
ATOM     26  N   UNL     1       0.772  42.968  53.691  1.00  0.00    -0.239 NA
ATOM     27  C   UNL     1      -0.005  44.070  53.793  1.00  0.00     0.113 A 
ATOM     28  H   UNL     1       2.780  41.289  53.072  1.00  0.00     0.167 HD
ENDBRANCH  18  19
ENDBRANCH  16  18
ENDBRANCH   1  16
TORSDOF 4
ENDMDL
MODEL 5
REMARK VINA RESULT:    -6.707      2.155      3.022
REMARK INTER + INTRA:         -10.852
REMARK INTER:                 -11.116
REMARK INTRA:                   0.264
REMARK UNBOUND:                -0.225
REMARK SMILES Cc1nc(C2CCCCCN2C(=O)Cc2c[nH]c3ncccc23)no1
REMARK SMILES IDX 11 1 5 2 4 3 2 4 3 5 25 6 24 7 1 8 6 9 10 11 9 12 8 13 7 14
REMARK SMILES IDX 12 16 13 17 14 18 15 19 16 20 23 21 17 22 22 23 18 24 21 25
REMARK SMILES IDX 19 26 20 27
REMARK H PARENT 17 28
REMARK Flexibility Score:   71.900
ROOT
ATOM      1  N   UNL     1       3.363  45.343  52.721  1.00  0.00    -0.332 N 
ENDROOT
BRANCH   1   2
ATOM      2  C   UNL     1       3.662  46.217  53.873  1.00  0.00     0.157 C 
BRANCH   2   3
ATOM      3  C   UNL     1       5.123  46.594  53.934  1.00  0.00     0.194 A 
ATOM      4  C   UNL     1       7.002  47.329  53.381  1.00  0.00     0.223 A 
ATOM      5  N   UNL     1       5.790  47.207  52.896  1.00  0.00    -0.194 NA
ATOM      6  O   UNL     1       7.151  46.782  54.621  1.00  0.00    -0.340 OA
ATOM      7  N   UNL     1       5.904  46.268  54.980  1.00  0.00    -0.060 NA
ATOM      8  C   UNL     1       8.198  47.946  52.784  1.00  0.00     0.114 C 
ENDBRANCH   2   3
BRANCH   2   9
ATOM      9  C   UNL     1       3.100  45.667  55.190  1.00  0.00     0.033 CG0
ATOM     10  G   UNL     1       1.588  45.402  55.200  1.00  0.00     0.000 G0
ENDBRANCH   2   9
ENDBRANCH   1   2
BRANCH   1  11
ATOM     11  C   UNL     1       2.154  45.691  51.980  1.00  0.00     0.120 C 
BRANCH  11  12
ATOM     12  C   UNL     1       0.864  45.339  52.727  1.00  0.00     0.022 C 
BRANCH  12  13
ATOM     13  C   UNL     1       1.047  44.553  54.032  1.00  0.00     0.002 C 
BRANCH  13  14
ATOM     14  C   UNL     1       1.579  45.409  55.185  1.00  0.00     0.003 CG0
ATOM     15  G   UNL     1       3.094  45.654  55.191  1.00  0.00     0.000 G0
ENDBRANCH  13  14
ENDBRANCH  12  13
ENDBRANCH  11  12
ENDBRANCH   1  11
BRANCH   1  16
ATOM     16  C   UNL     1       4.021  44.118  52.619  1.00  0.00     0.227 C 
ATOM     17  O   UNL     1       4.828  43.741  53.475  1.00  0.00    -0.275 OA
BRANCH  16  18
ATOM     18  C   UNL     1       3.777  43.251  51.390  1.00  0.00     0.138 C 
BRANCH  18  19
ATOM     19  C   UNL     1       5.024  42.831  50.679  1.00  0.00    -0.012 A 
ATOM     20  C   UNL     1       5.287  41.565  50.178  1.00  0.00     0.089 A 
ATOM     21  C   UNL     1       6.158  43.644  50.346  1.00  0.00     0.022 A 
ATOM     22  N   UNL     1       6.524  41.579  49.589  1.00  0.00    -0.346 N 
ATOM     23  C   UNL     1       6.528  44.988  50.529  1.00  0.00     0.014 A 
ATOM     24  C   UNL     1       7.069  42.827  49.684  1.00  0.00     0.137 A 
ATOM     25  C   UNL     1       7.773  45.393  50.046  1.00  0.00     0.021 A 
ATOM     26  N   UNL     1       8.278  43.163  49.199  1.00  0.00    -0.239 NA
ATOM     27  C   UNL     1       8.583  44.464  49.408  1.00  0.00     0.113 A 
ATOM     28  H   UNL     1       6.985  40.805  49.135  1.00  0.00     0.167 HD
ENDBRANCH  18  19
ENDBRANCH  16  18
ENDBRANCH   1  16
TORSDOF 4
ENDMDL
MODEL 6
REMARK VINA RESULT:    -6.706      2.500      6.020
REMARK INTER + INTRA:         -10.851
REMARK INTER:                 -10.677
REMARK INTRA:                  -0.174
REMARK UNBOUND:                -0.225
REMARK SMILES Cc1nc(C2CCCCCN2C(=O)Cc2c[nH]c3ncccc23)no1
REMARK SMILES IDX 11 1 5 2 4 3 2 4 3 5 25 6 24 7 1 8 6 9 10 11 9 12 8 13 7 14
REMARK SMILES IDX 12 16 13 17 14 18 15 19 16 20 23 21 17 22 22 23 18 24 21 25
REMARK SMILES IDX 19 26 20 27
REMARK H PARENT 17 28
REMARK Flexibility Score:   71.900
ROOT
ATOM      1  N   UNL     1       3.016  44.473  52.611  1.00  0.00    -0.332 N 
ENDROOT
BRANCH   1   2
ATOM      2  C   UNL     1       2.874  43.005  52.680  1.00  0.00     0.157 C 
BRANCH   2   3
ATOM      3  C   UNL     1       3.527  42.316  51.505  1.00  0.00     0.194 A 
ATOM      4  C   UNL     1       4.985  41.655  50.159  1.00  0.00     0.223 A 
ATOM      5  N   UNL     1       4.880  42.366  51.256  1.00  0.00    -0.194 NA
ATOM      6  O   UNL     1       3.787  41.217  49.677  1.00  0.00    -0.340 OA
ATOM      7  N   UNL     1       2.811  41.680  50.560  1.00  0.00    -0.060 NA
ATOM      8  C   UNL     1       6.183  41.282  49.389  1.00  0.00     0.114 C 
ENDBRANCH   2   3
BRANCH   2   9
ATOM      9  C   UNL     1       1.427  42.566  52.941  1.00  0.00     0.033 CG0
ATOM     10  G   UNL     1       0.577  43.552  53.753  1.00  0.00     0.000 G0
ENDBRANCH   2   9
ENDBRANCH   1   2
BRANCH   1  11
ATOM     11  C   UNL     1       2.106  45.137  51.682  1.00  0.00     0.120 C 
BRANCH  11  12
ATOM     12  C   UNL     1       0.852  45.696  52.359  1.00  0.00     0.022 C 
BRANCH  12  13
ATOM     13  C   UNL     1      -0.114  44.651  52.931  1.00  0.00     0.002 C 
BRANCH  13  14
ATOM     14  C   UNL     1       0.587  43.558  53.742  1.00  0.00     0.003 CG0
ATOM     15  G   UNL     1       1.415  42.552  52.931  1.00  0.00     0.000 G0
ENDBRANCH  13  14
ENDBRANCH  12  13
ENDBRANCH  11  12
ENDBRANCH   1  11
BRANCH   1  16
ATOM     16  C   UNL     1       4.160  45.063  53.146  1.00  0.00     0.227 C 
ATOM     17  O   UNL     1       4.675  44.651  54.190  1.00  0.00    -0.275 OA
BRANCH  16  18
ATOM     18  C   UNL     1       4.753  46.283  52.452  1.00  0.00     0.138 C 
BRANCH  18  19
ATOM     19  C   UNL     1       6.101  46.050  51.849  1.00  0.00    -0.012 A 
ATOM     20  C   UNL     1       6.353  45.432  50.633  1.00  0.00     0.089 A 
ATOM     21  C   UNL     1       7.376  46.445  52.376  1.00  0.00     0.022 A 
ATOM     22  N   UNL     1       7.707  45.417  50.425  1.00  0.00    -0.346 N 
ATOM     23  C   UNL     1       7.832  47.115  53.525  1.00  0.00     0.014 A 
ATOM     24  C   UNL     1       8.344  46.022  51.470  1.00  0.00     0.137 A 
ATOM     25  C   UNL     1       9.208  47.294  53.672  1.00  0.00     0.021 A 
ATOM     26  N   UNL     1       9.679  46.167  51.561  1.00  0.00    -0.239 NA
ATOM     27  C   UNL     1      10.059  46.812  52.687  1.00  0.00     0.113 A 
ATOM     28  H   UNL     1       8.191  45.036  49.626  1.00  0.00     0.167 HD
ENDBRANCH  18  19
ENDBRANCH  16  18
ENDBRANCH   1  16
TORSDOF 4
ENDMDL
MODEL 7
REMARK VINA RESULT:    -6.672      2.790      5.965
REMARK INTER + INTRA:         -10.798
REMARK INTER:                 -10.407
REMARK INTRA:                  -0.391
REMARK UNBOUND:                -0.225
REMARK SMILES Cc1nc(C2CCCCCN2C(=O)Cc2c[nH]c3ncccc23)no1
REMARK SMILES IDX 11 1 5 2 4 3 2 4 3 5 25 6 24 7 1 8 6 9 10 11 9 12 8 13 7 14
REMARK SMILES IDX 12 16 13 17 14 18 15 19 16 20 23 21 17 22 22 23 18 24 21 25
REMARK SMILES IDX 19 26 20 27
REMARK H PARENT 17 28
REMARK Flexibility Score:   71.900
ROOT
ATOM      1  N   UNL     1       4.079  45.233  52.422  1.00  0.00    -0.332 N 
ENDROOT
BRANCH   1   2
ATOM      2  C   UNL     1       3.708  44.414  53.592  1.00  0.00     0.157 C 
BRANCH   2   3
ATOM      3  C   UNL     1       2.211  44.336  53.778  1.00  0.00     0.194 A 
ATOM      4  C   UNL     1       0.313  44.499  54.641  1.00  0.00     0.223 A 
ATOM      5  N   UNL     1       1.567  44.764  54.917  1.00  0.00    -0.194 NA
ATOM      6  O   UNL     1       0.138  43.883  53.437  1.00  0.00    -0.340 OA
ATOM      7  N   UNL     1       1.406  43.750  52.872  1.00  0.00    -0.060 NA
ATOM      8  C   UNL     1      -0.901  44.756  55.434  1.00  0.00     0.114 C 
ENDBRANCH   2   3
BRANCH   2   9
ATOM      9  C   UNL     1       4.478  44.812  54.858  1.00  0.00     0.033 CG0
ATOM     10  G   UNL     1       5.156  46.188  54.809  1.00  0.00     0.000 G0
ENDBRANCH   2   9
ENDBRANCH   1   2
BRANCH   1  11
ATOM     11  C   UNL     1       3.354  46.494  52.297  1.00  0.00     0.120 C 
BRANCH  11  12
ATOM     12  C   UNL     1       4.005  47.645  53.069  1.00  0.00     0.022 C 
BRANCH  12  13
ATOM     13  C   UNL     1       4.258  47.385  54.559  1.00  0.00     0.002 C 
BRANCH  13  14
ATOM     14  C   UNL     1       5.167  46.180  54.818  1.00  0.00     0.003 CG0
ATOM     15  G   UNL     1       4.468  44.815  54.867  1.00  0.00     0.000 G0
ENDBRANCH  13  14
ENDBRANCH  12  13
ENDBRANCH  11  12
ENDBRANCH   1  11
BRANCH   1  16
ATOM     16  C   UNL     1       4.807  44.641  51.391  1.00  0.00     0.227 C 
ATOM     17  O   UNL     1       4.853  43.415  51.250  1.00  0.00    -0.275 OA
BRANCH  16  18
ATOM     18  C   UNL     1       5.609  45.531  50.450  1.00  0.00     0.138 C 
BRANCH  18  19
ATOM     19  C   UNL     1       7.088  45.473  50.663  1.00  0.00    -0.012 A 
ATOM     20  C   UNL     1       7.985  44.702  49.938  1.00  0.00     0.089 A 
ATOM     21  C   UNL     1       7.865  46.215  51.614  1.00  0.00     0.022 A 
ATOM     22  N   UNL     1       9.246  44.929  50.424  1.00  0.00    -0.346 N 
ATOM     23  C   UNL     1       7.601  47.169  52.611  1.00  0.00     0.014 A 
ATOM     24  C   UNL     1       9.194  45.838  51.441  1.00  0.00     0.137 A 
ATOM     25  C   UNL     1       8.679  47.654  53.353  1.00  0.00     0.021 A 
ATOM     26  N   UNL     1      10.269  46.271  52.124  1.00  0.00    -0.239 NA
ATOM     27  C   UNL     1       9.955  47.182  53.074  1.00  0.00     0.113 A 
ATOM     28  H   UNL     1      10.104  44.513  50.096  1.00  0.00     0.167 HD
ENDBRANCH  18  19
ENDBRANCH  16  18
ENDBRANCH   1  16
TORSDOF 4
ENDMDL
MODEL 8
REMARK VINA RESULT:    -6.650      3.059      5.171
REMARK INTER + INTRA:         -10.762
REMARK INTER:                 -10.501
REMARK INTRA:                  -0.261
REMARK UNBOUND:                -0.225
REMARK SMILES Cc1nc(C2CCCCCN2C(=O)Cc2c[nH]c3ncccc23)no1
REMARK SMILES IDX 11 1 5 2 4 3 2 4 3 5 25 6 24 7 1 8 6 9 10 11 9 12 8 13 7 14
REMARK SMILES IDX 12 16 13 17 14 18 15 19 16 20 23 21 17 22 22 23 18 24 21 25
REMARK SMILES IDX 19 26 20 27
REMARK H PARENT 17 28
REMARK Flexibility Score:   71.900
ROOT
ATOM      1  N   UNL     1       2.747  45.192  52.928  1.00  0.00    -0.332 N 
ENDROOT
BRANCH   1   2
ATOM      2  C   UNL     1       2.649  44.717  54.321  1.00  0.00     0.157 C 
BRANCH   2   3
ATOM      3  C   UNL     1       1.216  44.625  54.790  1.00  0.00     0.194 A 
ATOM      4  C   UNL     1      -0.518  44.917  55.922  1.00  0.00     0.223 A 
ATOM      5  N   UNL     1       0.738  45.294  55.895  1.00  0.00    -0.194 NA
ATOM      6  O   UNL     1      -0.839  44.017  54.951  1.00  0.00    -0.340 OA
ATOM      7  N   UNL     1       0.324  43.801  54.211  1.00  0.00    -0.060 NA
ATOM      8  C   UNL     1      -1.600  45.311  56.840  1.00  0.00     0.114 C 
ENDBRANCH   2   3
BRANCH   2   9
ATOM      9  C   UNL     1       3.573  45.489  55.272  1.00  0.00     0.033 CG0
ATOM     10  G   UNL     1       4.765  46.189  54.606  1.00  0.00     0.000 G0
ENDBRANCH   2   9
ENDBRANCH   1   2
BRANCH   1  11
ATOM     11  C   UNL     1       2.446  46.608  52.736  1.00  0.00     0.120 C 
BRANCH  11  12
ATOM     12  C   UNL     1       3.696  47.491  52.690  1.00  0.00     0.022 C 
BRANCH  12  13
ATOM     13  C   UNL     1       4.503  47.565  53.993  1.00  0.00     0.002 C 
BRANCH  13  14
ATOM     14  C   UNL     1       4.785  46.192  54.609  1.00  0.00     0.003 CG0
ATOM     15  G   UNL     1       3.588  45.499  55.273  1.00  0.00     0.000 G0
ENDBRANCH  13  14
ENDBRANCH  12  13
ENDBRANCH  11  12
ENDBRANCH   1  11
BRANCH   1  16
ATOM     16  C   UNL     1       2.786  44.252  51.899  1.00  0.00     0.227 C 
ATOM     17  O   UNL     1       2.200  44.436  50.828  1.00  0.00    -0.275 OA
BRANCH  16  18
ATOM     18  C   UNL     1       3.524  42.939  52.128  1.00  0.00     0.138 C 
BRANCH  18  19
ATOM     19  C   UNL     1       4.648  42.693  51.173  1.00  0.00    -0.012 A 
ATOM     20  C   UNL     1       4.834  41.547  50.413  1.00  0.00     0.089 A 
ATOM     21  C   UNL     1       5.716  43.587  50.828  1.00  0.00     0.022 A 
ATOM     22  N   UNL     1       5.966  41.705  49.657  1.00  0.00    -0.346 N 
ATOM     23  C   UNL     1       6.106  44.885  51.197  1.00  0.00     0.014 A 
ATOM     24  C   UNL     1       6.515  42.931  49.897  1.00  0.00     0.137 A 
ATOM     25  C   UNL     1       7.261  45.410  50.615  1.00  0.00     0.021 A 
ATOM     26  N   UNL     1       7.635  43.386  49.305  1.00  0.00    -0.239 NA
ATOM     27  C   UNL     1       7.966  44.636  49.702  1.00  0.00     0.113 A 
ATOM     28  H   UNL     1       6.354  41.041  49.005  1.00  0.00     0.167 HD
ENDBRANCH  18  19
ENDBRANCH  16  18
ENDBRANCH   1  16
TORSDOF 4
ENDMDL
MODEL 9
REMARK VINA RESULT:    -6.649      2.857      6.307
REMARK INTER + INTRA:         -10.761
REMARK INTER:                 -11.011
REMARK INTRA:                   0.250
REMARK UNBOUND:                -0.225
REMARK SMILES Cc1nc(C2CCCCCN2C(=O)Cc2c[nH]c3ncccc23)no1
REMARK SMILES IDX 11 1 5 2 4 3 2 4 3 5 25 6 24 7 1 8 6 9 10 11 9 12 8 13 7 14
REMARK SMILES IDX 12 16 13 17 14 18 15 19 16 20 23 21 17 22 22 23 18 24 21 25
REMARK SMILES IDX 19 26 20 27
REMARK H PARENT 17 28
REMARK Flexibility Score:   71.900
ROOT
ATOM      1  N   UNL     1       3.141  44.990  52.034  1.00  0.00    -0.332 N 
ENDROOT
BRANCH   1   2
ATOM      2  C   UNL     1       1.765  45.397  52.377  1.00  0.00     0.157 C 
BRANCH   2   3
ATOM      3  C   UNL     1       1.530  45.401  53.870  1.00  0.00     0.194 A 
ATOM      4  C   UNL     1       0.573  45.246  55.723  1.00  0.00     0.223 A 
ATOM      5  N   UNL     1       0.312  45.112  54.444  1.00  0.00    -0.194 NA
ATOM      6  O   UNL     1       1.847  45.655  55.980  1.00  0.00    -0.340 OA
ATOM      7  N   UNL     1       2.479  45.784  54.743  1.00  0.00    -0.060 NA
ATOM      8  C   UNL     1      -0.301  45.034  56.889  1.00  0.00     0.114 C 
ENDBRANCH   2   3
BRANCH   2   9
ATOM      9  C   UNL     1       0.706  44.626  51.577  1.00  0.00     0.033 CG0
ATOM     10  G   UNL     1       0.879  43.101  51.559  1.00  0.00     0.000 G0
ENDBRANCH   2   9
ENDBRANCH   1   2
BRANCH   1  11
ATOM     11  C   UNL     1       3.639  43.825  52.760  1.00  0.00     0.120 C 
BRANCH  11  12
ATOM     12  C   UNL     1       3.291  42.496  52.083  1.00  0.00     0.022 C 
BRANCH  12  13
ATOM     13  C   UNL     1       2.189  42.563  51.018  1.00  0.00     0.002 C 
BRANCH  13  14
ATOM     14  C   UNL     1       0.859  43.098  51.556  1.00  0.00     0.003 CG0
ATOM     15  G   UNL     1       0.716  44.625  51.588  1.00  0.00     0.000 G0
ENDBRANCH  13  14
ENDBRANCH  12  13
ENDBRANCH  11  12
ENDBRANCH   1  11
BRANCH   1  16
ATOM     16  C   UNL     1       3.951  45.883  51.334  1.00  0.00     0.227 C 
ATOM     17  O   UNL     1       3.475  46.818  50.682  1.00  0.00    -0.275 OA
BRANCH  16  18
ATOM     18  C   UNL     1       5.459  45.663  51.330  1.00  0.00     0.138 C 
BRANCH  18  19
ATOM     19  C   UNL     1       6.167  46.251  52.508  1.00  0.00    -0.012 A 
ATOM     20  C   UNL     1       5.571  46.684  53.683  1.00  0.00     0.089 A 
ATOM     21  C   UNL     1       7.579  46.447  52.673  1.00  0.00     0.022 A 
ATOM     22  N   UNL     1       6.549  47.148  54.523  1.00  0.00    -0.346 N 
ATOM     23  C   UNL     1       8.730  46.209  51.902  1.00  0.00     0.014 A 
ATOM     24  C   UNL     1       7.771  47.016  53.928  1.00  0.00     0.137 A 
ATOM     25  C   UNL     1       9.964  46.568  52.444  1.00  0.00     0.021 A 
ATOM     26  N   UNL     1       8.934  47.381  54.500  1.00  0.00    -0.239 NA
ATOM     27  C   UNL     1      10.004  47.135  53.711  1.00  0.00     0.113 A 
ATOM     28  H   UNL     1       6.421  47.524  55.450  1.00  0.00     0.167 HD
ENDBRANCH  18  19
ENDBRANCH  16  18
ENDBRANCH   1  16
TORSDOF 4
ENDMDL
MODEL 10
REMARK VINA RESULT:    -6.589      2.936      6.034
REMARK INTER + INTRA:         -10.665
REMARK INTER:                 -10.365
REMARK INTRA:                  -0.300
REMARK UNBOUND:                -0.225
REMARK SMILES Cc1nc(C2CCCCCN2C(=O)Cc2c[nH]c3ncccc23)no1
REMARK SMILES IDX 11 1 5 2 4 3 2 4 3 5 25 6 24 7 1 8 6 9 10 11 9 12 8 13 7 14
REMARK SMILES IDX 12 16 13 17 14 18 15 19 16 20 23 21 17 22 22 23 18 24 21 25
REMARK SMILES IDX 19 26 20 27
REMARK H PARENT 17 28
REMARK Flexibility Score:   71.900
ROOT
ATOM      1  N   UNL     1       4.219  44.681  53.027  1.00  0.00    -0.332 N 
ENDROOT
BRANCH   1   2
ATOM      2  C   UNL     1       2.943  45.392  53.241  1.00  0.00     0.157 C 
BRANCH   2   3
ATOM      3  C   UNL     1       1.759  44.594  52.748  1.00  0.00     0.194 A 
ATOM      4  C   UNL     1       0.328  43.078  52.575  1.00  0.00     0.223 A 
ATOM      5  N   UNL     1       1.360  43.404  53.316  1.00  0.00    -0.194 NA
ATOM      6  O   UNL     1       0.095  43.948  51.552  1.00  0.00    -0.340 OA
ATOM      7  N   UNL     1       1.065  44.945  51.650  1.00  0.00    -0.060 NA
ATOM      8  C   UNL     1      -0.582  41.926  52.683  1.00  0.00     0.114 C 
ENDBRANCH   2   3
BRANCH   2   9
ATOM      9  C   UNL     1       2.982  46.838  52.729  1.00  0.00     0.033 CG0
ATOM     10  G   UNL     1       3.982  47.760  53.441  1.00  0.00     0.000 G0
ENDBRANCH   2   9
ENDBRANCH   1   2
BRANCH   1  11
ATOM     11  C   UNL     1       5.145  44.722  54.155  1.00  0.00     0.120 C 
BRANCH  11  12
ATOM     12  C   UNL     1       5.684  46.126  54.444  1.00  0.00     0.022 C 
BRANCH  12  13
ATOM     13  C   UNL     1       4.623  47.200  54.716  1.00  0.00     0.002 C 
BRANCH  13  14
ATOM     14  C   UNL     1       3.986  47.760  53.441  1.00  0.00     0.003 CG0
ATOM     15  G   UNL     1       2.992  46.834  52.728  1.00  0.00     0.000 G0
ENDBRANCH  13  14
ENDBRANCH  12  13
ENDBRANCH  11  12
ENDBRANCH   1  11
BRANCH   1  16
ATOM     16  C   UNL     1       4.579  44.324  51.728  1.00  0.00     0.227 C 
ATOM     17  O   UNL     1       4.419  43.176  51.302  1.00  0.00    -0.275 OA
BRANCH  16  18
ATOM     18  C   UNL     1       5.239  45.367  50.834  1.00  0.00     0.138 C 
BRANCH  18  19
ATOM     19  C   UNL     1       6.706  45.160  50.631  1.00  0.00    -0.012 A 
ATOM     20  C   UNL     1       7.286  44.293  49.716  1.00  0.00     0.089 A 
ATOM     21  C   UNL     1       7.785  45.828  51.299  1.00  0.00     0.022 A 
ATOM     22  N   UNL     1       8.648  44.395  49.824  1.00  0.00    -0.346 N 
ATOM     23  C   UNL     1       7.903  46.815  52.292  1.00  0.00     0.014 A 
ATOM     24  C   UNL     1       8.970  45.316  50.779  1.00  0.00     0.137 A 
ATOM     25  C   UNL     1       9.187  47.195  52.686  1.00  0.00     0.021 A 
ATOM     26  N   UNL     1      10.230  45.644  51.120  1.00  0.00    -0.239 NA
ATOM     27  C   UNL     1      10.282  46.592  52.083  1.00  0.00     0.113 A 
ATOM     28  H   UNL     1       9.336  43.889  49.287  1.00  0.00     0.167 HD
ENDBRANCH  18  19
ENDBRANCH  16  18
ENDBRANCH   1  16
TORSDOF 4
ENDMDL
