MODEL 1
REMARK VINA RESULT:    -9.343      0.000      0.000
REMARK INTER + INTRA:         -13.383
REMARK INTER:                 -12.620
REMARK INTRA:                  -0.763
REMARK UNBOUND:                -0.763
REMARK SMILES O=C(C[NH+]1CCC(Nc2ccnc(N3CCCCC3)n2)CC1)Nc1ccccc1
REMARK SMILES IDX 4 1 5 2 6 3 7 4 21 5 22 6 3 8 2 9 23 10 1 11 24 13 25 14
REMARK SMILES IDX 29 15 26 16 28 17 27 18 8 19 9 21 10 22 20 23 11 24 13 25
REMARK SMILES IDX 12 26 14 27 15 28 19 29 16 30 18 31 17 32
REMARK H PARENT 4 7 23 12 8 20
ROOT
ATOM      1  N   UNL     1       1.092  45.678  54.600  1.00  0.00    -0.327 N 
ATOM      2  C   UNL     1       2.362  45.240  55.296  1.00  0.00     0.264 C 
ATOM      3  C   UNL     1       3.475  46.211  54.943  1.00  0.00     0.086 C 
ATOM      4  C   UNL     1       3.719  46.277  53.426  1.00  0.00     0.091 C 
ATOM      5  C   UNL     1       2.399  46.617  52.715  1.00  0.00     0.086 C 
ATOM      6  C   UNL     1       1.273  45.662  53.099  1.00  0.00     0.264 C 
ATOM      7  H   UNL     1       0.909  46.651  54.871  1.00  0.00     0.348 HD
ENDROOT
BRANCH   1   8
ATOM      8  C   UNL     1      -0.136  44.884  55.072  1.00  0.00     0.363 C 
BRANCH   8   9
ATOM      9  C   UNL     1      -0.677  45.251  56.463  1.00  0.00     0.279 C 
ATOM     10  N   UNL     1      -0.616  46.607  56.738  1.00  0.00    -0.321 N 
ATOM     11  O   UNL     1      -1.095  44.373  57.210  1.00  0.00    -0.268 OA
ATOM     12  H   UNL     1      -0.277  47.238  56.020  1.00  0.00     0.170 HD
BRANCH  10  13
ATOM     13  C   UNL     1      -0.989  47.249  57.941  1.00  0.00     0.041 A 
ATOM     14  C   UNL     1       0.042  47.569  58.838  1.00  0.00     0.026 A 
ATOM     15  C   UNL     1      -2.304  47.568  58.287  1.00  0.00     0.026 A 
ATOM     16  C   UNL     1      -0.239  48.194  60.056  1.00  0.00     0.002 A 
ATOM     17  C   UNL     1      -2.583  48.198  59.505  1.00  0.00     0.002 A 
ATOM     18  C   UNL     1      -1.553  48.509  60.389  1.00  0.00     0.000 A 
ENDBRANCH  10  13
ENDBRANCH   8   9
ENDBRANCH   1   8
BRANCH   4  19
ATOM     19  N   UNL     1       4.221  44.997  52.906  1.00  0.00    -0.367 N 
ATOM     20  H   UNL     1       3.514  44.502  52.356  1.00  0.00     0.162 HD
BRANCH  19  21
ATOM     21  C   UNL     1       5.347  45.084  52.048  1.00  0.00     0.131 A 
ATOM     22  C   UNL     1       5.458  44.152  51.041  1.00  0.00     0.067 A 
ATOM     23  N   UNL     1       6.276  46.031  52.239  1.00  0.00    -0.196 NA
ATOM     24  C   UNL     1       6.560  44.266  50.237  1.00  0.00     0.119 A 
ATOM     25  C   UNL     1       7.329  46.092  51.403  1.00  0.00     0.227 A 
ATOM     26  N   UNL     1       7.490  45.219  50.399  1.00  0.00    -0.221 NA
BRANCH  25  27
ATOM     27  N   UNL     1       8.262  47.109  51.569  1.00  0.00    -0.341 N 
ATOM     28  C   UNL     1       7.976  48.120  52.583  1.00  0.00     0.119 C 
ATOM     29  C   UNL     1       9.673  46.729  51.469  1.00  0.00     0.119 C 
ATOM     30  C   UNL     1       8.420  47.621  53.961  1.00  0.00     0.022 C 
ATOM     31  C   UNL     1      10.169  46.192  52.815  1.00  0.00     0.022 C 
ATOM     32  C   UNL     1       9.888  47.188  53.944  1.00  0.00     0.004 C 
ENDBRANCH  25  27
ENDBRANCH  19  21
ENDBRANCH   4  19
TORSDOF 6
ENDMDL
MODEL 2
REMARK VINA RESULT:    -8.766      1.399      2.011
REMARK INTER + INTRA:         -12.603
REMARK INTER:                 -12.555
REMARK INTRA:                  -0.048
REMARK UNBOUND:                -0.763
REMARK SMILES O=C(C[NH+]1CCC(Nc2ccnc(N3CCCCC3)n2)CC1)Nc1ccccc1
REMARK SMILES IDX 4 1 5 2 6 3 7 4 21 5 22 6 3 8 2 9 23 10 1 11 24 13 25 14
REMARK SMILES IDX 29 15 26 16 28 17 27 18 8 19 9 21 10 22 20 23 11 24 13 25
REMARK SMILES IDX 12 26 14 27 15 28 19 29 16 30 18 31 17 32
REMARK H PARENT 4 7 23 12 8 20
ROOT
ATOM      1  N   UNL     1       0.624  44.138  52.910  1.00  0.00    -0.327 N 
ATOM      2  C   UNL     1       1.275  45.449  52.532  1.00  0.00     0.264 C 
ATOM      3  C   UNL     1       1.997  45.276  51.206  1.00  0.00     0.086 C 
ATOM      4  C   UNL     1       3.067  44.174  51.277  1.00  0.00     0.091 C 
ATOM      5  C   UNL     1       2.419  42.868  51.766  1.00  0.00     0.086 C 
ATOM      6  C   UNL     1       1.664  43.053  53.078  1.00  0.00     0.264 C 
ATOM      7  H   UNL     1       0.018  43.856  52.130  1.00  0.00     0.348 HD
ENDROOT
BRANCH   1   8
ATOM      8  C   UNL     1      -0.310  44.277  54.122  1.00  0.00     0.363 C 
BRANCH   8   9
ATOM      9  C   UNL     1       0.316  44.898  55.382  1.00  0.00     0.279 C 
ATOM     10  N   UNL     1      -0.563  45.691  56.100  1.00  0.00    -0.321 N 
ATOM     11  O   UNL     1       1.492  44.680  55.654  1.00  0.00    -0.268 OA
ATOM     12  H   UNL     1      -1.524  45.767  55.786  1.00  0.00     0.170 HD
BRANCH  10  13
ATOM     13  C   UNL     1      -0.279  46.433  57.269  1.00  0.00     0.041 A 
ATOM     14  C   UNL     1      -1.301  47.255  57.766  1.00  0.00     0.026 A 
ATOM     15  C   UNL     1       0.945  46.403  57.942  1.00  0.00     0.026 A 
ATOM     16  C   UNL     1      -1.102  48.032  58.910  1.00  0.00     0.002 A 
ATOM     17  C   UNL     1       1.142  47.178  59.090  1.00  0.00     0.002 A 
ATOM     18  C   UNL     1       0.121  47.993  59.573  1.00  0.00     0.000 A 
ENDBRANCH  10  13
ENDBRANCH   8   9
ENDBRANCH   1   8
BRANCH   4  19
ATOM     19  N   UNL     1       4.153  44.537  52.198  1.00  0.00    -0.367 N 
ATOM     20  H   UNL     1       4.346  43.796  52.877  1.00  0.00     0.162 HD
BRANCH  19  21
ATOM     21  C   UNL     1       5.408  44.803  51.592  1.00  0.00     0.131 A 
ATOM     22  C   UNL     1       5.837  43.943  50.607  1.00  0.00     0.067 A 
ATOM     23  N   UNL     1       6.150  45.844  51.994  1.00  0.00    -0.196 NA
ATOM     24  C   UNL     1       7.055  44.231  50.050  1.00  0.00     0.119 A 
ATOM     25  C   UNL     1       7.332  46.075  51.395  1.00  0.00     0.227 A 
ATOM     26  N   UNL     1       7.803  45.279  50.424  1.00  0.00    -0.221 NA
BRANCH  25  27
ATOM     27  N   UNL     1       8.075  47.187  51.775  1.00  0.00    -0.341 N 
ATOM     28  C   UNL     1       7.714  47.833  53.034  1.00  0.00     0.119 C 
ATOM     29  C   UNL     1       9.513  47.141  51.504  1.00  0.00     0.119 C 
ATOM     30  C   UNL     1       8.382  47.108  54.205  1.00  0.00     0.022 C 
ATOM     31  C   UNL     1      10.236  46.400  52.633  1.00  0.00     0.022 C 
ATOM     32  C   UNL     1       9.895  47.004  53.998  1.00  0.00     0.004 C 
ENDBRANCH  25  27
ENDBRANCH  19  21
ENDBRANCH   4  19
TORSDOF 6
ENDMDL
MODEL 3
REMARK VINA RESULT:    -8.751      2.374      3.711
REMARK INTER + INTRA:         -12.583
REMARK INTER:                 -11.985
REMARK INTRA:                  -0.598
REMARK UNBOUND:                -0.763
REMARK SMILES O=C(C[NH+]1CCC(Nc2ccnc(N3CCCCC3)n2)CC1)Nc1ccccc1
REMARK SMILES IDX 4 1 5 2 6 3 7 4 21 5 22 6 3 8 2 9 23 10 1 11 24 13 25 14
REMARK SMILES IDX 29 15 26 16 28 17 27 18 8 19 9 21 10 22 20 23 11 24 13 25
REMARK SMILES IDX 12 26 14 27 15 28 19 29 16 30 18 31 17 32
REMARK H PARENT 4 7 23 12 8 20
ROOT
ATOM      1  N   UNL     1       1.994  43.847  50.743  1.00  0.00    -0.327 N 
ATOM      2  C   UNL     1       2.614  45.118  51.277  1.00  0.00     0.264 C 
ATOM      3  C   UNL     1       4.050  45.207  50.789  1.00  0.00     0.086 C 
ATOM      4  C   UNL     1       4.886  43.999  51.242  1.00  0.00     0.091 C 
ATOM      5  C   UNL     1       4.192  42.704  50.788  1.00  0.00     0.086 C 
ATOM      6  C   UNL     1       2.740  42.633  51.249  1.00  0.00     0.264 C 
ATOM      7  H   UNL     1       2.095  43.858  49.721  1.00  0.00     0.348 HD
ENDROOT
BRANCH   1   8
ATOM      8  C   UNL     1       0.481  43.781  51.003  1.00  0.00     0.363 C 
BRANCH   8   9
ATOM      9  C   UNL     1      -0.027  44.582  52.213  1.00  0.00     0.279 C 
ATOM     10  N   UNL     1       0.254  43.981  53.428  1.00  0.00    -0.321 N 
ATOM     11  O   UNL     1      -0.628  45.637  52.042  1.00  0.00    -0.268 OA
ATOM     12  H   UNL     1       0.789  43.119  53.438  1.00  0.00     0.170 HD
BRANCH  10  13
ATOM     13  C   UNL     1      -0.121  44.441  54.712  1.00  0.00     0.041 A 
ATOM     14  C   UNL     1       0.859  45.112  55.458  1.00  0.00     0.026 A 
ATOM     15  C   UNL     1      -1.387  44.259  55.274  1.00  0.00     0.026 A 
ATOM     16  C   UNL     1       0.578  45.588  56.742  1.00  0.00     0.002 A 
ATOM     17  C   UNL     1      -1.668  44.741  56.557  1.00  0.00     0.002 A 
ATOM     18  C   UNL     1      -0.687  45.404  57.291  1.00  0.00     0.000 A 
ENDBRANCH  10  13
ENDBRANCH   8   9
ENDBRANCH   1   8
BRANCH   4  19
ATOM     19  N   UNL     1       5.036  43.967  52.704  1.00  0.00    -0.367 N 
ATOM     20  H   UNL     1       5.746  43.293  53.003  1.00  0.00     0.162 HD
BRANCH  19  21
ATOM     21  C   UNL     1       5.428  45.190  53.306  1.00  0.00     0.131 A 
ATOM     22  C   UNL     1       4.700  45.632  54.388  1.00  0.00     0.067 A 
ATOM     23  N   UNL     1       6.457  45.893  52.813  1.00  0.00    -0.196 NA
ATOM     24  C   UNL     1       5.105  46.818  54.939  1.00  0.00     0.119 A 
ATOM     25  C   UNL     1       6.808  47.046  53.411  1.00  0.00     0.227 A 
ATOM     26  N   UNL     1       6.145  47.526  54.472  1.00  0.00    -0.221 NA
BRANCH  25  27
ATOM     27  N   UNL     1       7.910  47.744  52.931  1.00  0.00    -0.341 N 
ATOM     28  C   UNL     1       9.048  47.901  53.833  1.00  0.00     0.119 C 
ATOM     29  C   UNL     1       8.270  47.522  51.529  1.00  0.00     0.119 C 
ATOM     30  C   UNL     1       9.937  46.655  53.775  1.00  0.00     0.022 C 
ATOM     31  C   UNL     1       9.140  46.267  51.404  1.00  0.00     0.022 C 
ATOM     32  C   UNL     1      10.351  46.340  52.337  1.00  0.00     0.004 C 
ENDBRANCH  25  27
ENDBRANCH  19  21
ENDBRANCH   4  19
TORSDOF 6
ENDMDL
MODEL 4
REMARK VINA RESULT:    -8.556      5.977     10.020
REMARK INTER + INTRA:         -12.320
REMARK INTER:                 -11.716
REMARK INTRA:                  -0.603
REMARK UNBOUND:                -0.763
REMARK SMILES O=C(C[NH+]1CCC(Nc2ccnc(N3CCCCC3)n2)CC1)Nc1ccccc1
REMARK SMILES IDX 4 1 5 2 6 3 7 4 21 5 22 6 3 8 2 9 23 10 1 11 24 13 25 14
REMARK SMILES IDX 29 15 26 16 28 17 27 18 8 19 9 21 10 22 20 23 11 24 13 25
REMARK SMILES IDX 12 26 14 27 15 28 19 29 16 30 18 31 17 32
REMARK H PARENT 4 7 23 12 8 20
ROOT
ATOM      1  N   UNL     1       4.718  40.838  48.085  1.00  0.00    -0.327 N 
ATOM      2  C   UNL     1       5.815  41.848  48.341  1.00  0.00     0.264 C 
ATOM      3  C   UNL     1       6.294  41.700  49.775  1.00  0.00     0.086 C 
ATOM      4  C   UNL     1       5.154  41.914  50.785  1.00  0.00     0.091 C 
ATOM      5  C   UNL     1       3.996  40.958  50.453  1.00  0.00     0.086 C 
ATOM      6  C   UNL     1       3.541  41.082  49.002  1.00  0.00     0.264 C 
ATOM      7  H   UNL     1       5.091  39.910  48.314  1.00  0.00     0.348 HD
ENDROOT
BRANCH   1   8
ATOM      8  C   UNL     1       4.326  40.765  46.601  1.00  0.00     0.363 C 
BRANCH   8   9
ATOM      9  C   UNL     1       3.160  39.823  46.262  1.00  0.00     0.279 C 
ATOM     10  N   UNL     1       3.483  38.482  46.378  1.00  0.00    -0.321 N 
ATOM     11  O   UNL     1       2.078  40.286  45.914  1.00  0.00    -0.268 OA
ATOM     12  H   UNL     1       4.408  38.227  46.708  1.00  0.00     0.170 HD
BRANCH  10  13
ATOM     13  C   UNL     1       2.649  37.377  46.091  1.00  0.00     0.041 A 
ATOM     14  C   UNL     1       1.727  37.002  47.080  1.00  0.00     0.026 A 
ATOM     15  C   UNL     1       2.696  36.643  44.904  1.00  0.00     0.026 A 
ATOM     16  C   UNL     1       0.872  35.914  46.884  1.00  0.00     0.002 A 
ATOM     17  C   UNL     1       1.837  35.557  44.707  1.00  0.00     0.002 A 
ATOM     18  C   UNL     1       0.927  35.191  45.696  1.00  0.00     0.000 A 
ENDBRANCH  10  13
ENDBRANCH   8   9
ENDBRANCH   1   8
BRANCH   4  19
ATOM     19  N   UNL     1       4.653  43.295  50.746  1.00  0.00    -0.367 N 
ATOM     20  H   UNL     1       3.654  43.348  50.964  1.00  0.00     0.162 HD
BRANCH  19  21
ATOM     21  C   UNL     1       5.267  44.196  51.654  1.00  0.00     0.131 A 
ATOM     22  C   UNL     1       4.833  44.182  52.960  1.00  0.00     0.067 A 
ATOM     23  N   UNL     1       6.216  45.043  51.233  1.00  0.00    -0.196 NA
ATOM     24  C   UNL     1       5.447  45.068  53.804  1.00  0.00     0.119 A 
ATOM     25  C   UNL     1       6.785  45.880  52.120  1.00  0.00     0.227 A 
ATOM     26  N   UNL     1       6.413  45.910  53.408  1.00  0.00    -0.221 NA
BRANCH  25  27
ATOM     27  N   UNL     1       7.808  46.719  51.694  1.00  0.00    -0.341 N 
ATOM     28  C   UNL     1       7.941  48.007  52.368  1.00  0.00     0.119 C 
ATOM     29  C   UNL     1       9.079  46.081  51.343  1.00  0.00     0.119 C 
ATOM     30  C   UNL     1       8.748  47.843  53.659  1.00  0.00     0.022 C 
ATOM     31  C   UNL     1       9.921  45.863  52.604  1.00  0.00     0.022 C 
ATOM     32  C   UNL     1      10.094  47.168  53.385  1.00  0.00     0.004 C 
ENDBRANCH  25  27
ENDBRANCH  19  21
ENDBRANCH   4  19
TORSDOF 6
ENDMDL
MODEL 5
REMARK VINA RESULT:    -8.515      2.856      5.039
REMARK INTER + INTRA:         -12.265
REMARK INTER:                 -11.604
REMARK INTRA:                  -0.661
REMARK UNBOUND:                -0.763
REMARK SMILES O=C(C[NH+]1CCC(Nc2ccnc(N3CCCCC3)n2)CC1)Nc1ccccc1
REMARK SMILES IDX 4 1 5 2 6 3 7 4 21 5 22 6 3 8 2 9 23 10 1 11 24 13 25 14
REMARK SMILES IDX 29 15 26 16 28 17 27 18 8 19 9 21 10 22 20 23 11 24 13 25
REMARK SMILES IDX 12 26 14 27 15 28 19 29 16 30 18 31 17 32
REMARK H PARENT 4 7 23 12 8 20
ROOT
ATOM      1  N   UNL     1       1.000  45.595  54.284  1.00  0.00    -0.327 N 
ATOM      2  C   UNL     1       2.095  45.043  55.169  1.00  0.00     0.264 C 
ATOM      3  C   UNL     1       3.284  45.988  55.128  1.00  0.00     0.086 C 
ATOM      4  C   UNL     1       3.823  46.170  53.700  1.00  0.00     0.091 C 
ATOM      5  C   UNL     1       2.678  46.629  52.781  1.00  0.00     0.086 C 
ATOM      6  C   UNL     1       1.472  45.699  52.851  1.00  0.00     0.264 C 
ATOM      7  H   UNL     1       0.795  46.550  54.602  1.00  0.00     0.348 HD
ENDROOT
BRANCH   1   8
ATOM      8  C   UNL     1      -0.319  44.822  54.434  1.00  0.00     0.363 C 
BRANCH   8   9
ATOM      9  C   UNL     1      -0.594  43.752  53.365  1.00  0.00     0.279 C 
ATOM     10  N   UNL     1      -1.610  44.096  52.489  1.00  0.00    -0.321 N 
ATOM     11  O   UNL     1       0.053  42.711  53.359  1.00  0.00    -0.268 OA
ATOM     12  H   UNL     1      -2.050  45.006  52.581  1.00  0.00     0.170 HD
BRANCH  10  13
ATOM     13  C   UNL     1      -2.128  43.310  51.435  1.00  0.00     0.041 A 
ATOM     14  C   UNL     1      -1.936  43.788  50.130  1.00  0.00     0.026 A 
ATOM     15  C   UNL     1      -2.817  42.108  51.615  1.00  0.00     0.026 A 
ATOM     16  C   UNL     1      -2.426  43.080  49.030  1.00  0.00     0.002 A 
ATOM     17  C   UNL     1      -3.303  41.398  50.512  1.00  0.00     0.002 A 
ATOM     18  C   UNL     1      -3.110  41.883  49.221  1.00  0.00     0.000 A 
ENDBRANCH  10  13
ENDBRANCH   8   9
ENDBRANCH   1   8
BRANCH   4  19
ATOM     19  N   UNL     1       4.380  44.917  53.172  1.00  0.00    -0.367 N 
ATOM     20  H   UNL     1       3.674  44.355  52.688  1.00  0.00     0.162 HD
BRANCH  19  21
ATOM     21  C   UNL     1       5.429  45.063  52.228  1.00  0.00     0.131 A 
ATOM     22  C   UNL     1       5.452  44.197  51.158  1.00  0.00     0.067 A 
ATOM     23  N   UNL     1       6.372  45.999  52.400  1.00  0.00    -0.196 NA
ATOM     24  C   UNL     1       6.482  44.367  50.272  1.00  0.00     0.119 A 
ATOM     25  C   UNL     1       7.351  46.117  51.483  1.00  0.00     0.227 A 
ATOM     26  N   UNL     1       7.425  45.311  50.415  1.00  0.00    -0.221 NA
BRANCH  25  27
ATOM     27  N   UNL     1       8.297  47.125  51.635  1.00  0.00    -0.341 N 
ATOM     28  C   UNL     1       8.014  48.165  52.619  1.00  0.00     0.119 C 
ATOM     29  C   UNL     1       9.703  46.722  51.561  1.00  0.00     0.119 C 
ATOM     30  C   UNL     1       8.435  47.695  54.014  1.00  0.00     0.022 C 
ATOM     31  C   UNL     1      10.176  46.214  52.926  1.00  0.00     0.022 C 
ATOM     32  C   UNL     1       9.896  47.242  54.026  1.00  0.00     0.004 C 
ENDBRANCH  25  27
ENDBRANCH  19  21
ENDBRANCH   4  19
TORSDOF 6
ENDMDL
MODEL 6
REMARK VINA RESULT:    -8.461      1.878      2.701
REMARK INTER + INTRA:         -12.192
REMARK INTER:                 -11.479
REMARK INTRA:                  -0.713
REMARK UNBOUND:                -0.763
REMARK SMILES O=C(C[NH+]1CCC(Nc2ccnc(N3CCCCC3)n2)CC1)Nc1ccccc1
REMARK SMILES IDX 4 1 5 2 6 3 7 4 21 5 22 6 3 8 2 9 23 10 1 11 24 13 25 14
REMARK SMILES IDX 29 15 26 16 28 17 27 18 8 19 9 21 10 22 20 23 11 24 13 25
REMARK SMILES IDX 12 26 14 27 15 28 19 29 16 30 18 31 17 32
REMARK H PARENT 4 7 23 12 8 20
ROOT
ATOM      1  N   UNL     1       2.277  44.526  53.502  1.00  0.00    -0.327 N 
ATOM      2  C   UNL     1       1.861  43.959  52.163  1.00  0.00     0.264 C 
ATOM      3  C   UNL     1       2.741  42.764  51.840  1.00  0.00     0.086 C 
ATOM      4  C   UNL     1       4.230  43.145  51.794  1.00  0.00     0.091 C 
ATOM      5  C   UNL     1       4.622  43.819  53.120  1.00  0.00     0.086 C 
ATOM      6  C   UNL     1       3.714  44.996  53.460  1.00  0.00     0.264 C 
ATOM      7  H   UNL     1       2.230  43.765  54.189  1.00  0.00     0.348 HD
ENDROOT
BRANCH   1   8
ATOM      8  C   UNL     1       1.303  45.599  54.011  1.00  0.00     0.363 C 
BRANCH   8   9
ATOM      9  C   UNL     1       0.573  45.272  55.324  1.00  0.00     0.279 C 
ATOM     10  N   UNL     1      -0.805  45.345  55.222  1.00  0.00    -0.321 N 
ATOM     11  O   UNL     1       1.217  44.996  56.331  1.00  0.00    -0.268 OA
ATOM     12  H   UNL     1      -1.220  45.554  54.320  1.00  0.00     0.170 HD
BRANCH  10  13
ATOM     13  C   UNL     1      -1.747  45.150  56.258  1.00  0.00     0.041 A 
ATOM     14  C   UNL     1      -2.150  43.830  56.512  1.00  0.00     0.026 A 
ATOM     15  C   UNL     1      -2.300  46.180  57.023  1.00  0.00     0.026 A 
ATOM     16  C   UNL     1      -3.086  43.548  57.510  1.00  0.00     0.002 A 
ATOM     17  C   UNL     1      -3.234  45.895  58.025  1.00  0.00     0.002 A 
ATOM     18  C   UNL     1      -3.629  44.582  58.268  1.00  0.00     0.000 A 
ENDBRANCH  10  13
ENDBRANCH   8   9
ENDBRANCH   1   8
BRANCH   4  19
ATOM     19  N   UNL     1       4.515  44.071  50.690  1.00  0.00    -0.367 N 
ATOM     20  H   UNL     1       4.065  44.980  50.824  1.00  0.00     0.162 HD
BRANCH  19  21
ATOM     21  C   UNL     1       5.885  44.377  50.485  1.00  0.00     0.131 A 
ATOM     22  C   UNL     1       6.634  43.493  49.742  1.00  0.00     0.067 A 
ATOM     23  N   UNL     1       6.423  45.481  51.023  1.00  0.00    -0.196 NA
ATOM     24  C   UNL     1       7.952  43.821  49.570  1.00  0.00     0.119 A 
ATOM     25  C   UNL     1       7.724  45.747  50.804  1.00  0.00     0.227 A 
ATOM     26  N   UNL     1       8.505  44.930  50.083  1.00  0.00    -0.221 NA
BRANCH  25  27
ATOM     27  N   UNL     1       8.266  46.920  51.317  1.00  0.00    -0.341 N 
ATOM     28  C   UNL     1       7.489  47.629  52.330  1.00  0.00     0.119 C 
ATOM     29  C   UNL     1       9.714  46.932  51.541  1.00  0.00     0.119 C 
ATOM     30  C   UNL     1       7.749  47.020  53.711  1.00  0.00     0.022 C 
ATOM     31  C   UNL     1      10.039  46.306  52.901  1.00  0.00     0.022 C 
ATOM     32  C   UNL     1       9.247  46.981  54.023  1.00  0.00     0.004 C 
ENDBRANCH  25  27
ENDBRANCH  19  21
ENDBRANCH   4  19
TORSDOF 6
ENDMDL
MODEL 7
REMARK VINA RESULT:    -8.404      4.477      6.802
REMARK INTER + INTRA:         -12.115
REMARK INTER:                 -12.336
REMARK INTRA:                   0.221
REMARK UNBOUND:                -0.763
REMARK SMILES O=C(C[NH+]1CCC(Nc2ccnc(N3CCCCC3)n2)CC1)Nc1ccccc1
REMARK SMILES IDX 4 1 5 2 6 3 7 4 21 5 22 6 3 8 2 9 23 10 1 11 24 13 25 14
REMARK SMILES IDX 29 15 26 16 28 17 27 18 8 19 9 21 10 22 20 23 11 24 13 25
REMARK SMILES IDX 12 26 14 27 15 28 19 29 16 30 18 31 17 32
REMARK H PARENT 4 7 23 12 8 20
ROOT
ATOM      1  N   UNL     1       6.174  42.995  49.780  1.00  0.00    -0.327 N 
ATOM      2  C   UNL     1       5.865  43.935  50.924  1.00  0.00     0.264 C 
ATOM      3  C   UNL     1       6.226  45.351  50.509  1.00  0.00     0.086 C 
ATOM      4  C   UNL     1       7.712  45.475  50.131  1.00  0.00     0.091 C 
ATOM      5  C   UNL     1       8.046  44.442  49.042  1.00  0.00     0.086 C 
ATOM      6  C   UNL     1       7.649  43.026  49.446  1.00  0.00     0.264 C 
ATOM      7  H   UNL     1       5.671  43.337  48.953  1.00  0.00     0.348 HD
ENDROOT
BRANCH   1   8
ATOM      8  C   UNL     1       5.638  41.577  50.028  1.00  0.00     0.363 C 
BRANCH   8   9
ATOM      9  C   UNL     1       4.133  41.471  50.321  1.00  0.00     0.279 C 
ATOM     10  N   UNL     1       3.634  42.546  51.036  1.00  0.00    -0.321 N 
ATOM     11  O   UNL     1       3.501  40.491  49.941  1.00  0.00    -0.268 OA
ATOM     12  H   UNL     1       4.256  43.314  51.265  1.00  0.00     0.170 HD
BRANCH  10  13
ATOM     13  C   UNL     1       2.310  42.720  51.499  1.00  0.00     0.041 A 
ATOM     14  C   UNL     1       2.066  42.440  52.851  1.00  0.00     0.026 A 
ATOM     15  C   UNL     1       1.245  43.138  50.697  1.00  0.00     0.026 A 
ATOM     16  C   UNL     1       0.783  42.573  53.389  1.00  0.00     0.002 A 
ATOM     17  C   UNL     1      -0.038  43.275  51.238  1.00  0.00     0.002 A 
ATOM     18  C   UNL     1      -0.270  42.992  52.582  1.00  0.00     0.000 A 
ENDBRANCH  10  13
ENDBRANCH   8   9
ENDBRANCH   1   8
BRANCH   4  19
ATOM     19  N   UNL     1       8.583  45.239  51.290  1.00  0.00    -0.367 N 
ATOM     20  H   UNL     1       9.572  45.370  51.061  1.00  0.00     0.162 HD
BRANCH  19  21
ATOM     21  C   UNL     1       8.360  46.085  52.407  1.00  0.00     0.131 A 
ATOM     22  C   UNL     1       9.334  47.007  52.717  1.00  0.00     0.067 A 
ATOM     23  N   UNL     1       7.245  45.961  53.141  1.00  0.00    -0.196 NA
ATOM     24  C   UNL     1       9.083  47.800  53.804  1.00  0.00     0.119 A 
ATOM     25  C   UNL     1       7.058  46.783  54.190  1.00  0.00     0.227 A 
ATOM     26  N   UNL     1       7.965  47.706  54.539  1.00  0.00    -0.221 NA
BRANCH  25  27
ATOM     27  N   UNL     1       5.876  46.689  54.917  1.00  0.00    -0.341 N 
ATOM     28  C   UNL     1       4.789  47.588  54.543  1.00  0.00     0.119 C 
ATOM     29  C   UNL     1       5.448  45.343  55.305  1.00  0.00     0.119 C 
ATOM     30  C   UNL     1       4.000  46.998  53.371  1.00  0.00     0.022 C 
ATOM     31  C   UNL     1       4.675  44.688  54.157  1.00  0.00     0.022 C 
ATOM     32  C   UNL     1       3.522  45.579  53.687  1.00  0.00     0.004 C 
ENDBRANCH  25  27
ENDBRANCH  19  21
ENDBRANCH   4  19
TORSDOF 6
ENDMDL
MODEL 8
REMARK VINA RESULT:    -8.380      2.017      2.337
REMARK INTER + INTRA:         -12.082
REMARK INTER:                 -11.817
REMARK INTRA:                  -0.264
REMARK UNBOUND:                -0.763
REMARK SMILES O=C(C[NH+]1CCC(Nc2ccnc(N3CCCCC3)n2)CC1)Nc1ccccc1
REMARK SMILES IDX 4 1 5 2 6 3 7 4 21 5 22 6 3 8 2 9 23 10 1 11 24 13 25 14
REMARK SMILES IDX 29 15 26 16 28 17 27 18 8 19 9 21 10 22 20 23 11 24 13 25
REMARK SMILES IDX 12 26 14 27 15 28 19 29 16 30 18 31 17 32
REMARK H PARENT 4 7 23 12 8 20
ROOT
ATOM      1  N   UNL     1       0.913  45.591  53.057  1.00  0.00    -0.327 N 
ATOM      2  C   UNL     1       1.645  44.887  54.178  1.00  0.00     0.264 C 
ATOM      3  C   UNL     1       2.808  45.756  54.627  1.00  0.00     0.086 C 
ATOM      4  C   UNL     1       3.787  46.043  53.476  1.00  0.00     0.091 C 
ATOM      5  C   UNL     1       3.016  46.660  52.297  1.00  0.00     0.086 C 
ATOM      6  C   UNL     1       1.828  45.804  51.872  1.00  0.00     0.264 C 
ATOM      7  H   UNL     1       0.642  46.520  53.399  1.00  0.00     0.348 HD
ENDROOT
BRANCH   1   8
ATOM      8  C   UNL     1      -0.404  44.890  52.689  1.00  0.00     0.363 C 
BRANCH   8   9
ATOM      9  C   UNL     1      -1.191  44.284  53.862  1.00  0.00     0.279 C 
ATOM     10  N   UNL     1      -1.646  45.228  54.766  1.00  0.00    -0.321 N 
ATOM     11  O   UNL     1      -1.349  43.070  53.932  1.00  0.00    -0.268 OA
ATOM     12  H   UNL     1      -1.477  46.211  54.577  1.00  0.00     0.170 HD
BRANCH  10  13
ATOM     13  C   UNL     1      -2.355  44.986  55.965  1.00  0.00     0.041 A 
ATOM     14  C   UNL     1      -3.128  46.041  56.473  1.00  0.00     0.026 A 
ATOM     15  C   UNL     1      -2.321  43.780  56.669  1.00  0.00     0.026 A 
ATOM     16  C   UNL     1      -3.849  45.893  57.660  1.00  0.00     0.002 A 
ATOM     17  C   UNL     1      -3.048  43.630  57.855  1.00  0.00     0.002 A 
ATOM     18  C   UNL     1      -3.810  44.685  58.351  1.00  0.00     0.000 A 
ENDBRANCH  10  13
ENDBRANCH   8   9
ENDBRANCH   1   8
BRANCH   4  19
ATOM     19  N   UNL     1       4.451  44.815  53.017  1.00  0.00    -0.367 N 
ATOM     20  H   UNL     1       3.799  44.172  52.561  1.00  0.00     0.162 HD
BRANCH  19  21
ATOM     21  C   UNL     1       5.492  45.000  52.071  1.00  0.00     0.131 A 
ATOM     22  C   UNL     1       5.515  44.168  50.974  1.00  0.00     0.067 A 
ATOM     23  N   UNL     1       6.429  45.939  52.265  1.00  0.00    -0.196 NA
ATOM     24  C   UNL     1       6.537  44.374  50.087  1.00  0.00     0.119 A 
ATOM     25  C   UNL     1       7.399  46.094  51.345  1.00  0.00     0.227 A 
ATOM     26  N   UNL     1       7.472  45.321  50.252  1.00  0.00    -0.221 NA
BRANCH  25  27
ATOM     27  N   UNL     1       8.337  47.105  51.521  1.00  0.00    -0.341 N 
ATOM     28  C   UNL     1       8.040  48.127  52.521  1.00  0.00     0.119 C 
ATOM     29  C   UNL     1       9.747  46.713  51.451  1.00  0.00     0.119 C 
ATOM     30  C   UNL     1       8.453  47.636  53.911  1.00  0.00     0.022 C 
ATOM     31  C   UNL     1      10.212  46.184  52.811  1.00  0.00     0.022 C 
ATOM     32  C   UNL     1       9.918  47.191  53.926  1.00  0.00     0.004 C 
ENDBRANCH  25  27
ENDBRANCH  19  21
ENDBRANCH   4  19
TORSDOF 6
ENDMDL
MODEL 9
REMARK VINA RESULT:    -8.351      4.519      9.278
REMARK INTER + INTRA:         -12.042
REMARK INTER:                 -11.882
REMARK INTRA:                  -0.160
REMARK UNBOUND:                -0.763
REMARK SMILES O=C(C[NH+]1CCC(Nc2ccnc(N3CCCCC3)n2)CC1)Nc1ccccc1
REMARK SMILES IDX 4 1 5 2 6 3 7 4 21 5 22 6 3 8 2 9 23 10 1 11 24 13 25 14
REMARK SMILES IDX 29 15 26 16 28 17 27 18 8 19 9 21 10 22 20 23 11 24 13 25
REMARK SMILES IDX 12 26 14 27 15 28 19 29 16 30 18 31 17 32
REMARK H PARENT 4 7 23 12 8 20
ROOT
ATOM      1  N   UNL     1       6.280  42.949  49.704  1.00  0.00    -0.327 N 
ATOM      2  C   UNL     1       5.936  43.799  50.906  1.00  0.00     0.264 C 
ATOM      3  C   UNL     1       6.178  45.259  50.561  1.00  0.00     0.086 C 
ATOM      4  C   UNL     1       7.637  45.516  50.151  1.00  0.00     0.091 C 
ATOM      5  C   UNL     1       8.014  44.572  48.998  1.00  0.00     0.086 C 
ATOM      6  C   UNL     1       7.737  43.110  49.333  1.00  0.00     0.264 C 
ATOM      7  H   UNL     1       5.727  43.295  48.911  1.00  0.00     0.348 HD
ENDROOT
BRANCH   1   8
ATOM      8  C   UNL     1       5.859  41.482  49.886  1.00  0.00     0.363 C 
BRANCH   8   9
ATOM      9  C   UNL     1       4.562  41.064  49.176  1.00  0.00     0.279 C 
ATOM     10  N   UNL     1       4.751  40.698  47.854  1.00  0.00    -0.321 N 
ATOM     11  O   UNL     1       3.495  41.090  49.781  1.00  0.00    -0.268 OA
ATOM     12  H   UNL     1       5.692  40.688  47.477  1.00  0.00     0.170 HD
BRANCH  10  13
ATOM     13  C   UNL     1       3.755  40.314  46.926  1.00  0.00     0.041 A 
ATOM     14  C   UNL     1       3.162  39.057  47.114  1.00  0.00     0.026 A 
ATOM     15  C   UNL     1       3.343  41.096  45.845  1.00  0.00     0.026 A 
ATOM     16  C   UNL     1       2.178  38.592  46.237  1.00  0.00     0.002 A 
ATOM     17  C   UNL     1       2.355  40.633  44.970  1.00  0.00     0.002 A 
ATOM     18  C   UNL     1       1.774  39.381  45.164  1.00  0.00     0.000 A 
ENDBRANCH  10  13
ENDBRANCH   8   9
ENDBRANCH   1   8
BRANCH   4  19
ATOM     19  N   UNL     1       8.560  45.286  51.271  1.00  0.00    -0.367 N 
ATOM     20  H   UNL     1       9.535  45.452  51.008  1.00  0.00     0.162 HD
BRANCH  19  21
ATOM     21  C   UNL     1       8.353  46.102  52.413  1.00  0.00     0.131 A 
ATOM     22  C   UNL     1       9.321  47.032  52.719  1.00  0.00     0.067 A 
ATOM     23  N   UNL     1       7.260  45.944  53.173  1.00  0.00    -0.196 NA
ATOM     24  C   UNL     1       9.088  47.797  53.830  1.00  0.00     0.119 A 
ATOM     25  C   UNL     1       7.089  46.739  54.245  1.00  0.00     0.227 A 
ATOM     26  N   UNL     1       7.991  47.668  54.592  1.00  0.00    -0.221 NA
BRANCH  25  27
ATOM     27  N   UNL     1       5.929  46.610  55.000  1.00  0.00    -0.341 N 
ATOM     28  C   UNL     1       4.806  47.477  54.654  1.00  0.00     0.119 C 
ATOM     29  C   UNL     1       5.550  45.252  55.397  1.00  0.00     0.119 C 
ATOM     30  C   UNL     1       4.007  46.864  53.501  1.00  0.00     0.022 C 
ATOM     31  C   UNL     1       4.769  44.574  54.268  1.00  0.00     0.022 C 
ATOM     32  C   UNL     1       3.579  45.431  53.827  1.00  0.00     0.004 C 
ENDBRANCH  25  27
ENDBRANCH  19  21
ENDBRANCH   4  19
TORSDOF 6
ENDMDL
MODEL 10
REMARK VINA RESULT:    -8.264      2.203      3.258
REMARK INTER + INTRA:         -11.926
REMARK INTER:                 -11.138
REMARK INTRA:                  -0.788
REMARK UNBOUND:                -0.763
REMARK SMILES O=C(C[NH+]1CCC(Nc2ccnc(N3CCCCC3)n2)CC1)Nc1ccccc1
REMARK SMILES IDX 4 1 5 2 6 3 7 4 21 5 22 6 3 8 2 9 23 10 1 11 24 13 25 14
REMARK SMILES IDX 29 15 26 16 28 17 27 18 8 19 9 21 10 22 20 23 11 24 13 25
REMARK SMILES IDX 12 26 14 27 15 28 19 29 16 30 18 31 17 32
REMARK H PARENT 4 7 23 12 8 20
ROOT
ATOM      1  N   UNL     1       1.953  42.737  51.954  1.00  0.00    -0.327 N 
ATOM      2  C   UNL     1       2.378  42.182  50.613  1.00  0.00     0.264 C 
ATOM      3  C   UNL     1       3.756  41.557  50.754  1.00  0.00     0.086 C 
ATOM      4  C   UNL     1       4.800  42.576  51.241  1.00  0.00     0.091 C 
ATOM      5  C   UNL     1       4.311  43.215  52.551  1.00  0.00     0.086 C 
ATOM      6  C   UNL     1       2.913  43.810  52.418  1.00  0.00     0.264 C 
ATOM      7  H   UNL     1       2.005  41.972  52.637  1.00  0.00     0.348 HD
ENDROOT
BRANCH   1   8
ATOM      8  C   UNL     1       0.486  43.191  51.960  1.00  0.00     0.363 C 
BRANCH   8   9
ATOM      9  C   UNL     1       0.148  44.355  52.906  1.00  0.00     0.279 C 
ATOM     10  N   UNL     1       0.091  43.983  54.238  1.00  0.00    -0.321 N 
ATOM     11  O   UNL     1      -0.053  45.476  52.452  1.00  0.00    -0.268 OA
ATOM     12  H   UNL     1       0.310  43.025  54.491  1.00  0.00     0.170 HD
BRANCH  10  13
ATOM     13  C   UNL     1      -0.241  44.807  55.339  1.00  0.00     0.041 A 
ATOM     14  C   UNL     1       0.814  45.217  56.168  1.00  0.00     0.026 A 
ATOM     15  C   UNL     1      -1.539  45.221  55.648  1.00  0.00     0.026 A 
ATOM     16  C   UNL     1       0.574  46.022  57.285  1.00  0.00     0.002 A 
ATOM     17  C   UNL     1      -1.777  46.032  56.763  1.00  0.00     0.002 A 
ATOM     18  C   UNL     1      -0.723  46.430  57.582  1.00  0.00     0.000 A 
ENDBRANCH  10  13
ENDBRANCH   8   9
ENDBRANCH   1   8
BRANCH   4  19
ATOM     19  N   UNL     1       5.019  43.637  50.249  1.00  0.00    -0.367 N 
ATOM     20  H   UNL     1       4.416  44.448  50.413  1.00  0.00     0.162 HD
BRANCH  19  21
ATOM     21  C   UNL     1       6.333  44.172  50.204  1.00  0.00     0.131 A 
ATOM     22  C   UNL     1       7.280  43.481  49.483  1.00  0.00     0.067 A 
ATOM     23  N   UNL     1       6.631  45.298  50.867  1.00  0.00    -0.196 NA
ATOM     24  C   UNL     1       8.536  44.027  49.467  1.00  0.00     0.119 A 
ATOM     25  C   UNL     1       7.884  45.784  50.798  1.00  0.00     0.227 A 
ATOM     26  N   UNL     1       8.850  45.163  50.107  1.00  0.00    -0.221 NA
BRANCH  25  27
ATOM     27  N   UNL     1       8.178  46.981  51.442  1.00  0.00    -0.341 N 
ATOM     28  C   UNL     1       7.207  47.473  52.415  1.00  0.00     0.119 C 
ATOM     29  C   UNL     1       9.578  47.203  51.812  1.00  0.00     0.119 C 
ATOM     30  C   UNL     1       7.439  46.801  53.771  1.00  0.00     0.022 C 
ATOM     31  C   UNL     1       9.879  46.526  53.153  1.00  0.00     0.022 C 
ATOM     32  C   UNL     1       8.888  46.973  54.231  1.00  0.00     0.004 C 
ENDBRANCH  25  27
ENDBRANCH  19  21
ENDBRANCH   4  19
TORSDOF 6
ENDMDL
