MODEL 1
REMARK VINA RESULT:    -9.478      0.000      0.000
REMARK INTER + INTRA:         -14.614
REMARK INTER:                 -12.802
REMARK INTRA:                  -1.812
REMARK UNBOUND:                -1.812
REMARK SMILES Cn1c(COc2ccccc2C(=O)Nc2ccccc2)nnc1C1CCC1
REMARK SMILES IDX 5 1 4 2 3 3 2 4 23 5 21 6 22 7 1 8 24 9 25 10 27 11 26 12
REMARK SMILES IDX 6 13 7 14 11 15 8 16 10 17 9 18 12 19 14 20 13 21 15 23
REMARK SMILES IDX 16 24 20 25 17 26 19 27 18 28
REMARK H PARENT 14 22
ROOT
ATOM      1  O   UNL     1       2.427  46.174  53.853  1.00  0.00    -0.485 OA
ENDROOT
BRANCH   1   2
ATOM      2  C   UNL     1       3.409  46.400  54.875  1.00  0.00     0.307 C 
BRANCH   2   3
ATOM      3  C   UNL     1       4.734  46.696  54.268  1.00  0.00     0.170 A 
ATOM      4  N   UNL     1       5.826  45.856  54.259  1.00  0.00    -0.315 N 
ATOM      5  C   UNL     1       6.830  46.554  53.636  1.00  0.00     0.135 A 
ATOM      6  N   UNL     1       5.051  47.811  53.644  1.00  0.00    -0.132 NA
ATOM      7  N   UNL     1       6.357  47.722  53.252  1.00  0.00    -0.135 NA
ATOM      8  C   UNL     1       5.880  44.531  54.821  1.00  0.00     0.153 C 
BRANCH   5   9
ATOM      9  C   UNL     1       8.314  46.175  53.358  1.00  0.00     0.058 C 
ATOM     10  C   UNL     1       9.390  47.152  53.878  1.00  0.00     0.012 C 
ATOM     11  C   UNL     1       8.878  46.402  51.940  1.00  0.00     0.012 C 
ATOM     12  C   UNL     1      10.206  46.812  52.612  1.00  0.00     0.001 C 
ENDBRANCH   5   9
ENDBRANCH   2   3
ENDBRANCH   1   2
BRANCH   1  13
ATOM     13  C   UNL     1       1.415  45.275  54.077  1.00  0.00     0.132 A 
ATOM     14  C   UNL     1       0.536  45.354  55.165  1.00  0.00     0.047 A 
ATOM     15  C   UNL     1       1.264  44.223  53.148  1.00  0.00     0.082 A 
ATOM     16  C   UNL     1      -0.471  44.399  55.337  1.00  0.00     0.004 A 
ATOM     17  C   UNL     1       0.253  43.265  53.342  1.00  0.00     0.018 A 
ATOM     18  C   UNL     1      -0.612  43.355  54.430  1.00  0.00     0.001 A 
BRANCH  15  19
ATOM     19  C   UNL     1       2.166  44.018  51.967  1.00  0.00     0.259 C 
ATOM     20  N   UNL     1       3.485  43.730  52.261  1.00  0.00    -0.322 N 
ATOM     21  O   UNL     1       1.686  44.125  50.843  1.00  0.00    -0.269 OA
ATOM     22  H   UNL     1       3.713  43.689  53.250  1.00  0.00     0.170 HD
BRANCH  20  23
ATOM     23  C   UNL     1       4.535  43.445  51.369  1.00  0.00     0.041 A 
ATOM     24  C   UNL     1       4.616  42.136  50.877  1.00  0.00     0.026 A 
ATOM     25  C   UNL     1       5.479  44.383  50.947  1.00  0.00     0.026 A 
ATOM     26  C   UNL     1       5.622  41.772  49.977  1.00  0.00     0.002 A 
ATOM     27  C   UNL     1       6.485  44.019  50.047  1.00  0.00     0.002 A 
ATOM     28  C   UNL     1       6.557  42.715  49.561  1.00  0.00     0.000 A 
ENDBRANCH  20  23
ENDBRANCH  15  19
ENDBRANCH   1  13
TORSDOF 6
ENDMDL
MODEL 2
REMARK VINA RESULT:    -8.972      1.932      6.081
REMARK INTER + INTRA:         -13.930
REMARK INTER:                 -11.935
REMARK INTRA:                  -1.996
REMARK UNBOUND:                -1.812
REMARK SMILES Cn1c(COc2ccccc2C(=O)Nc2ccccc2)nnc1C1CCC1
REMARK SMILES IDX 5 1 4 2 3 3 2 4 23 5 21 6 22 7 1 8 24 9 25 10 27 11 26 12
REMARK SMILES IDX 6 13 7 14 11 15 8 16 10 17 9 18 12 19 14 20 13 21 15 23
REMARK SMILES IDX 16 24 20 25 17 26 19 27 18 28
REMARK H PARENT 14 22
ROOT
ATOM      1  O   UNL     1       5.878  46.253  54.092  1.00  0.00    -0.485 OA
ENDROOT
BRANCH   1   2
ATOM      2  C   UNL     1       4.878  47.278  54.188  1.00  0.00     0.307 C 
BRANCH   2   3
ATOM      3  C   UNL     1       3.579  46.792  53.651  1.00  0.00     0.170 A 
ATOM      4  N   UNL     1       2.702  45.948  54.297  1.00  0.00    -0.315 N 
ATOM      5  C   UNL     1       1.670  45.737  53.418  1.00  0.00     0.135 A 
ATOM      6  N   UNL     1       3.078  47.107  52.475  1.00  0.00    -0.132 NA
ATOM      7  N   UNL     1       1.889  46.449  52.331  1.00  0.00    -0.135 NA
ATOM      8  C   UNL     1       2.873  45.395  55.615  1.00  0.00     0.153 C 
BRANCH   5   9
ATOM      9  C   UNL     1       0.398  44.846  53.533  1.00  0.00     0.058 C 
ATOM     10  C   UNL     1       0.624  43.339  53.778  1.00  0.00     0.012 C 
ATOM     11  C   UNL     1      -0.351  44.463  52.240  1.00  0.00     0.012 C 
ATOM     12  C   UNL     1      -0.607  43.083  52.883  1.00  0.00     0.001 C 
ENDBRANCH   5   9
ENDBRANCH   2   3
ENDBRANCH   1   2
BRANCH   1  13
ATOM     13  C   UNL     1       7.078  46.535  53.489  1.00  0.00     0.132 A 
ATOM     14  C   UNL     1       8.120  47.221  54.125  1.00  0.00     0.047 A 
ATOM     15  C   UNL     1       7.255  46.098  52.159  1.00  0.00     0.082 A 
ATOM     16  C   UNL     1       9.317  47.481  53.450  1.00  0.00     0.004 A 
ATOM     17  C   UNL     1       8.460  46.377  51.491  1.00  0.00     0.018 A 
ATOM     18  C   UNL     1       9.487  47.063  52.135  1.00  0.00     0.001 A 
BRANCH  15  19
ATOM     19  C   UNL     1       6.197  45.386  51.368  1.00  0.00     0.259 C 
ATOM     20  N   UNL     1       5.945  44.080  51.743  1.00  0.00    -0.322 N 
ATOM     21  O   UNL     1       5.644  45.993  50.458  1.00  0.00    -0.269 OA
ATOM     22  H   UNL     1       6.505  43.731  52.514  1.00  0.00     0.170 HD
BRANCH  20  23
ATOM     23  C   UNL     1       4.987  43.193  51.220  1.00  0.00     0.041 A 
ATOM     24  C   UNL     1       5.459  42.146  50.417  1.00  0.00     0.026 A 
ATOM     25  C   UNL     1       3.616  43.291  51.460  1.00  0.00     0.026 A 
ATOM     26  C   UNL     1       4.575  41.212  49.867  1.00  0.00     0.002 A 
ATOM     27  C   UNL     1       2.731  42.358  50.911  1.00  0.00     0.002 A 
ATOM     28  C   UNL     1       3.210  41.319  50.116  1.00  0.00     0.000 A 
ENDBRANCH  20  23
ENDBRANCH  15  19
ENDBRANCH   1  13
TORSDOF 6
ENDMDL
MODEL 3
REMARK VINA RESULT:    -8.880      0.817      1.688
REMARK INTER + INTRA:         -13.806
REMARK INTER:                 -12.093
REMARK INTRA:                  -1.713
REMARK UNBOUND:                -1.812
REMARK SMILES Cn1c(COc2ccccc2C(=O)Nc2ccccc2)nnc1C1CCC1
REMARK SMILES IDX 5 1 4 2 3 3 2 4 23 5 21 6 22 7 1 8 24 9 25 10 27 11 26 12
REMARK SMILES IDX 6 13 7 14 11 15 8 16 10 17 9 18 12 19 14 20 13 21 15 23
REMARK SMILES IDX 16 24 20 25 17 26 19 27 18 28
REMARK H PARENT 14 22
ROOT
ATOM      1  O   UNL     1       2.302  45.795  54.278  1.00  0.00    -0.485 OA
ENDROOT
BRANCH   1   2
ATOM      2  C   UNL     1       3.282  45.765  55.326  1.00  0.00     0.307 C 
BRANCH   2   3
ATOM      3  C   UNL     1       4.655  45.834  54.759  1.00  0.00     0.170 A 
ATOM      4  N   UNL     1       5.202  46.907  54.090  1.00  0.00    -0.315 N 
ATOM      5  C   UNL     1       6.461  46.511  53.714  1.00  0.00     0.135 A 
ATOM      6  N   UNL     1       5.551  44.870  54.821  1.00  0.00    -0.132 NA
ATOM      7  N   UNL     1       6.675  45.294  54.169  1.00  0.00    -0.135 NA
ATOM      8  C   UNL     1       4.551  48.165  53.833  1.00  0.00     0.153 C 
BRANCH   5   9
ATOM      9  C   UNL     1       7.558  47.249  52.892  1.00  0.00     0.058 C 
ATOM     10  C   UNL     1       8.150  46.492  51.685  1.00  0.00     0.012 C 
ATOM     11  C   UNL     1       8.986  47.322  53.471  1.00  0.00     0.012 C 
ATOM     12  C   UNL     1       9.503  47.153  52.026  1.00  0.00     0.001 C 
ENDBRANCH   5   9
ENDBRANCH   2   3
ENDBRANCH   1   2
BRANCH   1  13
ATOM     13  C   UNL     1       1.151  45.059  54.408  1.00  0.00     0.132 A 
ATOM     14  C   UNL     1       0.268  45.191  55.487  1.00  0.00     0.047 A 
ATOM     15  C   UNL     1       0.856  44.129  53.389  1.00  0.00     0.082 A 
ATOM     16  C   UNL     1      -0.886  44.404  55.562  1.00  0.00     0.004 A 
ATOM     17  C   UNL     1      -0.303  43.339  53.484  1.00  0.00     0.018 A 
ATOM     18  C   UNL     1      -1.171  43.478  54.565  1.00  0.00     0.001 A 
BRANCH  15  19
ATOM     19  C   UNL     1       1.744  43.879  52.206  1.00  0.00     0.259 C 
ATOM     20  N   UNL     1       3.030  43.468  52.498  1.00  0.00    -0.322 N 
ATOM     21  O   UNL     1       1.283  44.058  51.084  1.00  0.00    -0.269 OA
ATOM     22  H   UNL     1       3.248  43.380  53.485  1.00  0.00     0.170 HD
BRANCH  20  23
ATOM     23  C   UNL     1       4.058  43.117  51.602  1.00  0.00     0.041 A 
ATOM     24  C   UNL     1       4.960  44.127  51.240  1.00  0.00     0.026 A 
ATOM     25  C   UNL     1       4.230  41.838  51.071  1.00  0.00     0.026 A 
ATOM     26  C   UNL     1       6.016  43.860  50.364  1.00  0.00     0.002 A 
ATOM     27  C   UNL     1       5.287  41.571  50.195  1.00  0.00     0.002 A 
ATOM     28  C   UNL     1       6.180  42.580  49.843  1.00  0.00     0.000 A 
ENDBRANCH  20  23
ENDBRANCH  15  19
ENDBRANCH   1  13
TORSDOF 6
ENDMDL
MODEL 4
REMARK VINA RESULT:    -8.763      1.580      5.042
REMARK INTER + INTRA:         -13.649
REMARK INTER:                 -12.539
REMARK INTRA:                  -1.110
REMARK UNBOUND:                -1.812
REMARK SMILES Cn1c(COc2ccccc2C(=O)Nc2ccccc2)nnc1C1CCC1
REMARK SMILES IDX 5 1 4 2 3 3 2 4 23 5 21 6 22 7 1 8 24 9 25 10 27 11 26 12
REMARK SMILES IDX 6 13 7 14 11 15 8 16 10 17 9 18 12 19 14 20 13 21 15 23
REMARK SMILES IDX 16 24 20 25 17 26 19 27 18 28
REMARK H PARENT 14 22
ROOT
ATOM      1  O   UNL     1       4.783  44.123  51.649  1.00  0.00    -0.485 OA
ENDROOT
BRANCH   1   2
ATOM      2  C   UNL     1       5.006  45.427  51.092  1.00  0.00     0.307 C 
BRANCH   2   3
ATOM      3  C   UNL     1       5.856  46.243  51.999  1.00  0.00     0.170 A 
ATOM      4  N   UNL     1       7.229  46.342  51.951  1.00  0.00    -0.315 N 
ATOM      5  C   UNL     1       7.582  47.161  52.994  1.00  0.00     0.135 A 
ATOM      6  N   UNL     1       5.410  46.998  52.982  1.00  0.00    -0.132 NA
ATOM      7  N   UNL     1       6.486  47.568  53.601  1.00  0.00    -0.135 NA
ATOM      8  C   UNL     1       8.092  45.686  51.004  1.00  0.00     0.153 C 
BRANCH   5   9
ATOM      9  C   UNL     1       8.981  47.620  53.501  1.00  0.00     0.058 C 
ATOM     10  C   UNL     1       9.938  46.516  53.997  1.00  0.00     0.012 C 
ATOM     11  C   UNL     1       9.083  48.256  54.903  1.00  0.00     0.012 C 
ATOM     12  C   UNL     1      10.433  47.522  55.058  1.00  0.00     0.001 C 
ENDBRANCH   5   9
ENDBRANCH   2   3
ENDBRANCH   1   2
BRANCH   1  13
ATOM     13  C   UNL     1       4.832  43.022  50.831  1.00  0.00     0.132 A 
ATOM     14  C   UNL     1       5.995  42.596  50.177  1.00  0.00     0.047 A 
ATOM     15  C   UNL     1       3.638  42.291  50.655  1.00  0.00     0.082 A 
ATOM     16  C   UNL     1       5.974  41.468  49.351  1.00  0.00     0.004 A 
ATOM     17  C   UNL     1       3.631  41.165  49.813  1.00  0.00     0.018 A 
ATOM     18  C   UNL     1       4.795  40.754  49.167  1.00  0.00     0.001 A 
BRANCH  15  19
ATOM     19  C   UNL     1       2.327  42.673  51.277  1.00  0.00     0.259 C 
ATOM     20  N   UNL     1       2.352  42.894  52.640  1.00  0.00    -0.322 N 
ATOM     21  O   UNL     1       1.341  42.754  50.552  1.00  0.00    -0.269 OA
ATOM     22  H   UNL     1       3.255  42.772  53.087  1.00  0.00     0.170 HD
BRANCH  20  23
ATOM     23  C   UNL     1       1.297  43.307  53.476  1.00  0.00     0.041 A 
ATOM     24  C   UNL     1       1.492  44.482  54.214  1.00  0.00     0.026 A 
ATOM     25  C   UNL     1       0.086  42.626  53.600  1.00  0.00     0.026 A 
ATOM     26  C   UNL     1       0.490  44.968  55.060  1.00  0.00     0.002 A 
ATOM     27  C   UNL     1      -0.916  43.112  54.446  1.00  0.00     0.002 A 
ATOM     28  C   UNL     1      -0.716  44.282  55.174  1.00  0.00     0.000 A 
ENDBRANCH  20  23
ENDBRANCH  15  19
ENDBRANCH   1  13
TORSDOF 6
ENDMDL
MODEL 5
REMARK VINA RESULT:    -8.020      2.073      6.296
REMARK INTER + INTRA:         -12.644
REMARK INTER:                 -12.041
REMARK INTRA:                  -0.603
REMARK UNBOUND:                -1.812
REMARK SMILES Cn1c(COc2ccccc2C(=O)Nc2ccccc2)nnc1C1CCC1
REMARK SMILES IDX 5 1 4 2 3 3 2 4 23 5 21 6 22 7 1 8 24 9 25 10 27 11 26 12
REMARK SMILES IDX 6 13 7 14 11 15 8 16 10 17 9 18 12 19 14 20 13 21 15 23
REMARK SMILES IDX 16 24 20 25 17 26 19 27 18 28
REMARK H PARENT 14 22
ROOT
ATOM      1  O   UNL     1       5.717  46.534  51.816  1.00  0.00    -0.485 OA
ENDROOT
BRANCH   1   2
ATOM      2  C   UNL     1       4.826  47.246  52.687  1.00  0.00     0.307 C 
BRANCH   2   3
ATOM      3  C   UNL     1       4.071  46.297  53.548  1.00  0.00     0.170 A 
ATOM      4  N   UNL     1       2.831  45.763  53.271  1.00  0.00    -0.315 N 
ATOM      5  C   UNL     1       2.509  44.984  54.353  1.00  0.00     0.135 A 
ATOM      6  N   UNL     1       4.487  45.826  54.705  1.00  0.00    -0.132 NA
ATOM      7  N   UNL     1       3.513  45.008  55.206  1.00  0.00    -0.135 NA
ATOM      8  C   UNL     1       2.047  46.012  52.090  1.00  0.00     0.153 C 
BRANCH   5   9
ATOM      9  C   UNL     1       1.228  44.157  54.669  1.00  0.00     0.058 C 
ATOM     10  C   UNL     1       0.925  42.962  53.741  1.00  0.00     0.012 C 
ATOM     11  C   UNL     1      -0.142  44.741  54.266  1.00  0.00     0.012 C 
ATOM     12  C   UNL     1      -0.572  43.300  53.914  1.00  0.00     0.001 C 
ENDBRANCH   5   9
ENDBRANCH   2   3
ENDBRANCH   1   2
BRANCH   1  13
ATOM     13  C   UNL     1       7.073  46.693  51.961  1.00  0.00     0.132 A 
ATOM     14  C   UNL     1       7.654  47.709  52.731  1.00  0.00     0.047 A 
ATOM     15  C   UNL     1       7.909  45.772  51.296  1.00  0.00     0.082 A 
ATOM     16  C   UNL     1       9.045  47.818  52.830  1.00  0.00     0.004 A 
ATOM     17  C   UNL     1       9.305  45.901  51.398  1.00  0.00     0.018 A 
ATOM     18  C   UNL     1       9.870  46.919  52.165  1.00  0.00     0.001 A 
BRANCH  15  19
ATOM     19  C   UNL     1       7.400  44.666  50.419  1.00  0.00     0.259 C 
ATOM     20  N   UNL     1       6.341  43.937  50.926  1.00  0.00    -0.322 N 
ATOM     21  O   UNL     1       7.947  44.482  49.337  1.00  0.00    -0.269 OA
ATOM     22  H   UNL     1       6.016  44.220  51.845  1.00  0.00     0.170 HD
BRANCH  20  23
ATOM     23  C   UNL     1       5.634  42.885  50.314  1.00  0.00     0.041 A 
ATOM     24  C   UNL     1       6.153  42.383  49.114  1.00  0.00     0.026 A 
ATOM     25  C   UNL     1       4.470  42.318  50.835  1.00  0.00     0.026 A 
ATOM     26  C   UNL     1       5.518  41.331  48.447  1.00  0.00     0.002 A 
ATOM     27  C   UNL     1       3.835  41.266  50.168  1.00  0.00     0.002 A 
ATOM     28  C   UNL     1       4.359  40.771  48.976  1.00  0.00     0.000 A 
ENDBRANCH  20  23
ENDBRANCH  15  19
ENDBRANCH   1  13
TORSDOF 6
ENDMDL
MODEL 6
REMARK VINA RESULT:    -7.990      1.629      5.158
REMARK INTER + INTRA:         -12.605
REMARK INTER:                 -11.819
REMARK INTRA:                  -0.785
REMARK UNBOUND:                -1.812
REMARK SMILES Cn1c(COc2ccccc2C(=O)Nc2ccccc2)nnc1C1CCC1
REMARK SMILES IDX 5 1 4 2 3 3 2 4 23 5 21 6 22 7 1 8 24 9 25 10 27 11 26 12
REMARK SMILES IDX 6 13 7 14 11 15 8 16 10 17 9 18 12 19 14 20 13 21 15 23
REMARK SMILES IDX 16 24 20 25 17 26 19 27 18 28
REMARK H PARENT 14 22
ROOT
ATOM      1  O   UNL     1       3.614  44.875  53.775  1.00  0.00    -0.485 OA
ENDROOT
BRANCH   1   2
ATOM      2  C   UNL     1       3.716  46.266  53.439  1.00  0.00     0.307 C 
BRANCH   2   3
ATOM      3  C   UNL     1       5.131  46.716  53.502  1.00  0.00     0.170 A 
ATOM      4  N   UNL     1       6.048  46.651  52.476  1.00  0.00    -0.315 N 
ATOM      5  C   UNL     1       7.225  47.131  52.994  1.00  0.00     0.135 A 
ATOM      6  N   UNL     1       5.712  47.249  54.557  1.00  0.00    -0.132 NA
ATOM      7  N   UNL     1       7.016  47.507  54.239  1.00  0.00    -0.135 NA
ATOM      8  C   UNL     1       5.800  46.151  51.149  1.00  0.00     0.153 C 
BRANCH   5   9
ATOM      9  C   UNL     1       8.638  47.270  52.356  1.00  0.00     0.058 C 
ATOM     10  C   UNL     1       9.110  46.112  51.451  1.00  0.00     0.012 C 
ATOM     11  C   UNL     1       9.874  47.004  53.240  1.00  0.00     0.012 C 
ATOM     12  C   UNL     1      10.531  46.357  52.002  1.00  0.00     0.001 C 
ENDBRANCH   5   9
ENDBRANCH   2   3
ENDBRANCH   1   2
BRANCH   1  13
ATOM     13  C   UNL     1       3.392  43.955  52.781  1.00  0.00     0.132 A 
ATOM     14  C   UNL     1       4.421  43.310  52.082  1.00  0.00     0.047 A 
ATOM     15  C   UNL     1       2.051  43.652  52.463  1.00  0.00     0.082 A 
ATOM     16  C   UNL     1       4.125  42.386  51.074  1.00  0.00     0.004 A 
ATOM     17  C   UNL     1       1.771  42.729  51.441  1.00  0.00     0.018 A 
ATOM     18  C   UNL     1       2.804  42.097  50.751  1.00  0.00     0.001 A 
BRANCH  15  19
ATOM     19  C   UNL     1       0.871  44.305  53.120  1.00  0.00     0.259 C 
ATOM     20  N   UNL     1       0.762  44.113  54.484  1.00  0.00    -0.322 N 
ATOM     21  O   UNL     1       0.095  44.946  52.420  1.00  0.00    -0.269 OA
ATOM     22  H   UNL     1       1.490  43.544  54.906  1.00  0.00     0.170 HD
BRANCH  20  23
ATOM     23  C   UNL     1      -0.203  44.638  55.364  1.00  0.00     0.041 A 
ATOM     24  C   UNL     1       0.222  45.634  56.254  1.00  0.00     0.026 A 
ATOM     25  C   UNL     1      -1.538  44.235  55.392  1.00  0.00     0.026 A 
ATOM     26  C   UNL     1      -0.676  46.217  57.154  1.00  0.00     0.002 A 
ATOM     27  C   UNL     1      -2.436  44.818  56.292  1.00  0.00     0.002 A 
ATOM     28  C   UNL     1      -2.006  45.809  57.171  1.00  0.00     0.000 A 
ENDBRANCH  20  23
ENDBRANCH  15  19
ENDBRANCH   1  13
TORSDOF 6
ENDMDL
MODEL 7
REMARK VINA RESULT:    -7.964      2.105      4.141
REMARK INTER + INTRA:         -12.569
REMARK INTER:                 -10.451
REMARK INTRA:                  -2.118
REMARK UNBOUND:                -1.812
REMARK SMILES Cn1c(COc2ccccc2C(=O)Nc2ccccc2)nnc1C1CCC1
REMARK SMILES IDX 5 1 4 2 3 3 2 4 23 5 21 6 22 7 1 8 24 9 25 10 27 11 26 12
REMARK SMILES IDX 6 13 7 14 11 15 8 16 10 17 9 18 12 19 14 20 13 21 15 23
REMARK SMILES IDX 16 24 20 25 17 26 19 27 18 28
REMARK H PARENT 14 22
ROOT
ATOM      1  O   UNL     1       0.783  43.234  52.800  1.00  0.00    -0.485 OA
ENDROOT
BRANCH   1   2
ATOM      2  C   UNL     1       0.976  43.549  51.413  1.00  0.00     0.307 C 
BRANCH   2   3
ATOM      3  C   UNL     1       2.293  44.208  51.207  1.00  0.00     0.170 A 
ATOM      4  N   UNL     1       3.527  43.608  51.335  1.00  0.00    -0.315 N 
ATOM      5  C   UNL     1       4.450  44.595  51.097  1.00  0.00     0.135 A 
ATOM      6  N   UNL     1       2.467  45.467  50.864  1.00  0.00    -0.132 NA
ATOM      7  N   UNL     1       3.811  45.707  50.797  1.00  0.00    -0.135 NA
ATOM      8  C   UNL     1       3.767  42.230  51.677  1.00  0.00     0.153 C 
BRANCH   5   9
ATOM      9  C   UNL     1       6.006  44.567  51.138  1.00  0.00     0.058 C 
ATOM     10  C   UNL     1       6.729  45.928  51.062  1.00  0.00     0.012 C 
ATOM     11  C   UNL     1       6.768  44.159  49.860  1.00  0.00     0.012 C 
ATOM     12  C   UNL     1       7.825  45.219  50.238  1.00  0.00     0.001 C 
ENDBRANCH   5   9
ENDBRANCH   2   3
ENDBRANCH   1   2
BRANCH   1  13
ATOM     13  C   UNL     1      -0.309  43.738  53.461  1.00  0.00     0.132 A 
ATOM     14  C   UNL     1      -1.630  43.522  53.048  1.00  0.00     0.047 A 
ATOM     15  C   UNL     1      -0.069  44.508  54.619  1.00  0.00     0.082 A 
ATOM     16  C   UNL     1      -2.698  44.071  53.766  1.00  0.00     0.004 A 
ATOM     17  C   UNL     1      -1.153  45.061  55.323  1.00  0.00     0.018 A 
ATOM     18  C   UNL     1      -2.462  44.841  54.899  1.00  0.00     0.001 A 
BRANCH  15  19
ATOM     19  C   UNL     1       1.303  44.831  55.134  1.00  0.00     0.259 C 
ATOM     20  N   UNL     1       2.225  45.222  54.182  1.00  0.00    -0.322 N 
ATOM     21  O   UNL     1       1.512  44.724  56.338  1.00  0.00    -0.269 OA
ATOM     22  H   UNL     1       1.883  45.247  53.227  1.00  0.00     0.170 HD
BRANCH  20  23
ATOM     23  C   UNL     1       3.558  45.628  54.375  1.00  0.00     0.041 A 
ATOM     24  C   UNL     1       4.482  44.635  54.728  1.00  0.00     0.026 A 
ATOM     25  C   UNL     1       4.006  46.942  54.228  1.00  0.00     0.026 A 
ATOM     26  C   UNL     1       5.829  44.951  54.927  1.00  0.00     0.002 A 
ATOM     27  C   UNL     1       5.353  47.258  54.427  1.00  0.00     0.002 A 
ATOM     28  C   UNL     1       6.265  46.264  54.775  1.00  0.00     0.000 A 
ENDBRANCH  20  23
ENDBRANCH  15  19
ENDBRANCH   1  13
TORSDOF 6
ENDMDL
MODEL 8
REMARK VINA RESULT:    -7.903      2.444      6.237
REMARK INTER + INTRA:         -12.486
REMARK INTER:                 -11.628
REMARK INTRA:                  -0.858
REMARK UNBOUND:                -1.812
REMARK SMILES Cn1c(COc2ccccc2C(=O)Nc2ccccc2)nnc1C1CCC1
REMARK SMILES IDX 5 1 4 2 3 3 2 4 23 5 21 6 22 7 1 8 24 9 25 10 27 11 26 12
REMARK SMILES IDX 6 13 7 14 11 15 8 16 10 17 9 18 12 19 14 20 13 21 15 23
REMARK SMILES IDX 16 24 20 25 17 26 19 27 18 28
REMARK H PARENT 14 22
ROOT
ATOM      1  O   UNL     1       4.140  43.529  51.925  1.00  0.00    -0.485 OA
ENDROOT
BRANCH   1   2
ATOM      2  C   UNL     1       4.385  42.115  51.901  1.00  0.00     0.307 C 
BRANCH   2   3
ATOM      3  C   UNL     1       4.208  41.578  50.526  1.00  0.00     0.170 A 
ATOM      4  N   UNL     1       5.139  41.628  49.511  1.00  0.00    -0.315 N 
ATOM      5  C   UNL     1       4.535  41.057  48.420  1.00  0.00     0.135 A 
ATOM      6  N   UNL     1       3.129  40.968  50.082  1.00  0.00    -0.132 NA
ATOM      7  N   UNL     1       3.334  40.645  48.770  1.00  0.00    -0.135 NA
ATOM      8  C   UNL     1       6.460  42.195  49.601  1.00  0.00     0.153 C 
BRANCH   5   9
ATOM      9  C   UNL     1       5.042  40.858  46.961  1.00  0.00     0.058 C 
ATOM     10  C   UNL     1       5.721  42.070  46.290  1.00  0.00     0.012 C 
ATOM     11  C   UNL     1       4.010  40.876  45.815  1.00  0.00     0.012 C 
ATOM     12  C   UNL     1       5.072  41.609  44.967  1.00  0.00     0.001 C 
ENDBRANCH   5   9
ENDBRANCH   2   3
ENDBRANCH   1   2
BRANCH   1  13
ATOM     13  C   UNL     1       3.283  44.050  52.861  1.00  0.00     0.132 A 
ATOM     14  C   UNL     1       1.890  43.918  52.794  1.00  0.00     0.047 A 
ATOM     15  C   UNL     1       3.855  44.751  53.945  1.00  0.00     0.082 A 
ATOM     16  C   UNL     1       1.074  44.481  53.780  1.00  0.00     0.004 A 
ATOM     17  C   UNL     1       3.020  45.319  54.922  1.00  0.00     0.018 A 
ATOM     18  C   UNL     1       1.636  45.182  54.842  1.00  0.00     0.001 A 
BRANCH  15  19
ATOM     19  C   UNL     1       5.329  44.984  54.102  1.00  0.00     0.259 C 
ATOM     20  N   UNL     1       5.908  45.814  53.161  1.00  0.00    -0.322 N 
ATOM     21  O   UNL     1       5.910  44.431  55.030  1.00  0.00    -0.269 OA
ATOM     22  H   UNL     1       5.279  46.179  52.454  1.00  0.00     0.170 HD
BRANCH  20  23
ATOM     23  C   UNL     1       7.246  46.246  53.086  1.00  0.00     0.041 A 
ATOM     24  C   UNL     1       7.780  46.863  54.225  1.00  0.00     0.026 A 
ATOM     25  C   UNL     1       8.057  46.087  51.962  1.00  0.00     0.026 A 
ATOM     26  C   UNL     1       9.105  47.312  54.238  1.00  0.00     0.002 A 
ATOM     27  C   UNL     1       9.382  46.536  51.976  1.00  0.00     0.002 A 
ATOM     28  C   UNL     1       9.906  47.146  53.113  1.00  0.00     0.000 A 
ENDBRANCH  20  23
ENDBRANCH  15  19
ENDBRANCH   1  13
TORSDOF 6
ENDMDL
MODEL 9
REMARK VINA RESULT:    -7.898      1.520      2.127
REMARK INTER + INTRA:         -12.480
REMARK INTER:                 -10.866
REMARK INTRA:                  -1.614
REMARK UNBOUND:                -1.812
REMARK SMILES Cn1c(COc2ccccc2C(=O)Nc2ccccc2)nnc1C1CCC1
REMARK SMILES IDX 5 1 4 2 3 3 2 4 23 5 21 6 22 7 1 8 24 9 25 10 27 11 26 12
REMARK SMILES IDX 6 13 7 14 11 15 8 16 10 17 9 18 12 19 14 20 13 21 15 23
REMARK SMILES IDX 16 24 20 25 17 26 19 27 18 28
REMARK H PARENT 14 22
ROOT
ATOM      1  O   UNL     1       1.611  43.802  54.324  1.00  0.00    -0.485 OA
ENDROOT
BRANCH   1   2
ATOM      2  C   UNL     1       2.000  45.051  54.914  1.00  0.00     0.307 C 
BRANCH   2   3
ATOM      3  C   UNL     1       2.860  45.824  53.978  1.00  0.00     0.170 A 
ATOM      4  N   UNL     1       4.216  45.656  53.800  1.00  0.00    -0.315 N 
ATOM      5  C   UNL     1       4.592  46.604  52.881  1.00  0.00     0.135 A 
ATOM      6  N   UNL     1       2.441  46.782  53.178  1.00  0.00    -0.132 NA
ATOM      7  N   UNL     1       3.521  47.268  52.496  1.00  0.00    -0.135 NA
ATOM      8  C   UNL     1       5.046  44.692  54.473  1.00  0.00     0.153 C 
BRANCH   5   9
ATOM      9  C   UNL     1       5.992  46.960  52.298  1.00  0.00     0.058 C 
ATOM     10  C   UNL     1       6.629  45.930  51.341  1.00  0.00     0.012 C 
ATOM     11  C   UNL     1       7.229  46.795  53.205  1.00  0.00     0.012 C 
ATOM     12  C   UNL     1       7.994  46.316  51.951  1.00  0.00     0.001 C 
ENDBRANCH   5   9
ENDBRANCH   2   3
ENDBRANCH   1   2
BRANCH   1  13
ATOM     13  C   UNL     1       0.388  43.698  53.709  1.00  0.00     0.132 A 
ATOM     14  C   UNL     1      -0.827  43.670  54.405  1.00  0.00     0.047 A 
ATOM     15  C   UNL     1       0.375  43.619  52.300  1.00  0.00     0.082 A 
ATOM     16  C   UNL     1      -2.038  43.555  53.715  1.00  0.00     0.004 A 
ATOM     17  C   UNL     1      -0.850  43.494  51.623  1.00  0.00     0.018 A 
ATOM     18  C   UNL     1      -2.052  43.464  52.328  1.00  0.00     0.001 A 
BRANCH  15  19
ATOM     19  C   UNL     1       1.615  43.605  51.455  1.00  0.00     0.259 C 
ATOM     20  N   UNL     1       2.394  42.469  51.551  1.00  0.00    -0.322 N 
ATOM     21  O   UNL     1       1.852  44.584  50.755  1.00  0.00    -0.269 OA
ATOM     22  H   UNL     1       2.052  41.757  52.189  1.00  0.00     0.170 HD
BRANCH  20  23
ATOM     23  C   UNL     1       3.573  42.158  50.848  1.00  0.00     0.041 A 
ATOM     24  C   UNL     1       3.489  41.152  49.876  1.00  0.00     0.026 A 
ATOM     25  C   UNL     1       4.798  42.793  51.057  1.00  0.00     0.026 A 
ATOM     26  C   UNL     1       4.611  40.790  49.125  1.00  0.00     0.002 A 
ATOM     27  C   UNL     1       5.920  42.431  50.305  1.00  0.00     0.002 A 
ATOM     28  C   UNL     1       5.827  41.431  49.339  1.00  0.00     0.000 A 
ENDBRANCH  20  23
ENDBRANCH  15  19
ENDBRANCH   1  13
TORSDOF 6
ENDMDL
MODEL 10
REMARK VINA RESULT:    -7.780      1.966      6.852
REMARK INTER + INTRA:         -12.320
REMARK INTER:                 -11.317
REMARK INTRA:                  -1.003
REMARK UNBOUND:                -1.812
REMARK SMILES Cn1c(COc2ccccc2C(=O)Nc2ccccc2)nnc1C1CCC1
REMARK SMILES IDX 5 1 4 2 3 3 2 4 23 5 21 6 22 7 1 8 24 9 25 10 27 11 26 12
REMARK SMILES IDX 6 13 7 14 11 15 8 16 10 17 9 18 12 19 14 20 13 21 15 23
REMARK SMILES IDX 16 24 20 25 17 26 19 27 18 28
REMARK H PARENT 14 22
ROOT
ATOM      1  O   UNL     1       4.426  44.001  52.215  1.00  0.00    -0.485 OA
ENDROOT
BRANCH   1   2
ATOM      2  C   UNL     1       3.313  44.891  52.050  1.00  0.00     0.307 C 
BRANCH   2   3
ATOM      3  C   UNL     1       2.469  44.905  53.274  1.00  0.00     0.170 A 
ATOM      4  N   UNL     1       1.092  44.929  53.307  1.00  0.00    -0.315 N 
ATOM      5  C   UNL     1       0.751  44.977  54.635  1.00  0.00     0.135 A 
ATOM      6  N   UNL     1       2.924  44.890  54.510  1.00  0.00    -0.132 NA
ATOM      7  N   UNL     1       1.852  44.936  55.357  1.00  0.00    -0.135 NA
ATOM      8  C   UNL     1       0.217  44.928  52.164  1.00  0.00     0.153 C 
BRANCH   5   9
ATOM      9  C   UNL     1      -0.641  45.070  55.328  1.00  0.00     0.058 C 
ATOM     10  C   UNL     1      -0.661  44.960  56.867  1.00  0.00     0.012 C 
ATOM     11  C   UNL     1      -1.566  43.836  55.287  1.00  0.00     0.012 C 
ATOM     12  C   UNL     1      -1.999  44.203  56.723  1.00  0.00     0.001 C 
ENDBRANCH   5   9
ENDBRANCH   2   3
ENDBRANCH   1   2
BRANCH   1  13
ATOM     13  C   UNL     1       4.823  43.213  51.164  1.00  0.00     0.132 A 
ATOM     14  C   UNL     1       4.128  42.070  50.748  1.00  0.00     0.047 A 
ATOM     15  C   UNL     1       5.995  43.593  50.475  1.00  0.00     0.082 A 
ATOM     16  C   UNL     1       4.592  41.307  49.672  1.00  0.00     0.004 A 
ATOM     17  C   UNL     1       6.453  42.809  49.401  1.00  0.00     0.018 A 
ATOM     18  C   UNL     1       5.753  41.673  49.000  1.00  0.00     0.001 A 
BRANCH  15  19
ATOM     19  C   UNL     1       6.837  44.775  50.852  1.00  0.00     0.259 C 
ATOM     20  N   UNL     1       7.067  44.942  52.204  1.00  0.00    -0.322 N 
ATOM     21  O   UNL     1       7.252  45.503  49.956  1.00  0.00    -0.269 OA
ATOM     22  H   UNL     1       6.638  44.249  52.809  1.00  0.00     0.170 HD
BRANCH  20  23
ATOM     23  C   UNL     1       7.851  45.922  52.841  1.00  0.00     0.041 A 
ATOM     24  C   UNL     1       7.249  46.640  53.883  1.00  0.00     0.026 A 
ATOM     25  C   UNL     1       9.175  46.205  52.504  1.00  0.00     0.026 A 
ATOM     26  C   UNL     1       7.962  47.624  54.576  1.00  0.00     0.002 A 
ATOM     27  C   UNL     1       9.887  47.189  53.197  1.00  0.00     0.002 A 
ATOM     28  C   UNL     1       9.282  47.897  54.233  1.00  0.00     0.000 A 
ENDBRANCH  20  23
ENDBRANCH  15  19
ENDBRANCH   1  13
TORSDOF 6
ENDMDL
