MODEL 1
REMARK VINA RESULT:    -9.275      0.000      0.000
REMARK INTER + INTRA:         -11.570
REMARK INTER:                 -10.902
REMARK INTRA:                  -0.668
REMARK UNBOUND:                -0.668
REMARK SMILES O=C(Nc1ncn(C2CCCCC2)n1)c1cccc2cn[nH]c12
REMARK SMILES IDX 1 1 2 2 3 3 15 5 16 6 23 7 17 8 22 9 19 10 18 11 21 12 20 13
REMARK SMILES IDX 4 15 5 16 14 17 6 18 7 19 8 20 9 21 13 22 10 23 12 24 11 25
REMARK H PARENT 3 4 22 14
ROOT
ATOM      1  O   UNL     1       4.925  44.239  54.031  1.00  0.00    -0.269 OA
ATOM      2  C   UNL     1       4.160  44.394  53.088  1.00  0.00     0.260 C 
ATOM      3  N   UNL     1       4.461  44.764  51.803  1.00  0.00    -0.289 N 
ATOM      4  H   UNL     1       3.785  44.680  51.060  1.00  0.00     0.173 HD
ENDROOT
BRANCH   2   5
ATOM      5  C   UNL     1       2.723  44.125  53.306  1.00  0.00     0.065 A 
ATOM      6  C   UNL     1       2.006  43.349  52.383  1.00  0.00     0.016 A 
ATOM      7  C   UNL     1       2.033  44.598  54.432  1.00  0.00     0.078 A 
ATOM      8  C   UNL     1       0.645  43.100  52.562  1.00  0.00     0.002 A 
ATOM      9  N   UNL     1       2.439  45.292  55.543  1.00  0.00    -0.277 N 
ATOM     10  C   UNL     1       0.676  44.363  54.625  1.00  0.00     0.020 A 
ATOM     11  C   UNL     1      -0.037  43.608  53.674  1.00  0.00     0.012 A 
ATOM     12  N   UNL     1       1.443  45.595  56.395  1.00  0.00    -0.183 NA
ATOM     13  C   UNL     1       0.376  45.009  55.845  1.00  0.00     0.143 A 
ATOM     14  H   UNL     1       3.381  45.590  55.781  1.00  0.00     0.190 HD
ENDBRANCH   2   5
BRANCH   3  15
ATOM     15  C   UNL     1       5.694  45.150  51.366  1.00  0.00     0.248 A 
ATOM     16  N   UNL     1       6.431  44.492  50.431  1.00  0.00    -0.200 NA
ATOM     17  N   UNL     1       6.292  46.221  51.896  1.00  0.00    -0.132 NA
ATOM     18  C   UNL     1       7.530  45.203  50.351  1.00  0.00     0.222 A 
ATOM     19  N   UNL     1       7.456  46.247  51.221  1.00  0.00    -0.248 N 
BRANCH  19  20
ATOM     20  C   UNL     1       8.467  47.271  51.446  1.00  0.00     0.109 C 
ATOM     21  C   UNL     1       9.884  46.683  51.554  1.00  0.00     0.027 C 
ATOM     22  C   UNL     1       8.126  48.213  52.613  1.00  0.00     0.027 C 
ATOM     23  C   UNL     1      10.217  46.138  52.941  1.00  0.00     0.002 C 
ATOM     24  C   UNL     1       8.500  47.658  53.989  1.00  0.00     0.002 C 
ATOM     25  C   UNL     1       9.943  47.167  54.031  1.00  0.00     0.000 C 
ENDBRANCH  19  20
ENDBRANCH   3  15
TORSDOF 3
ENDMDL
MODEL 2
REMARK VINA RESULT:    -9.052      1.813      2.518
REMARK INTER + INTRA:         -11.307
REMARK INTER:                 -10.642
REMARK INTRA:                  -0.665
REMARK UNBOUND:                -0.668
REMARK SMILES O=C(Nc1ncn(C2CCCCC2)n1)c1cccc2cn[nH]c12
REMARK SMILES IDX 1 1 2 2 3 3 15 5 16 6 23 7 17 8 22 9 19 10 18 11 21 12 20 13
REMARK SMILES IDX 4 15 5 16 14 17 6 18 7 19 8 20 9 21 13 22 10 23 12 24 11 25
REMARK H PARENT 3 4 22 14
ROOT
ATOM      1  O   UNL     1       2.870  46.052  50.834  1.00  0.00    -0.269 OA
ATOM      2  C   UNL     1       3.137  45.325  51.782  1.00  0.00     0.260 C 
ATOM      3  N   UNL     1       4.371  44.983  52.269  1.00  0.00    -0.289 N 
ATOM      4  H   UNL     1       4.477  44.533  53.163  1.00  0.00     0.173 HD
ENDROOT
BRANCH   2   5
ATOM      5  C   UNL     1       2.015  44.746  52.552  1.00  0.00     0.065 A 
ATOM      6  C   UNL     1       1.980  44.879  53.948  1.00  0.00     0.016 A 
ATOM      7  C   UNL     1       0.947  44.079  51.935  1.00  0.00     0.078 A 
ATOM      8  C   UNL     1       0.939  44.323  54.693  1.00  0.00     0.002 A 
ATOM      9  N   UNL     1       0.630  43.855  50.619  1.00  0.00    -0.277 N 
ATOM     10  C   UNL     1      -0.097  43.516  52.662  1.00  0.00     0.020 A 
ATOM     11  C   UNL     1      -0.102  43.630  54.065  1.00  0.00     0.012 A 
ATOM     12  N   UNL     1      -0.486  43.124  50.441  1.00  0.00    -0.183 NA
ATOM     13  C   UNL     1      -0.937  42.939  51.684  1.00  0.00     0.143 A 
ATOM     14  H   UNL     1       1.132  44.173  49.796  1.00  0.00     0.190 HD
ENDBRANCH   2   5
BRANCH   3  15
ATOM     15  C   UNL     1       5.561  45.313  51.689  1.00  0.00     0.248 A 
ATOM     16  N   UNL     1       6.133  44.646  50.650  1.00  0.00    -0.200 NA
ATOM     17  N   UNL     1       6.286  46.328  52.167  1.00  0.00    -0.132 NA
ATOM     18  C   UNL     1       7.255  45.295  50.450  1.00  0.00     0.222 A 
ATOM     19  N   UNL     1       7.355  46.310  51.350  1.00  0.00    -0.248 N 
BRANCH  19  20
ATOM     20  C   UNL     1       8.448  47.266  51.471  1.00  0.00     0.109 C 
ATOM     21  C   UNL     1       9.820  46.579  51.568  1.00  0.00     0.027 C 
ATOM     22  C   UNL     1       8.225  48.302  52.586  1.00  0.00     0.027 C 
ATOM     23  C   UNL     1      10.168  46.098  52.975  1.00  0.00     0.002 C 
ATOM     24  C   UNL     1       8.612  47.808  53.981  1.00  0.00     0.002 C 
ATOM     25  C   UNL     1      10.014  47.211  54.004  1.00  0.00     0.000 C 
ENDBRANCH  19  20
ENDBRANCH   3  15
TORSDOF 3
ENDMDL
MODEL 3
REMARK VINA RESULT:    -8.822      2.062      7.770
REMARK INTER + INTRA:         -11.037
REMARK INTER:                 -10.501
REMARK INTRA:                  -0.536
REMARK UNBOUND:                -0.668
REMARK SMILES O=C(Nc1ncn(C2CCCCC2)n1)c1cccc2cn[nH]c12
REMARK SMILES IDX 1 1 2 2 3 3 15 5 16 6 23 7 17 8 22 9 19 10 18 11 21 12 20 13
REMARK SMILES IDX 4 15 5 16 14 17 6 18 7 19 8 20 9 21 13 22 10 23 12 24 11 25
REMARK H PARENT 3 4 22 14
ROOT
ATOM      1  O   UNL     1       5.456  47.799  53.510  1.00  0.00    -0.269 OA
ATOM      2  C   UNL     1       5.798  46.778  52.928  1.00  0.00     0.260 C 
ATOM      3  N   UNL     1       5.010  45.748  52.486  1.00  0.00    -0.289 N 
ATOM      4  H   UNL     1       5.366  45.047  51.856  1.00  0.00     0.173 HD
ENDROOT
BRANCH   2   5
ATOM      5  C   UNL     1       7.232  46.605  52.610  1.00  0.00     0.065 A 
ATOM      6  C   UNL     1       7.617  46.094  51.362  1.00  0.00     0.016 A 
ATOM      7  C   UNL     1       8.248  46.961  53.509  1.00  0.00     0.078 A 
ATOM      8  C   UNL     1       8.965  45.907  51.051  1.00  0.00     0.002 A 
ATOM      9  N   UNL     1       8.226  47.556  54.745  1.00  0.00    -0.277 N 
ATOM     10  C   UNL     1       9.596  46.778  53.217  1.00  0.00     0.020 A 
ATOM     11  C   UNL     1       9.966  46.236  51.973  1.00  0.00     0.012 A 
ATOM     12  N   UNL     1       9.439  47.695  55.309  1.00  0.00    -0.183 NA
ATOM     13  C   UNL     1      10.272  47.241  54.368  1.00  0.00     0.143 A 
ATOM     14  H   UNL     1       7.417  47.890  55.260  1.00  0.00     0.190 HD
ENDBRANCH   2   5
BRANCH   3  15
ATOM     15  C   UNL     1       3.673  45.624  52.728  1.00  0.00     0.248 A 
ATOM     16  N   UNL     1       2.718  46.490  52.293  1.00  0.00    -0.200 NA
ATOM     17  N   UNL     1       3.215  44.623  53.485  1.00  0.00    -0.132 NA
ATOM     18  C   UNL     1       1.607  45.989  52.775  1.00  0.00     0.222 A 
ATOM     19  N   UNL     1       1.891  44.865  53.487  1.00  0.00    -0.248 N 
BRANCH  19  20
ATOM     20  C   UNL     1       0.941  44.011  54.187  1.00  0.00     0.109 C 
ATOM     21  C   UNL     1       0.850  42.605  53.570  1.00  0.00     0.027 C 
ATOM     22  C   UNL     1      -0.438  44.665  54.374  1.00  0.00     0.027 C 
ATOM     23  C   UNL     1      -0.071  42.527  52.355  1.00  0.00     0.002 C 
ATOM     24  C   UNL     1      -1.354  44.545  53.156  1.00  0.00     0.002 C 
ATOM     25  C   UNL     1      -1.448  43.108  52.654  1.00  0.00     0.000 C 
ENDBRANCH  19  20
ENDBRANCH   3  15
TORSDOF 3
ENDMDL
MODEL 4
REMARK VINA RESULT:    -8.635      1.974      2.593
REMARK INTER + INTRA:         -10.818
REMARK INTER:                 -10.182
REMARK INTRA:                  -0.636
REMARK UNBOUND:                -0.668
REMARK SMILES O=C(Nc1ncn(C2CCCCC2)n1)c1cccc2cn[nH]c12
REMARK SMILES IDX 1 1 2 2 3 3 15 5 16 6 23 7 17 8 22 9 19 10 18 11 21 12 20 13
REMARK SMILES IDX 4 15 5 16 14 17 6 18 7 19 8 20 9 21 13 22 10 23 12 24 11 25
REMARK H PARENT 3 4 22 14
ROOT
ATOM      1  O   UNL     1       2.349  47.090  52.713  1.00  0.00    -0.269 OA
ATOM      2  C   UNL     1       2.604  45.893  52.746  1.00  0.00     0.260 C 
ATOM      3  N   UNL     1       3.754  45.281  53.173  1.00  0.00    -0.289 N 
ATOM      4  H   UNL     1       3.791  44.288  53.334  1.00  0.00     0.173 HD
ENDROOT
BRANCH   2   5
ATOM      5  C   UNL     1       1.555  44.946  52.312  1.00  0.00     0.065 A 
ATOM      6  C   UNL     1       1.734  44.186  51.146  1.00  0.00     0.016 A 
ATOM      7  C   UNL     1       0.374  44.748  53.042  1.00  0.00     0.078 A 
ATOM      8  C   UNL     1       0.747  43.301  50.710  1.00  0.00     0.002 A 
ATOM      9  N   UNL     1      -0.070  45.247  54.240  1.00  0.00    -0.277 N 
ATOM     10  C   UNL     1      -0.622  43.873  52.620  1.00  0.00     0.020 A 
ATOM     11  C   UNL     1      -0.441  43.140  51.432  1.00  0.00     0.012 A 
ATOM     12  N   UNL     1      -1.302  44.831  54.585  1.00  0.00    -0.183 NA
ATOM     13  C   UNL     1      -1.626  43.979  53.609  1.00  0.00     0.143 A 
ATOM     14  H   UNL     1       0.418  45.875  54.871  1.00  0.00     0.190 HD
ENDBRANCH   2   5
BRANCH   3  15
ATOM     15  C   UNL     1       4.897  45.929  53.539  1.00  0.00     0.248 A 
ATOM     16  N   UNL     1       5.334  46.074  54.819  1.00  0.00    -0.200 NA
ATOM     17  N   UNL     1       5.659  46.526  52.618  1.00  0.00    -0.132 NA
ATOM     18  C   UNL     1       6.439  46.770  54.689  1.00  0.00     0.222 A 
ATOM     19  N   UNL     1       6.647  47.041  53.372  1.00  0.00    -0.248 N 
BRANCH  19  20
ATOM     20  C   UNL     1       7.757  47.792  52.800  1.00  0.00     0.109 C 
ATOM     21  C   UNL     1       8.162  47.273  51.411  1.00  0.00     0.027 C 
ATOM     22  C   UNL     1       8.955  47.923  53.755  1.00  0.00     0.027 C 
ATOM     23  C   UNL     1       9.087  46.059  51.455  1.00  0.00     0.002 C 
ATOM     24  C   UNL     1       9.885  46.708  53.757  1.00  0.00     0.002 C 
ATOM     25  C   UNL     1      10.299  46.307  52.345  1.00  0.00     0.000 C 
ENDBRANCH  19  20
ENDBRANCH   3  15
TORSDOF 3
ENDMDL
MODEL 5
REMARK VINA RESULT:    -8.620      1.861      7.551
REMARK INTER + INTRA:         -10.800
REMARK INTER:                 -10.411
REMARK INTRA:                  -0.389
REMARK UNBOUND:                -0.668
REMARK SMILES O=C(Nc1ncn(C2CCCCC2)n1)c1cccc2cn[nH]c12
REMARK SMILES IDX 1 1 2 2 3 3 15 5 16 6 23 7 17 8 22 9 19 10 18 11 21 12 20 13
REMARK SMILES IDX 4 15 5 16 14 17 6 18 7 19 8 20 9 21 13 22 10 23 12 24 11 25
REMARK H PARENT 3 4 22 14
ROOT
ATOM      1  O   UNL     1       5.156  46.598  51.951  1.00  0.00    -0.269 OA
ATOM      2  C   UNL     1       5.917  45.640  52.003  1.00  0.00     0.260 C 
ATOM      3  N   UNL     1       5.603  44.306  52.020  1.00  0.00    -0.289 N 
ATOM      4  H   UNL     1       6.306  43.600  51.875  1.00  0.00     0.173 HD
ENDROOT
BRANCH   2   5
ATOM      5  C   UNL     1       7.371  45.908  52.016  1.00  0.00     0.065 A 
ATOM      6  C   UNL     1       8.171  45.485  50.944  1.00  0.00     0.016 A 
ATOM      7  C   UNL     1       7.997  46.603  53.061  1.00  0.00     0.078 A 
ATOM      8  C   UNL     1       9.548  45.711  50.947  1.00  0.00     0.002 A 
ATOM      9  N   UNL     1       7.511  47.217  54.187  1.00  0.00    -0.277 N 
ATOM     10  C   UNL     1       9.369  46.835  53.082  1.00  0.00     0.020 A 
ATOM     11  C   UNL     1      10.163  46.377  52.014  1.00  0.00     0.012 A 
ATOM     12  N   UNL     1       8.463  47.752  54.973  1.00  0.00    -0.183 NA
ATOM     13  C   UNL     1       9.589  47.537  54.287  1.00  0.00     0.143 A 
ATOM     14  H   UNL     1       6.543  47.306  54.478  1.00  0.00     0.190 HD
ENDBRANCH   2   5
BRANCH   3  15
ATOM     15  C   UNL     1       4.340  43.799  52.103  1.00  0.00     0.248 A 
ATOM     16  N   UNL     1       3.766  42.983  51.177  1.00  0.00    -0.200 NA
ATOM     17  N   UNL     1       3.543  44.133  53.122  1.00  0.00    -0.132 NA
ATOM     18  C   UNL     1       2.564  42.773  51.658  1.00  0.00     0.222 A 
ATOM     19  N   UNL     1       2.421  43.453  52.827  1.00  0.00    -0.248 N 
BRANCH  19  20
ATOM     20  C   UNL     1       1.238  43.490  53.677  1.00  0.00     0.109 C 
ATOM     21  C   UNL     1       0.275  42.326  53.393  1.00  0.00     0.027 C 
ATOM     22  C   UNL     1       0.532  44.856  53.673  1.00  0.00     0.027 C 
ATOM     23  C   UNL     1      -0.650  42.571  52.202  1.00  0.00     0.002 C 
ATOM     24  C   UNL     1      -0.413  45.065  52.489  1.00  0.00     0.002 C 
ATOM     25  C   UNL     1      -1.384  43.901  52.325  1.00  0.00     0.000 C 
ENDBRANCH  19  20
ENDBRANCH   3  15
TORSDOF 3
ENDMDL
MODEL 6
REMARK VINA RESULT:    -8.468      1.660      7.708
REMARK INTER + INTRA:         -10.622
REMARK INTER:                 -10.292
REMARK INTRA:                  -0.330
REMARK UNBOUND:                -0.668
REMARK SMILES O=C(Nc1ncn(C2CCCCC2)n1)c1cccc2cn[nH]c12
REMARK SMILES IDX 1 1 2 2 3 3 15 5 16 6 23 7 17 8 22 9 19 10 18 11 21 12 20 13
REMARK SMILES IDX 4 15 5 16 14 17 6 18 7 19 8 20 9 21 13 22 10 23 12 24 11 25
REMARK H PARENT 3 4 22 14
ROOT
ATOM      1  O   UNL     1       5.188  47.933  53.774  1.00  0.00    -0.269 OA
ATOM      2  C   UNL     1       5.769  46.858  53.843  1.00  0.00     0.260 C 
ATOM      3  N   UNL     1       5.242  45.623  54.120  1.00  0.00    -0.289 N 
ATOM      4  H   UNL     1       5.771  44.780  53.968  1.00  0.00     0.173 HD
ENDROOT
BRANCH   2   5
ATOM      5  C   UNL     1       7.222  46.833  53.566  1.00  0.00     0.065 A 
ATOM      6  C   UNL     1       8.125  47.332  54.515  1.00  0.00     0.016 A 
ATOM      7  C   UNL     1       7.751  46.298  52.382  1.00  0.00     0.078 A 
ATOM      8  C   UNL     1       9.498  47.335  54.264  1.00  0.00     0.002 A 
ATOM      9  N   UNL     1       7.172  45.665  51.312  1.00  0.00    -0.277 N 
ATOM     10  C   UNL     1       9.116  46.296  52.113  1.00  0.00     0.020 A 
ATOM     11  C   UNL     1      10.008  46.828  53.063  1.00  0.00     0.012 A 
ATOM     12  N   UNL     1       8.039  45.329  50.339  1.00  0.00    -0.183 NA
ATOM     13  C   UNL     1       9.223  45.694  50.839  1.00  0.00     0.143 A 
ATOM     14  H   UNL     1       6.193  45.432  51.182  1.00  0.00     0.190 HD
ENDBRANCH   2   5
BRANCH   3  15
ATOM     15  C   UNL     1       3.952  45.388  54.494  1.00  0.00     0.248 A 
ATOM     16  N   UNL     1       3.399  45.779  55.675  1.00  0.00    -0.200 NA
ATOM     17  N   UNL     1       3.137  44.685  53.703  1.00  0.00    -0.132 NA
ATOM     18  C   UNL     1       2.171  45.323  55.604  1.00  0.00     0.222 A 
ATOM     19  N   UNL     1       2.001  44.671  54.422  1.00  0.00    -0.248 N 
BRANCH  19  20
ATOM     20  C   UNL     1       0.786  44.016  53.953  1.00  0.00     0.109 C 
ATOM     21  C   UNL     1       1.059  42.616  53.379  1.00  0.00     0.027 C 
ATOM     22  C   UNL     1      -0.046  44.894  53.003  1.00  0.00     0.027 C 
ATOM     23  C   UNL     1       1.537  42.630  51.929  1.00  0.00     0.002 C 
ATOM     24  C   UNL     1       0.432  44.865  51.550  1.00  0.00     0.002 C 
ATOM     25  C   UNL     1       0.604  43.440  51.037  1.00  0.00     0.000 C 
ENDBRANCH  19  20
ENDBRANCH   3  15
TORSDOF 3
ENDMDL
MODEL 7
REMARK VINA RESULT:    -8.287      1.901      3.071
REMARK INTER + INTRA:         -10.409
REMARK INTER:                  -9.754
REMARK INTRA:                  -0.655
REMARK UNBOUND:                -0.668
REMARK SMILES O=C(Nc1ncn(C2CCCCC2)n1)c1cccc2cn[nH]c12
REMARK SMILES IDX 1 1 2 2 3 3 15 5 16 6 23 7 17 8 22 9 19 10 18 11 21 12 20 13
REMARK SMILES IDX 4 15 5 16 14 17 6 18 7 19 8 20 9 21 13 22 10 23 12 24 11 25
REMARK H PARENT 3 4 22 14
ROOT
ATOM      1  O   UNL     1       3.780  43.772  52.674  1.00  0.00    -0.269 OA
ATOM      2  C   UNL     1       3.120  44.592  53.298  1.00  0.00     0.260 C 
ATOM      3  N   UNL     1       3.543  45.764  53.869  1.00  0.00    -0.289 N 
ATOM      4  H   UNL     1       2.888  46.456  54.195  1.00  0.00     0.173 HD
ENDROOT
BRANCH   2   5
ATOM      5  C   UNL     1       1.670  44.348  53.451  1.00  0.00     0.065 A 
ATOM      6  C   UNL     1       1.036  44.632  54.670  1.00  0.00     0.016 A 
ATOM      7  C   UNL     1       0.877  43.860  52.403  1.00  0.00     0.078 A 
ATOM      8  C   UNL     1      -0.328  44.390  54.839  1.00  0.00     0.002 A 
ATOM      9  N   UNL     1       1.151  43.570  51.091  1.00  0.00    -0.277 N 
ATOM     10  C   UNL     1      -0.484  43.610  52.555  1.00  0.00     0.020 A 
ATOM     11  C   UNL     1      -1.100  43.871  53.793  1.00  0.00     0.012 A 
ATOM     12  N   UNL     1       0.102  43.077  50.408  1.00  0.00    -0.183 NA
ATOM     13  C   UNL     1      -0.895  43.123  51.295  1.00  0.00     0.143 A 
ATOM     14  H   UNL     1       2.032  43.686  50.599  1.00  0.00     0.190 HD
ENDBRANCH   2   5
BRANCH   3  15
ATOM     15  C   UNL     1       4.842  46.176  53.944  1.00  0.00     0.248 A 
ATOM     16  N   UNL     1       5.644  46.031  55.033  1.00  0.00    -0.200 NA
ATOM     17  N   UNL     1       5.405  46.819  52.918  1.00  0.00    -0.132 NA
ATOM     18  C   UNL     1       6.773  46.583  54.658  1.00  0.00     0.222 A 
ATOM     19  N   UNL     1       6.644  47.053  53.388  1.00  0.00    -0.248 N 
BRANCH  19  20
ATOM     20  C   UNL     1       7.662  47.737  52.602  1.00  0.00     0.109 C 
ATOM     21  C   UNL     1       7.919  47.051  51.250  1.00  0.00     0.027 C 
ATOM     22  C   UNL     1       8.959  47.999  53.388  1.00  0.00     0.027 C 
ATOM     23  C   UNL     1       8.873  45.861  51.337  1.00  0.00     0.002 C 
ATOM     24  C   UNL     1       9.912  46.804  53.432  1.00  0.00     0.002 C 
ATOM     25  C   UNL     1      10.172  46.232  52.043  1.00  0.00     0.000 C 
ENDBRANCH  19  20
ENDBRANCH   3  15
TORSDOF 3
ENDMDL
MODEL 8
REMARK VINA RESULT:    -8.274      1.763      2.696
REMARK INTER + INTRA:         -10.394
REMARK INTER:                 -10.146
REMARK INTRA:                  -0.248
REMARK UNBOUND:                -0.668
REMARK SMILES O=C(Nc1ncn(C2CCCCC2)n1)c1cccc2cn[nH]c12
REMARK SMILES IDX 1 1 2 2 3 3 15 5 16 6 23 7 17 8 22 9 19 10 18 11 21 12 20 13
REMARK SMILES IDX 4 15 5 16 14 17 6 18 7 19 8 20 9 21 13 22 10 23 12 24 11 25
REMARK H PARENT 3 4 22 14
ROOT
ATOM      1  O   UNL     1       2.887  44.146  53.184  1.00  0.00    -0.269 OA
ATOM      2  C   UNL     1       2.777  45.098  53.946  1.00  0.00     0.260 C 
ATOM      3  N   UNL     1       3.550  46.228  54.010  1.00  0.00    -0.289 N 
ATOM      4  H   UNL     1       3.262  47.032  54.543  1.00  0.00     0.173 HD
ENDROOT
BRANCH   2   5
ATOM      5  C   UNL     1       1.660  45.088  54.915  1.00  0.00     0.065 A 
ATOM      6  C   UNL     1       1.800  45.734  56.152  1.00  0.00     0.016 A 
ATOM      7  C   UNL     1       0.432  44.471  54.638  1.00  0.00     0.078 A 
ATOM      8  C   UNL     1       0.764  45.719  57.087  1.00  0.00     0.002 A 
ATOM      9  N   UNL     1      -0.059  43.843  53.521  1.00  0.00    -0.277 N 
ATOM     10  C   UNL     1      -0.610  44.443  55.559  1.00  0.00     0.020 A 
ATOM     11  C   UNL     1      -0.445  45.070  56.808  1.00  0.00     0.012 A 
ATOM     12  N   UNL     1      -1.298  43.342  53.674  1.00  0.00    -0.183 NA
ATOM     13  C   UNL     1      -1.639  43.727  54.907  1.00  0.00     0.143 A 
ATOM     14  H   UNL     1       0.399  43.723  52.623  1.00  0.00     0.190 HD
ENDBRANCH   2   5
BRANCH   3  15
ATOM     15  C   UNL     1       4.687  46.442  53.287  1.00  0.00     0.248 A 
ATOM     16  N   UNL     1       5.019  45.785  52.143  1.00  0.00    -0.200 NA
ATOM     17  N   UNL     1       5.603  47.316  53.714  1.00  0.00    -0.132 NA
ATOM     18  C   UNL     1       6.184  46.295  51.823  1.00  0.00     0.222 A 
ATOM     19  N   UNL     1       6.541  47.220  52.755  1.00  0.00    -0.248 N 
BRANCH  19  20
ATOM     20  C   UNL     1       7.762  48.014  52.773  1.00  0.00     0.109 C 
ATOM     21  C   UNL     1       8.585  47.856  51.484  1.00  0.00     0.027 C 
ATOM     22  C   UNL     1       8.605  47.799  54.042  1.00  0.00     0.027 C 
ATOM     23  C   UNL     1       9.469  46.610  51.469  1.00  0.00     0.002 C 
ATOM     24  C   UNL     1       9.506  46.565  53.989  1.00  0.00     0.002 C 
ATOM     25  C   UNL     1      10.342  46.525  52.715  1.00  0.00     0.000 C 
ENDBRANCH  19  20
ENDBRANCH   3  15
TORSDOF 3
ENDMDL
MODEL 9
REMARK VINA RESULT:    -7.958      1.830      7.736
REMARK INTER + INTRA:         -10.022
REMARK INTER:                  -9.535
REMARK INTRA:                  -0.487
REMARK UNBOUND:                -0.668
REMARK SMILES O=C(Nc1ncn(C2CCCCC2)n1)c1cccc2cn[nH]c12
REMARK SMILES IDX 1 1 2 2 3 3 15 5 16 6 23 7 17 8 22 9 19 10 18 11 21 12 20 13
REMARK SMILES IDX 4 15 5 16 14 17 6 18 7 19 8 20 9 21 13 22 10 23 12 24 11 25
REMARK H PARENT 3 4 22 14
ROOT
ATOM      1  O   UNL     1       5.737  44.803  55.040  1.00  0.00    -0.269 OA
ATOM      2  C   UNL     1       5.446  45.320  53.969  1.00  0.00     0.260 C 
ATOM      3  N   UNL     1       4.199  45.591  53.468  1.00  0.00    -0.289 N 
ATOM      4  H   UNL     1       4.074  46.186  52.665  1.00  0.00     0.173 HD
ENDROOT
BRANCH   2   5
ATOM      5  C   UNL     1       6.548  45.755  53.084  1.00  0.00     0.065 A 
ATOM      6  C   UNL     1       6.500  45.468  51.712  1.00  0.00     0.016 A 
ATOM      7  C   UNL     1       7.650  46.479  53.560  1.00  0.00     0.078 A 
ATOM      8  C   UNL     1       7.539  45.854  50.864  1.00  0.00     0.002 A 
ATOM      9  N   UNL     1       7.961  46.990  54.794  1.00  0.00    -0.277 N 
ATOM     10  C   UNL     1       8.697  46.869  52.730  1.00  0.00     0.020 A 
ATOM     11  C   UNL     1       8.649  46.547  51.361  1.00  0.00     0.012 A 
ATOM     12  N   UNL     1       9.157  47.604  54.848  1.00  0.00    -0.183 NA
ATOM     13  C   UNL     1       9.592  47.547  53.586  1.00  0.00     0.143 A 
ATOM     14  H   UNL     1       7.402  46.955  55.641  1.00  0.00     0.190 HD
ENDBRANCH   2   5
BRANCH   3  15
ATOM     15  C   UNL     1       3.023  45.213  54.046  1.00  0.00     0.248 A 
ATOM     16  N   UNL     1       2.621  45.565  55.298  1.00  0.00    -0.200 NA
ATOM     17  N   UNL     1       2.185  44.398  53.400  1.00  0.00    -0.132 NA
ATOM     18  C   UNL     1       1.462  44.965  55.428  1.00  0.00     0.222 A 
ATOM     19  N   UNL     1       1.187  44.267  54.293  1.00  0.00    -0.248 N 
BRANCH  19  20
ATOM     20  C   UNL     1       0.003  43.461  54.029  1.00  0.00     0.109 C 
ATOM     21  C   UNL     1       0.221  42.453  52.889  1.00  0.00     0.027 C 
ATOM     22  C   UNL     1      -1.272  44.301  53.840  1.00  0.00     0.027 C 
ATOM     23  C   UNL     1       0.045  43.055  51.496  1.00  0.00     0.002 C 
ATOM     24  C   UNL     1      -1.442  44.864  52.429  1.00  0.00     0.002 C 
ATOM     25  C   UNL     1      -1.285  43.786  51.363  1.00  0.00     0.000 C 
ENDBRANCH  19  20
ENDBRANCH   3  15
TORSDOF 3
ENDMDL
MODEL 10
REMARK VINA RESULT:    -7.899      1.687      7.903
REMARK INTER + INTRA:          -9.953
REMARK INTER:                 -10.093
REMARK INTRA:                   0.140
REMARK UNBOUND:                -0.668
REMARK SMILES O=C(Nc1ncn(C2CCCCC2)n1)c1cccc2cn[nH]c12
REMARK SMILES IDX 1 1 2 2 3 3 15 5 16 6 23 7 17 8 22 9 19 10 18 11 21 12 20 13
REMARK SMILES IDX 4 15 5 16 14 17 6 18 7 19 8 20 9 21 13 22 10 23 12 24 11 25
REMARK H PARENT 3 4 22 14
ROOT
ATOM      1  O   UNL     1       5.680  47.880  53.482  1.00  0.00    -0.269 OA
ATOM      2  C   UNL     1       6.022  46.853  52.910  1.00  0.00     0.260 C 
ATOM      3  N   UNL     1       5.234  45.817  52.480  1.00  0.00    -0.289 N 
ATOM      4  H   UNL     1       5.589  45.111  51.857  1.00  0.00     0.173 HD
ENDROOT
BRANCH   2   5
ATOM      5  C   UNL     1       7.455  46.680  52.590  1.00  0.00     0.065 A 
ATOM      6  C   UNL     1       8.432  47.285  53.395  1.00  0.00     0.016 A 
ATOM      7  C   UNL     1       7.894  45.901  51.509  1.00  0.00     0.078 A 
ATOM      8  C   UNL     1       9.788  47.148  53.098  1.00  0.00     0.002 A 
ATOM      9  N   UNL     1       7.228  45.120  50.599  1.00  0.00    -0.277 N 
ATOM     10  C   UNL     1       9.242  45.757  51.196  1.00  0.00     0.020 A 
ATOM     11  C   UNL     1      10.209  46.395  51.995  1.00  0.00     0.012 A 
ATOM     12  N   UNL     1       8.025  44.553  49.677  1.00  0.00    -0.183 NA
ATOM     13  C   UNL     1       9.251  44.924  50.056  1.00  0.00     0.143 A 
ATOM     14  H   UNL     1       6.231  44.933  50.552  1.00  0.00     0.190 HD
ENDBRANCH   2   5
BRANCH   3  15
ATOM     15  C   UNL     1       3.898  45.693  52.728  1.00  0.00     0.248 A 
ATOM     16  N   UNL     1       2.942  46.558  52.293  1.00  0.00    -0.200 NA
ATOM     17  N   UNL     1       3.443  44.694  53.489  1.00  0.00    -0.132 NA
ATOM     18  C   UNL     1       1.832  46.057  52.781  1.00  0.00     0.222 A 
ATOM     19  N   UNL     1       2.120  44.935  53.495  1.00  0.00    -0.248 N 
BRANCH  19  20
ATOM     20  C   UNL     1       1.173  44.082  54.201  1.00  0.00     0.109 C 
ATOM     21  C   UNL     1       1.034  42.696  53.551  1.00  0.00     0.027 C 
ATOM     22  C   UNL     1      -0.186  44.760  54.445  1.00  0.00     0.027 C 
ATOM     23  C   UNL     1       0.077  42.668  52.361  1.00  0.00     0.002 C 
ATOM     24  C   UNL     1      -1.140  44.690  53.251  1.00  0.00     0.002 C 
ATOM     25  C   UNL     1      -1.278  43.269  52.716  1.00  0.00     0.000 C 
ENDBRANCH  19  20
ENDBRANCH   3  15
TORSDOF 3
ENDMDL
