MODEL 1
REMARK VINA RESULT:    -9.454      0.000      0.000
REMARK INTER + INTRA:         -13.198
REMARK INTER:                 -12.218
REMARK INTRA:                  -0.980
REMARK UNBOUND:                -0.980
REMARK SMILES Cc1noc(-c2ccccc2)c1C(=O)Nc1cc(CC2CCCCC2)n[nH]1
REMARK SMILES IDX 16 1 17 2 18 3 26 4 27 5 15 7 13 8 14 9 12 11 2 12 3 13 4 14
REMARK SMILES IDX 5 15 1 16 6 17 7 18 11 19 8 20 10 21 9 22 19 23 20 24 21 25
REMARK SMILES IDX 25 26 22 27 24 28 23 29
REMARK H PARENT 27 6 15 10
ROOT
ATOM      1  C   UNL     1       4.025  45.682  55.145  1.00  0.00     0.128 A 
ATOM      2  C   UNL     1       5.197  45.022  54.869  1.00  0.00     0.072 A 
ATOM      3  C   UNL     1       6.151  46.045  54.637  1.00  0.00     0.065 A 
ATOM      4  N   UNL     1       5.607  47.262  54.750  1.00  0.00    -0.179 NA
ATOM      5  N   UNL     1       4.322  47.018  55.059  1.00  0.00    -0.263 N 
ATOM      6  H   UNL     1       3.682  47.796  55.200  1.00  0.00     0.192 HD
ENDROOT
BRANCH   1   7
ATOM      7  N   UNL     1       2.780  45.169  55.453  1.00  0.00    -0.307 N 
ATOM      8  C   UNL     1       1.663  45.422  54.673  1.00  0.00     0.262 C 
ATOM      9  O   UNL     1       1.698  46.073  53.631  1.00  0.00    -0.269 OA
ATOM     10  H   UNL     1       2.712  44.571  56.267  1.00  0.00     0.171 HD
BRANCH   8  11
ATOM     11  C   UNL     1       0.428  44.828  55.145  1.00  0.00     0.110 A 
ATOM     12  C   UNL     1      -0.287  43.749  54.547  1.00  0.00     0.094 A 
ATOM     13  N   UNL     1      -1.371  43.421  55.257  1.00  0.00    -0.084 NA
ATOM     14  O   UNL     1      -1.408  44.309  56.313  1.00  0.00    -0.355 OA
ATOM     15  C   UNL     1      -0.347  45.161  56.240  1.00  0.00     0.179 A 
ATOM     16  C   UNL     1       0.044  42.999  53.312  1.00  0.00     0.071 C 
BRANCH  15  17
ATOM     17  C   UNL     1      -0.319  46.182  57.274  1.00  0.00     0.021 A 
ATOM     18  C   UNL     1       0.821  46.367  58.070  1.00  0.00     0.012 A 
ATOM     19  C   UNL     1      -1.443  46.985  57.506  1.00  0.00     0.012 A 
ATOM     20  C   UNL     1       0.829  47.324  59.088  1.00  0.00     0.001 A 
ATOM     21  C   UNL     1      -1.433  47.943  58.523  1.00  0.00     0.001 A 
ATOM     22  C   UNL     1      -0.298  48.109  59.315  1.00  0.00     0.000 A 
ENDBRANCH  15  17
ENDBRANCH   8  11
ENDBRANCH   1   7
BRANCH   3  23
ATOM     23  C   UNL     1       7.597  45.896  54.281  1.00  0.00     0.061 C 
BRANCH  23  24
ATOM     24  C   UNL     1       8.150  47.091  53.472  1.00  0.00    -0.005 C 
ATOM     25  C   UNL     1       7.529  47.134  52.067  1.00  0.00     0.004 C 
ATOM     26  C   UNL     1       9.695  47.086  53.399  1.00  0.00     0.004 C 
ATOM     27  C   UNL     1       7.998  45.995  51.164  1.00  0.00     0.000 C 
ATOM     28  C   UNL     1      10.254  46.771  52.011  1.00  0.00     0.000 C 
ATOM     29  C   UNL     1       9.477  45.651  51.335  1.00  0.00     0.000 C 
ENDBRANCH  23  24
ENDBRANCH   3  23
TORSDOF 5
ENDMDL
MODEL 2
REMARK VINA RESULT:    -9.356      4.221      9.182
REMARK INTER + INTRA:         -13.071
REMARK INTER:                 -11.919
REMARK INTRA:                  -1.152
REMARK UNBOUND:                -0.980
REMARK SMILES Cc1noc(-c2ccccc2)c1C(=O)Nc1cc(CC2CCCCC2)n[nH]1
REMARK SMILES IDX 16 1 17 2 18 3 26 4 27 5 15 7 13 8 14 9 12 11 2 12 3 13 4 14
REMARK SMILES IDX 5 15 1 16 6 17 7 18 11 19 8 20 10 21 9 22 19 23 20 24 21 25
REMARK SMILES IDX 25 26 22 27 24 28 23 29
REMARK H PARENT 27 6 15 10
ROOT
ATOM      1  C   UNL     1       3.919  43.620  52.269  1.00  0.00     0.128 A 
ATOM      2  C   UNL     1       2.851  42.802  51.995  1.00  0.00     0.072 A 
ATOM      3  C   UNL     1       1.824  43.227  52.876  1.00  0.00     0.065 A 
ATOM      4  N   UNL     1       2.229  44.236  53.656  1.00  0.00    -0.179 NA
ATOM      5  N   UNL     1       3.498  44.458  53.271  1.00  0.00    -0.263 N 
ATOM      6  H   UNL     1       4.040  45.190  53.722  1.00  0.00     0.192 HD
ENDROOT
BRANCH   1   7
ATOM      7  N   UNL     1       5.174  43.647  51.695  1.00  0.00    -0.307 N 
ATOM      8  C   UNL     1       5.560  44.636  50.805  1.00  0.00     0.262 C 
ATOM      9  O   UNL     1       4.843  45.587  50.498  1.00  0.00    -0.269 OA
ATOM     10  H   UNL     1       5.826  42.920  51.967  1.00  0.00     0.171 HD
BRANCH   8  11
ATOM     11  C   UNL     1       6.903  44.507  50.275  1.00  0.00     0.110 A 
ATOM     12  C   UNL     1       7.338  43.613  49.253  1.00  0.00     0.094 A 
ATOM     13  N   UNL     1       8.635  43.775  48.974  1.00  0.00    -0.084 NA
ATOM     14  O   UNL     1       9.082  44.753  49.839  1.00  0.00    -0.355 OA
ATOM     15  C   UNL     1       8.057  45.180  50.628  1.00  0.00     0.179 A 
ATOM     16  C   UNL     1       6.541  42.605  48.513  1.00  0.00     0.071 C 
BRANCH  15  17
ATOM     17  C   UNL     1       8.431  46.172  51.622  1.00  0.00     0.021 A 
ATOM     18  C   UNL     1       9.568  45.992  52.424  1.00  0.00     0.012 A 
ATOM     19  C   UNL     1       7.646  47.316  51.809  1.00  0.00     0.012 A 
ATOM     20  C   UNL     1       9.900  46.931  53.404  1.00  0.00     0.001 A 
ATOM     21  C   UNL     1       7.981  48.256  52.789  1.00  0.00     0.001 A 
ATOM     22  C   UNL     1       9.106  48.059  53.587  1.00  0.00     0.000 A 
ENDBRANCH  15  17
ENDBRANCH   8  11
ENDBRANCH   1   7
BRANCH   3  23
ATOM     23  C   UNL     1       0.441  42.674  53.018  1.00  0.00     0.061 C 
BRANCH  23  24
ATOM     24  C   UNL     1      -0.413  42.834  51.740  1.00  0.00    -0.005 C 
ATOM     25  C   UNL     1      -0.455  44.303  51.292  1.00  0.00     0.004 C 
ATOM     26  C   UNL     1      -1.839  42.262  51.911  1.00  0.00     0.004 C 
ATOM     27  C   UNL     1      -1.259  45.199  52.231  1.00  0.00     0.000 C 
ATOM     28  C   UNL     1      -2.939  43.324  51.952  1.00  0.00     0.000 C 
ATOM     29  C   UNL     1      -2.520  44.531  52.779  1.00  0.00     0.000 C 
ENDBRANCH  23  24
ENDBRANCH   3  23
TORSDOF 5
ENDMDL
MODEL 3
REMARK VINA RESULT:    -9.345      1.115      1.330
REMARK INTER + INTRA:         -13.057
REMARK INTER:                 -11.979
REMARK INTRA:                  -1.078
REMARK UNBOUND:                -0.980
REMARK SMILES Cc1noc(-c2ccccc2)c1C(=O)Nc1cc(CC2CCCCC2)n[nH]1
REMARK SMILES IDX 16 1 17 2 18 3 26 4 27 5 15 7 13 8 14 9 12 11 2 12 3 13 4 14
REMARK SMILES IDX 5 15 1 16 6 17 7 18 11 19 8 20 10 21 9 22 19 23 20 24 21 25
REMARK SMILES IDX 25 26 22 27 24 28 23 29
REMARK H PARENT 27 6 15 10
ROOT
ATOM      1  C   UNL     1       3.500  45.765  53.777  1.00  0.00     0.128 A 
ATOM      2  C   UNL     1       4.636  45.212  53.239  1.00  0.00     0.072 A 
ATOM      3  C   UNL     1       5.466  46.315  52.917  1.00  0.00     0.065 A 
ATOM      4  N   UNL     1       4.882  47.479  53.223  1.00  0.00    -0.179 NA
ATOM      5  N   UNL     1       3.695  47.122  53.743  1.00  0.00    -0.263 N 
ATOM      6  H   UNL     1       3.048  47.839  54.060  1.00  0.00     0.192 HD
ENDROOT
BRANCH   1   7
ATOM      7  N   UNL     1       2.369  45.142  54.267  1.00  0.00    -0.307 N 
ATOM      8  C   UNL     1       1.116  45.337  53.707  1.00  0.00     0.262 C 
ATOM      9  O   UNL     1       0.921  46.030  52.710  1.00  0.00    -0.269 OA
ATOM     10  H   UNL     1       2.488  44.509  55.048  1.00  0.00     0.171 HD
BRANCH   8  11
ATOM     11  C   UNL     1       0.029  44.629  54.352  1.00  0.00     0.110 A 
ATOM     12  C   UNL     1      -0.713  43.532  53.823  1.00  0.00     0.094 A 
ATOM     13  N   UNL     1      -1.625  43.087  54.692  1.00  0.00    -0.084 NA
ATOM     14  O   UNL     1      -1.524  43.913  55.794  1.00  0.00    -0.355 OA
ATOM     15  C   UNL     1      -0.551  44.844  55.588  1.00  0.00     0.179 A 
ATOM     16  C   UNL     1      -0.567  42.876  52.501  1.00  0.00     0.071 C 
BRANCH  15  17
ATOM     17  C   UNL     1      -0.399  45.808  56.665  1.00  0.00     0.021 A 
ATOM     18  C   UNL     1       0.811  45.915  57.367  1.00  0.00     0.012 A 
ATOM     19  C   UNL     1      -1.470  46.632  57.033  1.00  0.00     0.012 A 
ATOM     20  C   UNL     1       0.939  46.817  58.427  1.00  0.00     0.001 A 
ATOM     21  C   UNL     1      -1.340  47.535  58.092  1.00  0.00     0.001 A 
ATOM     22  C   UNL     1      -0.136  47.624  58.789  1.00  0.00     0.000 A 
ENDBRANCH  15  17
ENDBRANCH   8  11
ENDBRANCH   1   7
BRANCH   3  23
ATOM     23  C   UNL     1       6.826  46.297  52.290  1.00  0.00     0.061 C 
BRANCH  23  24
ATOM     24  C   UNL     1       7.690  47.518  52.677  1.00  0.00    -0.005 C 
ATOM     25  C   UNL     1       8.762  47.787  51.609  1.00  0.00     0.004 C 
ATOM     26  C   UNL     1       8.326  47.367  54.079  1.00  0.00     0.004 C 
ATOM     27  C   UNL     1       9.856  46.722  51.566  1.00  0.00     0.000 C 
ATOM     28  C   UNL     1       9.842  47.163  54.060  1.00  0.00     0.000 C 
ATOM     29  C   UNL     1      10.265  46.214  52.948  1.00  0.00     0.000 C 
ENDBRANCH  23  24
ENDBRANCH   3  23
TORSDOF 5
ENDMDL
MODEL 4
REMARK VINA RESULT:    -9.300      3.357      8.914
REMARK INTER + INTRA:         -12.998
REMARK INTER:                 -11.979
REMARK INTRA:                  -1.020
REMARK UNBOUND:                -0.980
REMARK SMILES Cc1noc(-c2ccccc2)c1C(=O)Nc1cc(CC2CCCCC2)n[nH]1
REMARK SMILES IDX 16 1 17 2 18 3 26 4 27 5 15 7 13 8 14 9 12 11 2 12 3 13 4 14
REMARK SMILES IDX 5 15 1 16 6 17 7 18 11 19 8 20 10 21 9 22 19 23 20 24 21 25
REMARK SMILES IDX 25 26 22 27 24 28 23 29
REMARK H PARENT 27 6 15 10
ROOT
ATOM      1  C   UNL     1       3.812  43.476  51.625  1.00  0.00     0.128 A 
ATOM      2  C   UNL     1       3.330  43.206  52.882  1.00  0.00     0.072 A 
ATOM      3  C   UNL     1       1.920  43.298  52.765  1.00  0.00     0.065 A 
ATOM      4  N   UNL     1       1.547  43.615  51.520  1.00  0.00    -0.179 NA
ATOM      5  N   UNL     1       2.707  43.716  50.848  1.00  0.00    -0.263 N 
ATOM      6  H   UNL     1       2.697  43.955  49.859  1.00  0.00     0.192 HD
ENDROOT
BRANCH   1   7
ATOM      7  N   UNL     1       5.116  43.512  51.174  1.00  0.00    -0.307 N 
ATOM      8  C   UNL     1       5.667  44.644  50.594  1.00  0.00     0.262 C 
ATOM      9  O   UNL     1       5.063  45.709  50.481  1.00  0.00    -0.269 OA
ATOM     10  H   UNL     1       5.677  42.679  51.304  1.00  0.00     0.171 HD
BRANCH   8  11
ATOM     11  C   UNL     1       7.041  44.511  50.153  1.00  0.00     0.110 A 
ATOM     12  C   UNL     1       7.538  43.625  49.152  1.00  0.00     0.094 A 
ATOM     13  N   UNL     1       8.852  43.780  48.963  1.00  0.00    -0.084 NA
ATOM     14  O   UNL     1       9.247  44.745  49.868  1.00  0.00    -0.355 OA
ATOM     15  C   UNL     1       8.174  45.170  50.591  1.00  0.00     0.179 A 
ATOM     16  C   UNL     1       6.786  42.631  48.348  1.00  0.00     0.071 C 
BRANCH  15  17
ATOM     17  C   UNL     1       8.487  46.148  51.620  1.00  0.00     0.021 A 
ATOM     18  C   UNL     1       9.587  45.967  52.472  1.00  0.00     0.012 A 
ATOM     19  C   UNL     1       7.679  47.279  51.790  1.00  0.00     0.012 A 
ATOM     20  C   UNL     1       9.860  46.890  53.484  1.00  0.00     0.001 A 
ATOM     21  C   UNL     1       7.955  48.203  52.802  1.00  0.00     0.001 A 
ATOM     22  C   UNL     1       9.043  48.005  53.649  1.00  0.00     0.000 A 
ENDBRANCH  15  17
ENDBRANCH   8  11
ENDBRANCH   1   7
BRANCH   3  23
ATOM     23  C   UNL     1       0.890  43.109  53.834  1.00  0.00     0.061 C 
BRANCH  23  24
ATOM     24  C   UNL     1       0.062  44.384  54.114  1.00  0.00    -0.005 C 
ATOM     25  C   UNL     1       0.983  45.570  54.442  1.00  0.00     0.004 C 
ATOM     26  C   UNL     1      -0.989  44.169  55.227  1.00  0.00     0.004 C 
ATOM     27  C   UNL     1       1.684  45.437  55.793  1.00  0.00     0.000 C 
ATOM     28  C   UNL     1      -0.681  44.910  56.530  1.00  0.00     0.000 C 
ATOM     29  C   UNL     1       0.797  44.834  56.881  1.00  0.00     0.000 C 
ENDBRANCH  23  24
ENDBRANCH   3  23
TORSDOF 5
ENDMDL
MODEL 5
REMARK VINA RESULT:    -9.152      1.241      1.859
REMARK INTER + INTRA:         -12.807
REMARK INTER:                 -12.631
REMARK INTRA:                  -0.176
REMARK UNBOUND:                -0.980
REMARK SMILES Cc1noc(-c2ccccc2)c1C(=O)Nc1cc(CC2CCCCC2)n[nH]1
REMARK SMILES IDX 16 1 17 2 18 3 26 4 27 5 15 7 13 8 14 9 12 11 2 12 3 13 4 14
REMARK SMILES IDX 5 15 1 16 6 17 7 18 11 19 8 20 10 21 9 22 19 23 20 24 21 25
REMARK SMILES IDX 25 26 22 27 24 28 23 29
REMARK H PARENT 27 6 15 10
ROOT
ATOM      1  C   UNL     1       4.017  44.529  53.837  1.00  0.00     0.128 A 
ATOM      2  C   UNL     1       4.492  45.043  52.655  1.00  0.00     0.072 A 
ATOM      3  C   UNL     1       5.882  45.226  52.864  1.00  0.00     0.065 A 
ATOM      4  N   UNL     1       6.249  44.860  54.098  1.00  0.00    -0.179 NA
ATOM      5  N   UNL     1       5.106  44.441  54.667  1.00  0.00    -0.263 N 
ATOM      6  H   UNL     1       5.115  44.105  55.626  1.00  0.00     0.192 HD
ENDROOT
BRANCH   1   7
ATOM      7  N   UNL     1       2.732  44.158  54.179  1.00  0.00    -0.307 N 
ATOM      8  C   UNL     1       1.652  45.013  54.031  1.00  0.00     0.262 C 
ATOM      9  O   UNL     1       1.740  46.139  53.543  1.00  0.00    -0.269 OA
ATOM     10  H   UNL     1       2.596  43.216  54.525  1.00  0.00     0.171 HD
BRANCH   8  11
ATOM     11  C   UNL     1       0.373  44.479  54.457  1.00  0.00     0.110 A 
ATOM     12  C   UNL     1      -0.412  43.497  53.785  1.00  0.00     0.094 A 
ATOM     13  N   UNL     1      -1.523  43.201  54.467  1.00  0.00    -0.084 NA
ATOM     14  O   UNL     1      -1.504  44.016  55.581  1.00  0.00    -0.355 OA
ATOM     15  C   UNL     1      -0.385  44.792  55.570  1.00  0.00     0.179 A 
ATOM     16  C   UNL     1      -0.126  42.811  52.502  1.00  0.00     0.071 C 
BRANCH  15  17
ATOM     17  C   UNL     1      -0.292  45.736  56.672  1.00  0.00     0.021 A 
ATOM     18  C   UNL     1      -1.387  46.538  57.024  1.00  0.00     0.012 A 
ATOM     19  C   UNL     1       0.905  45.873  57.385  1.00  0.00     0.012 A 
ATOM     20  C   UNL     1      -1.280  47.471  58.059  1.00  0.00     0.001 A 
ATOM     21  C   UNL     1       1.011  46.806  58.422  1.00  0.00     0.001 A 
ATOM     22  C   UNL     1      -0.081  47.605  58.754  1.00  0.00     0.000 A 
ENDBRANCH  15  17
ENDBRANCH   8  11
ENDBRANCH   1   7
BRANCH   3  23
ATOM     23  C   UNL     1       6.896  45.772  51.908  1.00  0.00     0.061 C 
BRANCH  23  24
ATOM     24  C   UNL     1       7.362  47.202  52.265  1.00  0.00    -0.005 C 
ATOM     25  C   UNL     1       8.661  47.553  51.524  1.00  0.00     0.004 C 
ATOM     26  C   UNL     1       7.516  47.405  53.790  1.00  0.00     0.004 C 
ATOM     27  C   UNL     1       9.875  46.773  52.028  1.00  0.00     0.000 C 
ATOM     28  C   UNL     1       8.965  47.555  54.258  1.00  0.00     0.000 C 
ATOM     29  C   UNL     1       9.887  46.578  53.543  1.00  0.00     0.000 C 
ENDBRANCH  23  24
ENDBRANCH   3  23
TORSDOF 5
ENDMDL
MODEL 6
REMARK VINA RESULT:    -9.087      3.420      9.137
REMARK INTER + INTRA:         -12.724
REMARK INTER:                 -11.991
REMARK INTRA:                  -0.732
REMARK UNBOUND:                -0.980
REMARK SMILES Cc1noc(-c2ccccc2)c1C(=O)Nc1cc(CC2CCCCC2)n[nH]1
REMARK SMILES IDX 16 1 17 2 18 3 26 4 27 5 15 7 13 8 14 9 12 11 2 12 3 13 4 14
REMARK SMILES IDX 5 15 1 16 6 17 7 18 11 19 8 20 10 21 9 22 19 23 20 24 21 25
REMARK SMILES IDX 25 26 22 27 24 28 23 29
REMARK H PARENT 27 6 15 10
ROOT
ATOM      1  C   UNL     1       3.542  45.775  51.394  1.00  0.00     0.128 A 
ATOM      2  C   UNL     1       2.392  45.035  51.264  1.00  0.00     0.072 A 
ATOM      3  C   UNL     1       1.435  45.697  52.073  1.00  0.00     0.065 A 
ATOM      4  N   UNL     1       1.956  46.773  52.676  1.00  0.00    -0.179 NA
ATOM      5  N   UNL     1       3.230  46.800  52.249  1.00  0.00    -0.263 N 
ATOM      6  H   UNL     1       3.853  47.537  52.571  1.00  0.00     0.192 HD
ENDROOT
BRANCH   1   7
ATOM      7  N   UNL     1       4.780  45.581  50.812  1.00  0.00    -0.307 N 
ATOM      8  C   UNL     1       5.516  44.424  51.009  1.00  0.00     0.262 C 
ATOM      9  O   UNL     1       5.111  43.467  51.668  1.00  0.00    -0.269 OA
ATOM     10  H   UNL     1       5.129  46.314  50.207  1.00  0.00     0.171 HD
BRANCH   8  11
ATOM     11  C   UNL     1       6.805  44.387  50.347  1.00  0.00     0.110 A 
ATOM     12  C   UNL     1       7.184  43.550  49.257  1.00  0.00     0.094 A 
ATOM     13  N   UNL     1       8.437  43.793  48.859  1.00  0.00    -0.084 NA
ATOM     14  O   UNL     1       8.915  44.768  49.711  1.00  0.00    -0.355 OA
ATOM     15  C   UNL     1       7.952  45.112  50.610  1.00  0.00     0.179 A 
ATOM     16  C   UNL     1       6.373  42.521  48.562  1.00  0.00     0.071 C 
BRANCH  15  17
ATOM     17  C   UNL     1       8.369  46.093  51.598  1.00  0.00     0.021 A 
ATOM     18  C   UNL     1       7.660  47.292  51.763  1.00  0.00     0.012 A 
ATOM     19  C   UNL     1       9.502  45.863  52.388  1.00  0.00     0.012 A 
ATOM     20  C   UNL     1       8.089  48.249  52.687  1.00  0.00     0.001 A 
ATOM     21  C   UNL     1       9.928  46.819  53.314  1.00  0.00     0.001 A 
ATOM     22  C   UNL     1       9.223  48.012  53.460  1.00  0.00     0.000 A 
ENDBRANCH  15  17
ENDBRANCH   8  11
ENDBRANCH   1   7
BRANCH   3  23
ATOM     23  C   UNL     1       0.007  45.318  52.315  1.00  0.00     0.061 C 
BRANCH  23  24
ATOM     24  C   UNL     1      -0.150  44.122  53.281  1.00  0.00    -0.005 C 
ATOM     25  C   UNL     1      -1.483  43.397  53.039  1.00  0.00     0.004 C 
ATOM     26  C   UNL     1      -0.003  44.541  54.762  1.00  0.00     0.004 C 
ATOM     27  C   UNL     1      -2.702  44.213  53.467  1.00  0.00     0.000 C 
ATOM     28  C   UNL     1      -1.305  44.477  55.563  1.00  0.00     0.000 C 
ATOM     29  C   UNL     1      -2.484  45.002  54.757  1.00  0.00     0.000 C 
ENDBRANCH  23  24
ENDBRANCH   3  23
TORSDOF 5
ENDMDL
MODEL 7
REMARK VINA RESULT:    -8.719      3.209      8.592
REMARK INTER + INTRA:         -12.248
REMARK INTER:                 -11.328
REMARK INTRA:                  -0.919
REMARK UNBOUND:                -0.980
REMARK SMILES Cc1noc(-c2ccccc2)c1C(=O)Nc1cc(CC2CCCCC2)n[nH]1
REMARK SMILES IDX 16 1 17 2 18 3 26 4 27 5 15 7 13 8 14 9 12 11 2 12 3 13 4 14
REMARK SMILES IDX 5 15 1 16 6 17 7 18 11 19 8 20 10 21 9 22 19 23 20 24 21 25
REMARK SMILES IDX 25 26 22 27 24 28 23 29
REMARK H PARENT 27 6 15 10
ROOT
ATOM      1  C   UNL     1       1.300  42.836  53.273  1.00  0.00     0.128 A 
ATOM      2  C   UNL     1       0.864  43.950  53.946  1.00  0.00     0.072 A 
ATOM      3  C   UNL     1      -0.457  43.640  54.357  1.00  0.00     0.065 A 
ATOM      4  N   UNL     1      -0.825  42.417  53.956  1.00  0.00    -0.179 NA
ATOM      5  N   UNL     1       0.254  41.949  53.304  1.00  0.00    -0.263 N 
ATOM      6  H   UNL     1       0.229  41.020  52.894  1.00  0.00     0.192 HD
ENDROOT
BRANCH   1   7
ATOM      7  N   UNL     1       2.519  42.596  52.671  1.00  0.00    -0.307 N 
ATOM      8  C   UNL     1       2.851  43.128  51.435  1.00  0.00     0.262 C 
ATOM      9  O   UNL     1       2.118  43.888  50.806  1.00  0.00    -0.269 OA
ATOM     10  H   UNL     1       3.186  42.028  53.180  1.00  0.00     0.171 HD
BRANCH   8  11
ATOM     11  C   UNL     1       4.161  42.762  50.932  1.00  0.00     0.110 A 
ATOM     12  C   UNL     1       4.489  41.612  50.156  1.00  0.00     0.094 A 
ATOM     13  N   UNL     1       5.785  41.593  49.825  1.00  0.00    -0.084 NA
ATOM     14  O   UNL     1       6.336  42.712  50.415  1.00  0.00    -0.355 OA
ATOM     15  C   UNL     1       5.375  43.402  51.090  1.00  0.00     0.179 A 
ATOM     16  C   UNL     1       3.593  40.523  49.701  1.00  0.00     0.071 C 
BRANCH  15  17
ATOM     17  C   UNL     1       5.859  44.573  51.802  1.00  0.00     0.021 A 
ATOM     18  C   UNL     1       5.614  44.731  53.174  1.00  0.00     0.012 A 
ATOM     19  C   UNL     1       6.562  45.575  51.121  1.00  0.00     0.012 A 
ATOM     20  C   UNL     1       6.048  45.877  53.845  1.00  0.00     0.001 A 
ATOM     21  C   UNL     1       6.997  46.720  51.794  1.00  0.00     0.001 A 
ATOM     22  C   UNL     1       6.737  46.871  53.155  1.00  0.00     0.000 A 
ENDBRANCH  15  17
ENDBRANCH   8  11
ENDBRANCH   1   7
BRANCH   3  23
ATOM     23  C   UNL     1      -1.414  44.501  55.120  1.00  0.00     0.061 C 
BRANCH  23  24
ATOM     24  C   UNL     1      -1.118  44.545  56.636  1.00  0.00    -0.005 C 
ATOM     25  C   UNL     1      -2.403  44.813  57.435  1.00  0.00     0.004 C 
ATOM     26  C   UNL     1      -0.017  45.571  56.990  1.00  0.00     0.004 C 
ATOM     27  C   UNL     1      -2.943  46.231  57.255  1.00  0.00     0.000 C 
ATOM     28  C   UNL     1      -0.525  46.798  57.749  1.00  0.00     0.000 C 
ATOM     29  C   UNL     1      -1.849  47.295  57.187  1.00  0.00     0.000 C 
ENDBRANCH  23  24
ENDBRANCH   3  23
TORSDOF 5
ENDMDL
MODEL 8
REMARK VINA RESULT:    -8.585      3.249      8.904
REMARK INTER + INTRA:         -12.075
REMARK INTER:                 -11.107
REMARK INTRA:                  -0.968
REMARK UNBOUND:                -0.980
REMARK SMILES Cc1noc(-c2ccccc2)c1C(=O)Nc1cc(CC2CCCCC2)n[nH]1
REMARK SMILES IDX 16 1 17 2 18 3 26 4 27 5 15 7 13 8 14 9 12 11 2 12 3 13 4 14
REMARK SMILES IDX 5 15 1 16 6 17 7 18 11 19 8 20 10 21 9 22 19 23 20 24 21 25
REMARK SMILES IDX 25 26 22 27 24 28 23 29
REMARK H PARENT 27 6 15 10
ROOT
ATOM      1  C   UNL     1       4.737  45.503  54.525  1.00  0.00     0.128 A 
ATOM      2  C   UNL     1       3.766  44.577  54.232  1.00  0.00     0.072 A 
ATOM      3  C   UNL     1       2.635  44.975  54.987  1.00  0.00     0.065 A 
ATOM      4  N   UNL     1       2.886  46.072  55.712  1.00  0.00    -0.179 NA
ATOM      5  N   UNL     1       4.162  46.373  55.416  1.00  0.00    -0.263 N 
ATOM      6  H   UNL     1       4.601  47.182  55.849  1.00  0.00     0.192 HD
ENDROOT
BRANCH   1   7
ATOM      7  N   UNL     1       6.032  45.595  54.057  1.00  0.00    -0.307 N 
ATOM      8  C   UNL     1       6.530  46.754  53.482  1.00  0.00     0.262 C 
ATOM      9  O   UNL     1       5.884  47.796  53.391  1.00  0.00    -0.269 OA
ATOM     10  H   UNL     1       6.627  44.783  54.169  1.00  0.00     0.171 HD
BRANCH   8  11
ATOM     11  C   UNL     1       7.902  46.679  53.021  1.00  0.00     0.110 A 
ATOM     12  C   UNL     1       9.028  47.362  53.568  1.00  0.00     0.094 A 
ATOM     13  N   UNL     1      10.158  47.044  52.928  1.00  0.00    -0.084 NA
ATOM     14  O   UNL     1       9.784  46.176  51.922  1.00  0.00    -0.355 OA
ATOM     15  C   UNL     1       8.439  45.970  51.963  1.00  0.00     0.179 A 
ATOM     16  C   UNL     1       9.065  48.310  54.707  1.00  0.00     0.071 C 
BRANCH  15  17
ATOM     17  C   UNL     1       7.925  45.114  50.906  1.00  0.00     0.021 A 
ATOM     18  C   UNL     1       8.777  44.610  49.913  1.00  0.00     0.012 A 
ATOM     19  C   UNL     1       6.562  44.799  50.852  1.00  0.00     0.012 A 
ATOM     20  C   UNL     1       8.271  43.820  48.877  1.00  0.00     0.001 A 
ATOM     21  C   UNL     1       6.057  44.006  49.817  1.00  0.00     0.001 A 
ATOM     22  C   UNL     1       6.912  43.521  48.829  1.00  0.00     0.000 A 
ENDBRANCH  15  17
ENDBRANCH   8  11
ENDBRANCH   1   7
BRANCH   3  23
ATOM     23  C   UNL     1       1.293  44.317  55.059  1.00  0.00     0.061 C 
BRANCH  23  24
ATOM     24  C   UNL     1       0.300  44.841  53.998  1.00  0.00    -0.005 C 
ATOM     25  C   UNL     1      -0.715  43.752  53.615  1.00  0.00     0.004 C 
ATOM     26  C   UNL     1       1.017  45.400  52.746  1.00  0.00     0.004 C 
ATOM     27  C   UNL     1      -0.098  42.603  52.820  1.00  0.00     0.000 C 
ATOM     28  C   UNL     1       0.844  44.543  51.492  1.00  0.00     0.000 C 
ATOM     29  C   UNL     1       0.952  43.058  51.808  1.00  0.00     0.000 C 
ENDBRANCH  23  24
ENDBRANCH   3  23
TORSDOF 5
ENDMDL
MODEL 9
REMARK VINA RESULT:    -8.535      2.393      4.655
REMARK INTER + INTRA:         -12.010
REMARK INTER:                 -10.920
REMARK INTRA:                  -1.090
REMARK UNBOUND:                -0.980
REMARK SMILES Cc1noc(-c2ccccc2)c1C(=O)Nc1cc(CC2CCCCC2)n[nH]1
REMARK SMILES IDX 16 1 17 2 18 3 26 4 27 5 15 7 13 8 14 9 12 11 2 12 3 13 4 14
REMARK SMILES IDX 5 15 1 16 6 17 7 18 11 19 8 20 10 21 9 22 19 23 20 24 21 25
REMARK SMILES IDX 25 26 22 27 24 28 23 29
REMARK H PARENT 27 6 15 10
ROOT
ATOM      1  C   UNL     1       3.712  44.964  52.490  1.00  0.00     0.128 A 
ATOM      2  C   UNL     1       5.019  44.935  52.910  1.00  0.00     0.072 A 
ATOM      3  C   UNL     1       5.771  45.419  51.810  1.00  0.00     0.065 A 
ATOM      4  N   UNL     1       4.986  45.719  50.769  1.00  0.00    -0.179 NA
ATOM      5  N   UNL     1       3.746  45.438  51.204  1.00  0.00    -0.263 N 
ATOM      6  H   UNL     1       2.951  45.582  50.586  1.00  0.00     0.192 HD
ENDROOT
BRANCH   1   7
ATOM      7  N   UNL     1       2.564  44.608  53.170  1.00  0.00    -0.307 N 
ATOM      8  C   UNL     1       1.404  45.364  53.109  1.00  0.00     0.262 C 
ATOM      9  O   UNL     1       1.288  46.371  52.414  1.00  0.00    -0.269 OA
ATOM     10  H   UNL     1       2.588  43.749  53.706  1.00  0.00     0.171 HD
BRANCH   8  11
ATOM     11  C   UNL     1       0.295  44.865  53.899  1.00  0.00     0.110 A 
ATOM     12  C   UNL     1       0.218  44.799  55.321  1.00  0.00     0.094 A 
ATOM     13  N   UNL     1      -0.961  44.319  55.730  1.00  0.00    -0.084 NA
ATOM     14  O   UNL     1      -1.662  44.023  54.578  1.00  0.00    -0.355 OA
ATOM     15  C   UNL     1      -0.910  44.331  53.485  1.00  0.00     0.179 A 
ATOM     16  C   UNL     1       1.240  45.199  56.317  1.00  0.00     0.071 C 
BRANCH  15  17
ATOM     17  C   UNL     1      -1.531  44.002  52.212  1.00  0.00     0.021 A 
ATOM     18  C   UNL     1      -1.857  45.009  51.292  1.00  0.00     0.012 A 
ATOM     19  C   UNL     1      -1.831  42.672  51.894  1.00  0.00     0.012 A 
ATOM     20  C   UNL     1      -2.489  44.691  50.086  1.00  0.00     0.001 A 
ATOM     21  C   UNL     1      -2.460  42.355  50.687  1.00  0.00     0.001 A 
ATOM     22  C   UNL     1      -2.791  43.366  49.786  1.00  0.00     0.000 A 
ENDBRANCH  15  17
ENDBRANCH   8  11
ENDBRANCH   1   7
BRANCH   3  23
ATOM     23  C   UNL     1       7.255  45.589  51.707  1.00  0.00     0.061 C 
BRANCH  23  24
ATOM     24  C   UNL     1       7.717  47.046  51.929  1.00  0.00    -0.005 C 
ATOM     25  C   UNL     1       9.158  47.243  51.432  1.00  0.00     0.004 C 
ATOM     26  C   UNL     1       7.570  47.492  53.403  1.00  0.00     0.004 C 
ATOM     27  C   UNL     1      10.198  46.527  52.293  1.00  0.00     0.000 C 
ATOM     28  C   UNL     1       8.899  47.681  54.135  1.00  0.00     0.000 C 
ATOM     29  C   UNL     1       9.891  46.581  53.789  1.00  0.00     0.000 C 
ENDBRANCH  23  24
ENDBRANCH   3  23
TORSDOF 5
ENDMDL
MODEL 10
REMARK VINA RESULT:    -8.468      5.150      8.487
REMARK INTER + INTRA:         -11.923
REMARK INTER:                 -11.379
REMARK INTRA:                  -0.544
REMARK UNBOUND:                -0.980
REMARK SMILES Cc1noc(-c2ccccc2)c1C(=O)Nc1cc(CC2CCCCC2)n[nH]1
REMARK SMILES IDX 16 1 17 2 18 3 26 4 27 5 15 7 13 8 14 9 12 11 2 12 3 13 4 14
REMARK SMILES IDX 5 15 1 16 6 17 7 18 11 19 8 20 10 21 9 22 19 23 20 24 21 25
REMARK SMILES IDX 25 26 22 27 24 28 23 29
REMARK H PARENT 27 6 15 10
ROOT
ATOM      1  C   UNL     1       4.677  42.769  51.030  1.00  0.00     0.128 A 
ATOM      2  C   UNL     1       5.249  42.652  49.787  1.00  0.00     0.072 A 
ATOM      3  C   UNL     1       4.742  41.438  49.260  1.00  0.00     0.065 A 
ATOM      4  N   UNL     1       3.917  40.831  50.123  1.00  0.00    -0.179 NA
ATOM      5  N   UNL     1       3.892  41.655  51.184  1.00  0.00    -0.263 N 
ATOM      6  H   UNL     1       3.327  41.414  51.994  1.00  0.00     0.192 HD
ENDROOT
BRANCH   1   7
ATOM      7  N   UNL     1       4.820  43.770  51.971  1.00  0.00    -0.307 N 
ATOM      8  C   UNL     1       4.805  45.113  51.630  1.00  0.00     0.262 C 
ATOM      9  O   UNL     1       4.615  45.519  50.484  1.00  0.00    -0.269 OA
ATOM     10  H   UNL     1       4.914  43.488  52.939  1.00  0.00     0.171 HD
BRANCH   8  11
ATOM     11  C   UNL     1       4.990  46.036  52.732  1.00  0.00     0.110 A 
ATOM     12  C   UNL     1       3.973  46.595  53.561  1.00  0.00     0.094 A 
ATOM     13  N   UNL     1       4.487  47.385  54.509  1.00  0.00    -0.084 NA
ATOM     14  O   UNL     1       5.850  47.389  54.291  1.00  0.00    -0.355 OA
ATOM     15  C   UNL     1       6.152  46.601  53.222  1.00  0.00     0.179 A 
ATOM     16  C   UNL     1       2.507  46.386  53.486  1.00  0.00     0.071 C 
BRANCH  15  17
ATOM     17  C   UNL     1       7.561  46.579  52.865  1.00  0.00     0.021 A 
ATOM     18  C   UNL     1       7.971  46.168  51.588  1.00  0.00     0.012 A 
ATOM     19  C   UNL     1       8.533  46.950  53.801  1.00  0.00     0.012 A 
ATOM     20  C   UNL     1       9.329  46.112  51.263  1.00  0.00     0.001 A 
ATOM     21  C   UNL     1       9.892  46.896  53.474  1.00  0.00     0.001 A 
ATOM     22  C   UNL     1      10.287  46.474  52.206  1.00  0.00     0.000 A 
ENDBRANCH  15  17
ENDBRANCH   8  11
ENDBRANCH   1   7
BRANCH   3  23
ATOM     23  C   UNL     1       5.042  40.808  47.936  1.00  0.00     0.061 C 
BRANCH  23  24
ATOM     24  C   UNL     1       4.390  41.549  46.748  1.00  0.00    -0.005 C 
ATOM     25  C   UNL     1       3.122  40.818  46.279  1.00  0.00     0.004 C 
ATOM     26  C   UNL     1       5.376  41.762  45.576  1.00  0.00     0.004 C 
ATOM     27  C   UNL     1       3.410  39.481  45.599  1.00  0.00     0.000 C 
ATOM     28  C   UNL     1       5.065  40.923  44.336  1.00  0.00     0.000 C 
ATOM     29  C   UNL     1       4.651  39.507  44.708  1.00  0.00     0.000 C 
ENDBRANCH  23  24
ENDBRANCH   3  23
TORSDOF 5
ENDMDL
