MODEL 1
REMARK VINA RESULT:    -9.033      0.000      0.000
REMARK INTER + INTRA:         -12.768
REMARK INTER:                 -11.673
REMARK INTRA:                  -1.095
REMARK UNBOUND:                -1.095
REMARK SMILES O=C(NCc1ccno1)c1ccccc1OC1CCCCC1
REMARK SMILES IDX 10 1 11 2 12 3 13 4 14 5 15 6 2 7 3 8 1 9 4 11 5 12 6 13
REMARK SMILES IDX 9 14 7 15 8 16 16 17 17 18 18 19 22 20 19 21 21 22 20 23
REMARK H PARENT 3 10
ROOT
ATOM      1  C   UNL     1       7.567  46.747  53.275  1.00  0.00     0.081 A 
ATOM      2  C   UNL     1       8.569  46.981  54.238  1.00  0.00     0.018 A 
ATOM      3  C   UNL     1       9.916  46.961  53.886  1.00  0.00     0.001 A 
ATOM      4  C   UNL     1      10.274  46.710  52.569  1.00  0.00     0.004 A 
ATOM      5  C   UNL     1       9.291  46.483  51.601  1.00  0.00     0.047 A 
ATOM      6  C   UNL     1       7.931  46.502  51.930  1.00  0.00     0.132 A 
ENDROOT
BRANCH   1   7
ATOM      7  C   UNL     1       6.154  46.789  53.784  1.00  0.00     0.255 C 
ATOM      8  N   UNL     1       5.210  47.387  52.986  1.00  0.00    -0.345 N 
ATOM      9  O   UNL     1       5.867  46.295  54.871  1.00  0.00    -0.269 OA
ATOM     10  H   UNL     1       5.551  47.934  52.202  1.00  0.00     0.164 HD
BRANCH   8  11
ATOM     11  C   UNL     1       3.880  47.656  53.473  1.00  0.00     0.194 C 
BRANCH  11  12
ATOM     12  C   UNL     1       2.945  46.715  52.824  1.00  0.00     0.155 A 
ATOM     13  C   UNL     1       2.799  46.241  51.543  1.00  0.00     0.071 A 
ATOM     14  O   UNL     1       1.977  46.173  53.616  1.00  0.00    -0.360 OA
ATOM     15  C   UNL     1       1.687  45.386  51.622  1.00  0.00     0.158 A 
ATOM     16  N   UNL     1       1.178  45.334  52.856  1.00  0.00    -0.088 NA
ENDBRANCH  11  12
ENDBRANCH   8  11
ENDBRANCH   1   7
BRANCH   6  17
ATOM     17  O   UNL     1       6.915  46.306  51.041  1.00  0.00    -0.490 OA
BRANCH  17  18
ATOM     18  C   UNL     1       6.561  45.060  50.436  1.00  0.00     0.173 C 
ATOM     19  C   UNL     1       5.720  44.146  51.335  1.00  0.00     0.045 C 
ATOM     20  C   UNL     1       7.715  44.361  49.708  1.00  0.00     0.045 C 
ATOM     21  C   UNL     1       5.297  42.875  50.602  1.00  0.00     0.004 C 
ATOM     22  C   UNL     1       7.245  43.086  49.010  1.00  0.00     0.004 C 
ATOM     23  C   UNL     1       6.487  42.166  49.963  1.00  0.00     0.000 C 
ENDBRANCH  17  18
ENDBRANCH   6  17
TORSDOF 5
ENDMDL
MODEL 2
REMARK VINA RESULT:    -8.930      1.067      1.655
REMARK INTER + INTRA:         -12.636
REMARK INTER:                 -11.303
REMARK INTRA:                  -1.333
REMARK UNBOUND:                -1.095
REMARK SMILES O=C(NCc1ccno1)c1ccccc1OC1CCCCC1
REMARK SMILES IDX 10 1 11 2 12 3 13 4 14 5 15 6 2 7 3 8 1 9 4 11 5 12 6 13
REMARK SMILES IDX 9 14 7 15 8 16 16 17 17 18 18 19 22 20 19 21 21 22 20 23
REMARK H PARENT 3 10
ROOT
ATOM      1  C   UNL     1       7.543  46.481  53.284  1.00  0.00     0.081 A 
ATOM      2  C   UNL     1       8.718  46.967  53.891  1.00  0.00     0.018 A 
ATOM      3  C   UNL     1       9.913  47.038  53.178  1.00  0.00     0.001 A 
ATOM      4  C   UNL     1       9.943  46.627  51.853  1.00  0.00     0.004 A 
ATOM      5  C   UNL     1       8.783  46.150  51.236  1.00  0.00     0.047 A 
ATOM      6  C   UNL     1       7.571  46.073  51.930  1.00  0.00     0.132 A 
ENDROOT
BRANCH   1   7
ATOM      7  C   UNL     1       6.324  46.449  54.163  1.00  0.00     0.255 C 
ATOM      8  N   UNL     1       5.159  46.964  53.648  1.00  0.00    -0.345 N 
ATOM      9  O   UNL     1       6.380  45.969  55.291  1.00  0.00    -0.269 OA
ATOM     10  H   UNL     1       5.234  47.508  52.795  1.00  0.00     0.164 HD
BRANCH   8  11
ATOM     11  C   UNL     1       3.998  47.162  54.480  1.00  0.00     0.194 C 
BRANCH  11  12
ATOM     12  C   UNL     1       2.872  46.401  53.902  1.00  0.00     0.155 A 
ATOM     13  C   UNL     1       2.231  45.235  54.240  1.00  0.00     0.071 A 
ATOM     14  O   UNL     1       2.312  46.909  52.768  1.00  0.00    -0.360 OA
ATOM     15  C   UNL     1       1.256  45.080  53.240  1.00  0.00     0.158 A 
ATOM     16  N   UNL     1       1.291  46.073  52.346  1.00  0.00    -0.088 NA
ENDBRANCH  11  12
ENDBRANCH   8  11
ENDBRANCH   1   7
BRANCH   6  17
ATOM     17  O   UNL     1       6.395  45.635  51.393  1.00  0.00    -0.490 OA
BRANCH  17  18
ATOM     18  C   UNL     1       5.990  44.269  51.267  1.00  0.00     0.173 C 
ATOM     19  C   UNL     1       6.505  43.580  49.999  1.00  0.00     0.045 C 
ATOM     20  C   UNL     1       4.510  44.019  51.580  1.00  0.00     0.045 C 
ATOM     21  C   UNL     1       6.118  42.103  49.967  1.00  0.00     0.004 C 
ATOM     22  C   UNL     1       4.169  42.532  51.515  1.00  0.00     0.004 C 
ATOM     23  C   UNL     1       4.623  41.904  50.199  1.00  0.00     0.000 C 
ENDBRANCH  17  18
ENDBRANCH   6  17
TORSDOF 5
ENDMDL
MODEL 3
REMARK VINA RESULT:    -8.634      1.688      4.377
REMARK INTER + INTRA:         -12.253
REMARK INTER:                 -11.354
REMARK INTRA:                  -0.900
REMARK UNBOUND:                -1.095
REMARK SMILES O=C(NCc1ccno1)c1ccccc1OC1CCCCC1
REMARK SMILES IDX 10 1 11 2 12 3 13 4 14 5 15 6 2 7 3 8 1 9 4 11 5 12 6 13
REMARK SMILES IDX 9 14 7 15 8 16 16 17 17 18 18 19 22 20 19 21 21 22 20 23
REMARK H PARENT 3 10
ROOT
ATOM      1  C   UNL     1       5.903  44.502  50.642  1.00  0.00     0.081 A 
ATOM      2  C   UNL     1       5.520  43.261  50.098  1.00  0.00     0.018 A 
ATOM      3  C   UNL     1       6.379  42.552  49.262  1.00  0.00     0.001 A 
ATOM      4  C   UNL     1       7.629  43.076  48.965  1.00  0.00     0.004 A 
ATOM      5  C   UNL     1       8.026  44.303  49.504  1.00  0.00     0.047 A 
ATOM      6  C   UNL     1       7.182  45.031  50.349  1.00  0.00     0.132 A 
ENDROOT
BRANCH   1   7
ATOM      7  C   UNL     1       4.883  45.168  51.522  1.00  0.00     0.255 C 
ATOM      8  N   UNL     1       4.700  44.654  52.783  1.00  0.00    -0.345 N 
ATOM      9  O   UNL     1       4.251  46.141  51.120  1.00  0.00    -0.269 OA
ATOM     10  H   UNL     1       5.114  43.747  52.973  1.00  0.00     0.164 HD
BRANCH   8  11
ATOM     11  C   UNL     1       3.610  45.092  53.619  1.00  0.00     0.194 C 
BRANCH  11  12
ATOM     12  C   UNL     1       2.494  44.137  53.471  1.00  0.00     0.155 A 
ATOM     13  C   UNL     1       2.268  43.044  52.669  1.00  0.00     0.071 A 
ATOM     14  O   UNL     1       1.407  44.341  54.268  1.00  0.00    -0.360 OA
ATOM     15  C   UNL     1       0.983  42.611  53.038  1.00  0.00     0.158 A 
ATOM     16  N   UNL     1       0.449  43.378  53.993  1.00  0.00    -0.088 NA
ENDBRANCH  11  12
ENDBRANCH   8  11
ENDBRANCH   1   7
BRANCH   6  17
ATOM     17  O   UNL     1       7.503  46.225  50.926  1.00  0.00    -0.490 OA
BRANCH  17  18
ATOM     18  C   UNL     1       8.137  46.398  52.196  1.00  0.00     0.173 C 
ATOM     19  C   UNL     1       7.311  47.211  53.199  1.00  0.00     0.045 C 
ATOM     20  C   UNL     1       9.617  46.790  52.115  1.00  0.00     0.045 C 
ATOM     21  C   UNL     1       7.997  47.282  54.562  1.00  0.00     0.004 C 
ATOM     22  C   UNL     1      10.252  46.868  53.502  1.00  0.00     0.004 C 
ATOM     23  C   UNL     1       9.443  47.756  54.444  1.00  0.00     0.000 C 
ENDBRANCH  17  18
ENDBRANCH   6  17
TORSDOF 5
ENDMDL
MODEL 4
REMARK VINA RESULT:    -8.528      2.147      6.079
REMARK INTER + INTRA:         -12.117
REMARK INTER:                 -11.084
REMARK INTRA:                  -1.032
REMARK UNBOUND:                -1.095
REMARK SMILES O=C(NCc1ccno1)c1ccccc1OC1CCCCC1
REMARK SMILES IDX 10 1 11 2 12 3 13 4 14 5 15 6 2 7 3 8 1 9 4 11 5 12 6 13
REMARK SMILES IDX 9 14 7 15 8 16 16 17 17 18 18 19 22 20 19 21 21 22 20 23
REMARK H PARENT 3 10
ROOT
ATOM      1  C   UNL     1       6.110  43.901  50.582  1.00  0.00     0.081 A 
ATOM      2  C   UNL     1       6.551  42.660  50.082  1.00  0.00     0.018 A 
ATOM      3  C   UNL     1       5.714  41.547  50.094  1.00  0.00     0.001 A 
ATOM      4  C   UNL     1       4.429  41.664  50.605  1.00  0.00     0.004 A 
ATOM      5  C   UNL     1       3.975  42.891  51.098  1.00  0.00     0.047 A 
ATOM      6  C   UNL     1       4.796  44.024  51.092  1.00  0.00     0.132 A 
ENDROOT
BRANCH   1   7
ATOM      7  C   UNL     1       7.110  45.020  50.518  1.00  0.00     0.255 C 
ATOM      8  N   UNL     1       7.151  45.895  51.577  1.00  0.00    -0.345 N 
ATOM      9  O   UNL     1       7.863  45.131  49.555  1.00  0.00    -0.269 OA
ATOM     10  H   UNL     1       6.382  45.854  52.237  1.00  0.00     0.164 HD
BRANCH   8  11
ATOM     11  C   UNL     1       7.928  47.108  51.514  1.00  0.00     0.194 C 
BRANCH  11  12
ATOM     12  C   UNL     1       8.661  47.260  52.788  1.00  0.00     0.155 A 
ATOM     13  C   UNL     1       9.881  46.828  53.247  1.00  0.00     0.071 A 
ATOM     14  O   UNL     1       8.033  47.962  53.773  1.00  0.00    -0.360 OA
ATOM     15  C   UNL     1       9.940  47.315  54.564  1.00  0.00     0.158 A 
ATOM     16  N   UNL     1       8.840  47.995  54.899  1.00  0.00    -0.088 NA
ENDBRANCH  11  12
ENDBRANCH   8  11
ENDBRANCH   1   7
BRANCH   6  17
ATOM     17  O   UNL     1       4.420  45.257  51.541  1.00  0.00    -0.490 OA
BRANCH  17  18
ATOM     18  C   UNL     1       3.804  45.537  52.801  1.00  0.00     0.173 C 
ATOM     19  C   UNL     1       4.555  44.959  54.005  1.00  0.00     0.045 C 
ATOM     20  C   UNL     1       2.286  45.320  52.823  1.00  0.00     0.045 C 
ATOM     21  C   UNL     1       3.901  45.369  55.322  1.00  0.00     0.004 C 
ATOM     22  C   UNL     1       1.683  45.724  54.166  1.00  0.00     0.004 C 
ATOM     23  C   UNL     1       2.406  45.058  55.334  1.00  0.00     0.000 C 
ENDBRANCH  17  18
ENDBRANCH   6  17
TORSDOF 5
ENDMDL
MODEL 5
REMARK VINA RESULT:    -8.522      2.487      4.592
REMARK INTER + INTRA:         -12.109
REMARK INTER:                 -10.934
REMARK INTRA:                  -1.175
REMARK UNBOUND:                -1.095
REMARK SMILES O=C(NCc1ccno1)c1ccccc1OC1CCCCC1
REMARK SMILES IDX 10 1 11 2 12 3 13 4 14 5 15 6 2 7 3 8 1 9 4 11 5 12 6 13
REMARK SMILES IDX 9 14 7 15 8 16 16 17 17 18 18 19 22 20 19 21 21 22 20 23
REMARK H PARENT 3 10
ROOT
ATOM      1  C   UNL     1       8.534  45.651  51.127  1.00  0.00     0.081 A 
ATOM      2  C   UNL     1       9.873  45.754  51.552  1.00  0.00     0.018 A 
ATOM      3  C   UNL     1      10.254  46.714  52.486  1.00  0.00     0.001 A 
ATOM      4  C   UNL     1       9.300  47.578  53.005  1.00  0.00     0.004 A 
ATOM      5  C   UNL     1       7.966  47.483  52.598  1.00  0.00     0.047 A 
ATOM      6  C   UNL     1       7.559  46.524  51.664  1.00  0.00     0.132 A 
ENDROOT
BRANCH   1   7
ATOM      7  C   UNL     1       8.256  44.579  50.112  1.00  0.00     0.255 C 
ATOM      8  N   UNL     1       6.998  44.024  50.104  1.00  0.00    -0.345 N 
ATOM      9  O   UNL     1       9.125  44.228  49.319  1.00  0.00    -0.269 OA
ATOM     10  H   UNL     1       6.403  44.226  50.900  1.00  0.00     0.164 HD
BRANCH   8  11
ATOM     11  C   UNL     1       6.700  42.858  49.311  1.00  0.00     0.194 C 
BRANCH  11  12
ATOM     12  C   UNL     1       5.469  42.236  49.838  1.00  0.00     0.155 A 
ATOM     13  C   UNL     1       4.635  42.509  50.895  1.00  0.00     0.071 A 
ATOM     14  O   UNL     1       5.016  41.130  49.184  1.00  0.00    -0.360 OA
ATOM     15  C   UNL     1       3.660  41.499  50.829  1.00  0.00     0.158 A 
ATOM     16  N   UNL     1       3.873  40.660  49.811  1.00  0.00    -0.088 NA
ENDBRANCH  11  12
ENDBRANCH   8  11
ENDBRANCH   1   7
BRANCH   6  17
ATOM     17  O   UNL     1       6.276  46.359  51.231  1.00  0.00    -0.490 OA
BRANCH  17  18
ATOM     18  C   UNL     1       5.109  46.341  52.056  1.00  0.00     0.173 C 
ATOM     19  C   UNL     1       5.149  45.289  53.170  1.00  0.00     0.045 C 
ATOM     20  C   UNL     1       3.787  46.409  51.282  1.00  0.00     0.045 C 
ATOM     21  C   UNL     1       3.920  45.382  54.072  1.00  0.00     0.004 C 
ATOM     22  C   UNL     1       2.589  46.478  52.227  1.00  0.00     0.004 C 
ATOM     23  C   UNL     1       2.623  45.361  53.267  1.00  0.00     0.000 C 
ENDBRANCH  17  18
ENDBRANCH   6  17
TORSDOF 5
ENDMDL
MODEL 6
REMARK VINA RESULT:    -8.519      1.455      4.538
REMARK INTER + INTRA:         -12.104
REMARK INTER:                 -10.770
REMARK INTRA:                  -1.334
REMARK UNBOUND:                -1.095
REMARK SMILES O=C(NCc1ccno1)c1ccccc1OC1CCCCC1
REMARK SMILES IDX 10 1 11 2 12 3 13 4 14 5 15 6 2 7 3 8 1 9 4 11 5 12 6 13
REMARK SMILES IDX 9 14 7 15 8 16 16 17 17 18 18 19 22 20 19 21 21 22 20 23
REMARK H PARENT 3 10
ROOT
ATOM      1  C   UNL     1       5.169  43.512  50.883  1.00  0.00     0.081 A 
ATOM      2  C   UNL     1       5.180  42.139  50.570  1.00  0.00     0.018 A 
ATOM      3  C   UNL     1       6.192  41.594  49.785  1.00  0.00     0.001 A 
ATOM      4  C   UNL     1       7.204  42.415  49.307  1.00  0.00     0.004 A 
ATOM      5  C   UNL     1       7.211  43.779  49.617  1.00  0.00     0.047 A 
ATOM      6  C   UNL     1       6.207  44.348  50.407  1.00  0.00     0.132 A 
ENDROOT
BRANCH   1   7
ATOM      7  C   UNL     1       4.019  43.976  51.732  1.00  0.00     0.255 C 
ATOM      8  N   UNL     1       3.384  45.136  51.359  1.00  0.00    -0.345 N 
ATOM      9  O   UNL     1       3.666  43.328  52.713  1.00  0.00    -0.269 OA
ATOM     10  H   UNL     1       3.846  45.708  50.661  1.00  0.00     0.164 HD
BRANCH   8  11
ATOM     11  C   UNL     1       2.411  45.765  52.218  1.00  0.00     0.194 C 
BRANCH  11  12
ATOM     12  C   UNL     1       3.126  46.616  53.190  1.00  0.00     0.155 A 
ATOM     13  C   UNL     1       3.575  46.432  54.475  1.00  0.00     0.071 A 
ATOM     14  O   UNL     1       3.420  47.885  52.789  1.00  0.00    -0.360 OA
ATOM     15  C   UNL     1       4.154  47.667  54.813  1.00  0.00     0.158 A 
ATOM     16  N   UNL     1       4.068  48.552  53.816  1.00  0.00    -0.088 NA
ENDBRANCH  11  12
ENDBRANCH   8  11
ENDBRANCH   1   7
BRANCH   6  17
ATOM     17  O   UNL     1       6.153  45.664  50.764  1.00  0.00    -0.490 OA
BRANCH  17  18
ATOM     18  C   UNL     1       6.994  46.305  51.727  1.00  0.00     0.173 C 
ATOM     19  C   UNL     1       8.449  46.469  51.273  1.00  0.00     0.045 C 
ATOM     20  C   UNL     1       6.821  45.787  53.160  1.00  0.00     0.045 C 
ATOM     21  C   UNL     1       9.272  47.240  52.302  1.00  0.00     0.004 C 
ATOM     22  C   UNL     1       7.680  46.576  54.147  1.00  0.00     0.004 C 
ATOM     23  C   UNL     1       9.139  46.641  53.699  1.00  0.00     0.000 C 
ENDBRANCH  17  18
ENDBRANCH   6  17
TORSDOF 5
ENDMDL
MODEL 7
REMARK VINA RESULT:    -8.360      1.259      4.170
REMARK INTER + INTRA:         -11.899
REMARK INTER:                 -11.059
REMARK INTRA:                  -0.840
REMARK UNBOUND:                -1.095
REMARK SMILES O=C(NCc1ccno1)c1ccccc1OC1CCCCC1
REMARK SMILES IDX 10 1 11 2 12 3 13 4 14 5 15 6 2 7 3 8 1 9 4 11 5 12 6 13
REMARK SMILES IDX 9 14 7 15 8 16 16 17 17 18 18 19 22 20 19 21 21 22 20 23
REMARK H PARENT 3 10
ROOT
ATOM      1  C   UNL     1       5.514  44.220  51.391  1.00  0.00     0.081 A 
ATOM      2  C   UNL     1       5.307  42.878  51.017  1.00  0.00     0.018 A 
ATOM      3  C   UNL     1       6.058  42.298  49.998  1.00  0.00     0.001 A 
ATOM      4  C   UNL     1       7.023  43.053  49.345  1.00  0.00     0.004 A 
ATOM      5  C   UNL     1       7.244  44.384  49.711  1.00  0.00     0.047 A 
ATOM      6  C   UNL     1       6.505  44.987  50.734  1.00  0.00     0.132 A 
ENDROOT
BRANCH   1   7
ATOM      7  C   UNL     1       4.635  44.728  52.499  1.00  0.00     0.255 C 
ATOM      8  N   UNL     1       3.805  45.786  52.216  1.00  0.00    -0.345 N 
ATOM      9  O   UNL     1       4.660  44.202  53.608  1.00  0.00    -0.269 OA
ATOM     10  H   UNL     1       3.976  46.284  51.348  1.00  0.00     0.164 HD
BRANCH   8  11
ATOM     11  C   UNL     1       3.081  46.469  53.260  1.00  0.00     0.194 C 
BRANCH  11  12
ATOM     12  C   UNL     1       1.761  45.826  53.411  1.00  0.00     0.155 A 
ATOM     13  C   UNL     1       0.802  45.389  52.529  1.00  0.00     0.071 A 
ATOM     14  O   UNL     1       1.334  45.603  54.685  1.00  0.00    -0.360 OA
ATOM     15  C   UNL     1      -0.220  44.893  53.357  1.00  0.00     0.158 A 
ATOM     16  N   UNL     1       0.079  45.015  54.653  1.00  0.00    -0.088 NA
ENDBRANCH  11  12
ENDBRANCH   8  11
ENDBRANCH   1   7
BRANCH   6  17
ATOM     17  O   UNL     1       6.673  46.273  51.158  1.00  0.00    -0.490 OA
BRANCH  17  18
ATOM     18  C   UNL     1       7.766  46.761  51.941  1.00  0.00     0.173 C 
ATOM     19  C   UNL     1       9.106  46.085  51.629  1.00  0.00     0.045 C 
ATOM     20  C   UNL     1       7.455  46.914  53.434  1.00  0.00     0.045 C 
ATOM     21  C   UNL     1      10.248  46.710  52.427  1.00  0.00     0.004 C 
ATOM     22  C   UNL     1       8.633  47.523  54.191  1.00  0.00     0.004 C 
ATOM     23  C   UNL     1       9.931  46.767  53.919  1.00  0.00     0.000 C 
ENDBRANCH  17  18
ENDBRANCH   6  17
TORSDOF 5
ENDMDL
MODEL 8
REMARK VINA RESULT:    -8.271      2.121      6.192
REMARK INTER + INTRA:         -11.784
REMARK INTER:                 -10.765
REMARK INTRA:                  -1.019
REMARK UNBOUND:                -1.095
REMARK SMILES O=C(NCc1ccno1)c1ccccc1OC1CCCCC1
REMARK SMILES IDX 10 1 11 2 12 3 13 4 14 5 15 6 2 7 3 8 1 9 4 11 5 12 6 13
REMARK SMILES IDX 9 14 7 15 8 16 16 17 17 18 18 19 22 20 19 21 21 22 20 23
REMARK H PARENT 3 10
ROOT
ATOM      1  C   UNL     1       5.560  43.868  50.988  1.00  0.00     0.081 A 
ATOM      2  C   UNL     1       6.257  42.881  50.263  1.00  0.00     0.018 A 
ATOM      3  C   UNL     1       5.703  41.621  50.059  1.00  0.00     0.001 A 
ATOM      4  C   UNL     1       4.446  41.335  50.576  1.00  0.00     0.004 A 
ATOM      5  C   UNL     1       3.740  42.307  51.291  1.00  0.00     0.047 A 
ATOM      6  C   UNL     1       4.275  43.582  51.505  1.00  0.00     0.132 A 
ENDROOT
BRANCH   1   7
ATOM      7  C   UNL     1       6.270  45.183  51.143  1.00  0.00     0.255 C 
ATOM      8  N   UNL     1       6.144  45.835  52.346  1.00  0.00    -0.345 N 
ATOM      9  O   UNL     1       6.943  45.642  50.224  1.00  0.00    -0.269 OA
ATOM     10  H   UNL     1       5.429  45.493  52.980  1.00  0.00     0.164 HD
BRANCH   8  11
ATOM     11  C   UNL     1       6.615  47.186  52.518  1.00  0.00     0.194 C 
BRANCH  11  12
ATOM     12  C   UNL     1       7.914  47.143  53.220  1.00  0.00     0.155 A 
ATOM     13  C   UNL     1       9.174  46.720  52.875  1.00  0.00     0.071 A 
ATOM     14  O   UNL     1       7.928  47.594  54.505  1.00  0.00    -0.360 OA
ATOM     15  C   UNL     1       9.938  46.948  54.033  1.00  0.00     0.158 A 
ATOM     16  N   UNL     1       9.207  47.469  55.022  1.00  0.00    -0.088 NA
ENDBRANCH  11  12
ENDBRANCH   8  11
ENDBRANCH   1   7
BRANCH   6  17
ATOM     17  O   UNL     1       3.642  44.586  52.177  1.00  0.00    -0.490 OA
BRANCH  17  18
ATOM     18  C   UNL     1       2.721  44.419  53.259  1.00  0.00     0.173 C 
ATOM     19  C   UNL     1       1.258  44.299  52.819  1.00  0.00     0.045 C 
ATOM     20  C   UNL     1       2.962  45.362  54.444  1.00  0.00     0.045 C 
ATOM     21  C   UNL     1       0.336  44.030  54.007  1.00  0.00     0.004 C 
ATOM     22  C   UNL     1       2.003  45.067  55.596  1.00  0.00     0.004 C 
ATOM     23  C   UNL     1       0.549  45.042  55.129  1.00  0.00     0.000 C 
ENDBRANCH  17  18
ENDBRANCH   6  17
TORSDOF 5
ENDMDL
MODEL 9
REMARK VINA RESULT:    -8.217      1.920      5.210
REMARK INTER + INTRA:         -11.714
REMARK INTER:                 -10.453
REMARK INTRA:                  -1.261
REMARK UNBOUND:                -1.095
REMARK SMILES O=C(NCc1ccno1)c1ccccc1OC1CCCCC1
REMARK SMILES IDX 10 1 11 2 12 3 13 4 14 5 15 6 2 7 3 8 1 9 4 11 5 12 6 13
REMARK SMILES IDX 9 14 7 15 8 16 16 17 17 18 18 19 22 20 19 21 21 22 20 23
REMARK H PARENT 3 10
ROOT
ATOM      1  C   UNL     1       3.738  45.836  54.199  1.00  0.00     0.081 A 
ATOM      2  C   UNL     1       3.012  45.609  55.385  1.00  0.00     0.018 A 
ATOM      3  C   UNL     1       1.890  44.785  55.389  1.00  0.00     0.001 A 
ATOM      4  C   UNL     1       1.483  44.179  54.208  1.00  0.00     0.004 A 
ATOM      5  C   UNL     1       2.198  44.389  53.025  1.00  0.00     0.047 A 
ATOM      6  C   UNL     1       3.331  45.209  52.998  1.00  0.00     0.132 A 
ENDROOT
BRANCH   1   7
ATOM      7  C   UNL     1       4.923  46.750  54.328  1.00  0.00     0.255 C 
ATOM      8  N   UNL     1       6.172  46.177  54.291  1.00  0.00    -0.345 N 
ATOM      9  O   UNL     1       4.768  47.962  54.450  1.00  0.00    -0.269 OA
ATOM     10  H   UNL     1       6.217  45.168  54.379  1.00  0.00     0.164 HD
BRANCH   8  11
ATOM     11  C   UNL     1       7.354  46.940  54.609  1.00  0.00     0.194 C 
BRANCH  11  12
ATOM     12  C   UNL     1       8.235  46.953  53.424  1.00  0.00     0.155 A 
ATOM     13  C   UNL     1       9.414  46.327  53.100  1.00  0.00     0.071 A 
ATOM     14  O   UNL     1       7.856  47.758  52.392  1.00  0.00    -0.360 OA
ATOM     15  C   UNL     1       9.713  46.809  51.815  1.00  0.00     0.158 A 
ATOM     16  N   UNL     1       8.793  47.671  51.374  1.00  0.00    -0.088 NA
ENDBRANCH  11  12
ENDBRANCH   8  11
ENDBRANCH   1   7
BRANCH   6  17
ATOM     17  O   UNL     1       4.088  45.450  51.888  1.00  0.00    -0.490 OA
BRANCH  17  18
ATOM     18  C   UNL     1       5.132  44.610  51.389  1.00  0.00     0.173 C 
ATOM     19  C   UNL     1       6.165  45.345  50.527  1.00  0.00     0.045 C 
ATOM     20  C   UNL     1       4.646  43.274  50.813  1.00  0.00     0.045 C 
ATOM     21  C   UNL     1       7.300  44.417  50.101  1.00  0.00     0.004 C 
ATOM     22  C   UNL     1       5.817  42.393  50.383  1.00  0.00     0.004 C 
ATOM     23  C   UNL     1       6.775  43.137  49.457  1.00  0.00     0.000 C 
ENDBRANCH  17  18
ENDBRANCH   6  17
TORSDOF 5
ENDMDL
MODEL 10
REMARK VINA RESULT:    -7.965      3.102      6.110
REMARK INTER + INTRA:         -11.389
REMARK INTER:                 -10.357
REMARK INTRA:                  -1.031
REMARK UNBOUND:                -1.095
REMARK SMILES O=C(NCc1ccno1)c1ccccc1OC1CCCCC1
REMARK SMILES IDX 10 1 11 2 12 3 13 4 14 5 15 6 2 7 3 8 1 9 4 11 5 12 6 13
REMARK SMILES IDX 9 14 7 15 8 16 16 17 17 18 18 19 22 20 19 21 21 22 20 23
REMARK H PARENT 3 10
ROOT
ATOM      1  C   UNL     1       3.978  44.310  51.570  1.00  0.00     0.081 A 
ATOM      2  C   UNL     1       2.584  44.499  51.516  1.00  0.00     0.018 A 
ATOM      3  C   UNL     1       2.022  45.748  51.767  1.00  0.00     0.001 A 
ATOM      4  C   UNL     1       2.850  46.820  52.073  1.00  0.00     0.004 A 
ATOM      5  C   UNL     1       4.237  46.648  52.123  1.00  0.00     0.047 A 
ATOM      6  C   UNL     1       4.823  45.404  51.871  1.00  0.00     0.132 A 
ENDROOT
BRANCH   1   7
ATOM      7  C   UNL     1       4.456  42.913  51.286  1.00  0.00     0.255 C 
ATOM      8  N   UNL     1       5.514  42.769  50.421  1.00  0.00    -0.345 N 
ATOM      9  O   UNL     1       3.918  41.948  51.820  1.00  0.00    -0.269 OA
ATOM     10  H   UNL     1       5.779  43.585  49.880  1.00  0.00     0.164 HD
BRANCH   8  11
ATOM     11  C   UNL     1       5.908  41.471  49.932  1.00  0.00     0.194 C 
BRANCH  11  12
ATOM     12  C   UNL     1       5.116  41.167  48.723  1.00  0.00     0.155 A 
ATOM     13  C   UNL     1       3.928  40.517  48.496  1.00  0.00     0.071 A 
ATOM     14  O   UNL     1       5.634  41.583  47.534  1.00  0.00    -0.360 OA
ATOM     15  C   UNL     1       3.771  40.572  47.100  1.00  0.00     0.158 A 
ATOM     16  N   UNL     1       4.786  41.205  46.505  1.00  0.00    -0.088 NA
ENDBRANCH  11  12
ENDBRANCH   8  11
ENDBRANCH   1   7
BRANCH   6  17
ATOM     17  O   UNL     1       6.166  45.162  51.885  1.00  0.00    -0.490 OA
BRANCH  17  18
ATOM     18  C   UNL     1       7.180  46.088  52.284  1.00  0.00     0.173 C 
ATOM     19  C   UNL     1       8.421  46.080  51.384  1.00  0.00     0.045 C 
ATOM     20  C   UNL     1       7.475  46.092  53.788  1.00  0.00     0.045 C 
ATOM     21  C   UNL     1       9.424  47.151  51.804  1.00  0.00     0.004 C 
ATOM     22  C   UNL     1       8.498  47.166  54.154  1.00  0.00     0.004 C 
ATOM     23  C   UNL     1       9.754  47.066  53.292  1.00  0.00     0.000 C 
ENDBRANCH  17  18
ENDBRANCH   6  17
TORSDOF 5
ENDMDL
