MODEL 1
REMARK VINA RESULT:    -9.160      0.000      0.000
REMARK INTER + INTRA:         -12.947
REMARK INTER:                 -12.106
REMARK INTRA:                  -0.841
REMARK UNBOUND:                -0.841
REMARK SMILES CC(Oc1ccccc1)c1nc(N)nc(Nc2ccccc2)n1
REMARK SMILES IDX 10 1 11 2 12 3 14 4 15 5 23 6 2 7 1 8 3 9 4 10 5 11 9 12
REMARK SMILES IDX 6 13 8 14 7 15 13 16 16 19 17 21 18 22 22 23 19 24 21 25
REMARK SMILES IDX 20 26
REMARK H PARENT 13 17 13 18 16 20
ROOT
ATOM      1  C   UNL     1       3.612  44.711  53.130  1.00  0.00     0.176 A 
ATOM      2  N   UNL     1       3.070  44.866  54.339  1.00  0.00    -0.194 NA
ATOM      3  C   UNL     1       3.600  45.835  55.065  1.00  0.00     0.225 A 
ATOM      4  N   UNL     1       4.613  46.602  54.695  1.00  0.00    -0.177 NA
ATOM      5  C   UNL     1       5.097  46.380  53.476  1.00  0.00     0.232 A 
ATOM      6  N   UNL     1       4.636  45.432  52.671  1.00  0.00    -0.193 NA
ENDROOT
BRANCH   1   7
ATOM      7  C   UNL     1       3.038  43.618  52.241  1.00  0.00     0.238 C 
ATOM      8  C   UNL     1       1.719  43.127  52.835  1.00  0.00     0.062 C 
BRANCH   7   9
ATOM      9  O   UNL     1       3.900  42.473  52.139  1.00  0.00    -0.483 OA
BRANCH   9  10
ATOM     10  C   UNL     1       4.548  42.237  50.959  1.00  0.00     0.120 A 
ATOM     11  C   UNL     1       3.977  41.223  50.184  1.00  0.00     0.046 A 
ATOM     12  C   UNL     1       5.684  42.895  50.486  1.00  0.00     0.046 A 
ATOM     13  C   UNL     1       4.529  40.869  48.951  1.00  0.00     0.004 A 
ATOM     14  C   UNL     1       6.239  42.540  49.251  1.00  0.00     0.004 A 
ATOM     15  C   UNL     1       5.662  41.529  48.485  1.00  0.00     0.000 A 
ENDBRANCH   9  10
ENDBRANCH   7   9
ENDBRANCH   1   7
BRANCH   3  16
ATOM     16  N   UNL     1       3.079  46.034  56.327  1.00  0.00    -0.368 N 
ATOM     17  H   UNL     1       2.369  45.344  56.532  1.00  0.00     0.159 HD
ATOM     18  H   UNL     1       2.836  47.005  56.463  1.00  0.00     0.159 HD
ENDBRANCH   3  16
BRANCH   5  19
ATOM     19  N   UNL     1       6.159  47.202  53.104  1.00  0.00    -0.324 N 
ATOM     20  H   UNL     1       5.799  48.098  52.812  1.00  0.00     0.170 HD
BRANCH  19  21
ATOM     21  C   UNL     1       7.526  46.982  52.896  1.00  0.00     0.041 A 
ATOM     22  C   UNL     1       8.533  47.446  53.747  1.00  0.00     0.026 A 
ATOM     23  C   UNL     1       7.922  46.301  51.731  1.00  0.00     0.026 A 
ATOM     24  C   UNL     1       9.885  47.221  53.464  1.00  0.00     0.002 A 
ATOM     25  C   UNL     1       9.272  46.073  51.443  1.00  0.00     0.002 A 
ATOM     26  C   UNL     1      10.255  46.533  52.312  1.00  0.00     0.000 A 
ENDBRANCH  19  21
ENDBRANCH   5  19
TORSDOF 6
ENDMDL
MODEL 2
REMARK VINA RESULT:    -8.835      2.326      4.930
REMARK INTER + INTRA:         -12.516
REMARK INTER:                 -11.616
REMARK INTRA:                  -0.900
REMARK UNBOUND:                -0.841
REMARK SMILES CC(Oc1ccccc1)c1nc(N)nc(Nc2ccccc2)n1
REMARK SMILES IDX 10 1 11 2 12 3 14 4 15 5 23 6 2 7 1 8 3 9 4 10 5 11 9 12
REMARK SMILES IDX 6 13 8 14 7 15 13 16 16 19 17 21 18 22 22 23 19 24 21 25
REMARK SMILES IDX 20 26
REMARK H PARENT 13 17 13 18 16 20
ROOT
ATOM      1  C   UNL     1       4.896  43.190  50.987  1.00  0.00     0.176 A 
ATOM      2  N   UNL     1       4.998  42.187  50.113  1.00  0.00    -0.194 NA
ATOM      3  C   UNL     1       6.049  42.252  49.314  1.00  0.00     0.225 A 
ATOM      4  N   UNL     1       6.946  43.224  49.306  1.00  0.00    -0.177 NA
ATOM      5  C   UNL     1       6.769  44.187  50.207  1.00  0.00     0.232 A 
ATOM      6  N   UNL     1       5.747  44.215  51.052  1.00  0.00    -0.193 NA
ENDROOT
BRANCH   1   7
ATOM      7  C   UNL     1       3.713  43.167  51.942  1.00  0.00     0.238 C 
ATOM      8  C   UNL     1       2.611  42.283  51.359  1.00  0.00     0.062 C 
BRANCH   7   9
ATOM      9  O   UNL     1       3.137  44.468  52.147  1.00  0.00    -0.483 OA
BRANCH   9  10
ATOM     10  C   UNL     1       3.724  45.317  53.043  1.00  0.00     0.120 A 
ATOM     11  C   UNL     1       3.646  46.667  52.689  1.00  0.00     0.046 A 
ATOM     12  C   UNL     1       4.366  44.962  54.229  1.00  0.00     0.046 A 
ATOM     13  C   UNL     1       4.202  47.653  53.507  1.00  0.00     0.004 A 
ATOM     14  C   UNL     1       4.924  45.949  55.049  1.00  0.00     0.004 A 
ATOM     15  C   UNL     1       4.842  47.292  54.690  1.00  0.00     0.000 A 
ENDBRANCH   9  10
ENDBRANCH   7   9
ENDBRANCH   1   7
BRANCH   3  16
ATOM     16  N   UNL     1       6.199  41.241  48.386  1.00  0.00    -0.368 N 
ATOM     17  H   UNL     1       7.049  41.368  47.856  1.00  0.00     0.159 HD
ATOM     18  H   UNL     1       5.343  41.104  47.867  1.00  0.00     0.159 HD
ENDBRANCH   3  16
BRANCH   5  19
ATOM     19  N   UNL     1       7.727  45.199  50.185  1.00  0.00    -0.324 N 
ATOM     20  H   UNL     1       8.137  45.247  49.265  1.00  0.00     0.170 HD
BRANCH  19  21
ATOM     21  C   UNL     1       8.324  45.988  51.177  1.00  0.00     0.041 A 
ATOM     22  C   UNL     1       9.647  45.840  51.603  1.00  0.00     0.026 A 
ATOM     23  C   UNL     1       7.535  46.952  51.827  1.00  0.00     0.026 A 
ATOM     24  C   UNL     1      10.174  46.640  52.624  1.00  0.00     0.002 A 
ATOM     25  C   UNL     1       8.056  47.754  52.848  1.00  0.00     0.002 A 
ATOM     26  C   UNL     1       9.379  47.598  53.245  1.00  0.00     0.000 A 
ENDBRANCH  19  21
ENDBRANCH   5  19
TORSDOF 6
ENDMDL
MODEL 3
REMARK VINA RESULT:    -8.785      2.315      4.882
REMARK INTER + INTRA:         -12.451
REMARK INTER:                 -11.626
REMARK INTRA:                  -0.825
REMARK UNBOUND:                -0.841
REMARK SMILES CC(Oc1ccccc1)c1nc(N)nc(Nc2ccccc2)n1
REMARK SMILES IDX 10 1 11 2 12 3 14 4 15 5 23 6 2 7 1 8 3 9 4 10 5 11 9 12
REMARK SMILES IDX 6 13 8 14 7 15 13 16 16 19 17 21 18 22 22 23 19 24 21 25
REMARK SMILES IDX 20 26
REMARK H PARENT 13 17 13 18 16 20
ROOT
ATOM      1  C   UNL     1       4.808  43.278  50.980  1.00  0.00     0.176 A 
ATOM      2  N   UNL     1       4.941  42.233  50.162  1.00  0.00    -0.194 NA
ATOM      3  C   UNL     1       6.026  42.253  49.408  1.00  0.00     0.225 A 
ATOM      4  N   UNL     1       6.928  43.221  49.390  1.00  0.00    -0.177 NA
ATOM      5  C   UNL     1       6.718  44.228  50.233  1.00  0.00     0.232 A 
ATOM      6  N   UNL     1       5.661  44.302  51.031  1.00  0.00    -0.193 NA
ENDROOT
BRANCH   1   7
ATOM      7  C   UNL     1       3.584  43.307  51.883  1.00  0.00     0.238 C 
ATOM      8  C   UNL     1       2.524  42.358  51.327  1.00  0.00     0.062 C 
BRANCH   7   9
ATOM      9  O   UNL     1       2.978  44.609  51.959  1.00  0.00    -0.483 OA
BRANCH   9  10
ATOM     10  C   UNL     1       3.518  45.542  52.799  1.00  0.00     0.120 A 
ATOM     11  C   UNL     1       3.918  45.034  54.039  1.00  0.00     0.046 A 
ATOM     12  C   UNL     1       3.694  46.900  52.532  1.00  0.00     0.046 A 
ATOM     13  C   UNL     1       4.486  45.869  55.003  1.00  0.00     0.004 A 
ATOM     14  C   UNL     1       4.263  47.737  53.498  1.00  0.00     0.004 A 
ATOM     15  C   UNL     1       4.660  47.223  54.731  1.00  0.00     0.000 A 
ENDBRANCH   9  10
ENDBRANCH   7   9
ENDBRANCH   1   7
BRANCH   3  16
ATOM     16  N   UNL     1       6.209  41.196  48.539  1.00  0.00    -0.368 N 
ATOM     17  H   UNL     1       5.359  41.005  48.028  1.00  0.00     0.159 HD
ATOM     18  H   UNL     1       6.654  40.421  49.010  1.00  0.00     0.159 HD
ENDBRANCH   3  16
BRANCH   5  19
ATOM     19  N   UNL     1       7.682  45.234  50.203  1.00  0.00    -0.324 N 
ATOM     20  H   UNL     1       8.076  45.287  49.275  1.00  0.00     0.170 HD
BRANCH  19  21
ATOM     21  C   UNL     1       8.302  46.010  51.189  1.00  0.00     0.041 A 
ATOM     22  C   UNL     1       9.634  45.855  51.586  1.00  0.00     0.026 A 
ATOM     23  C   UNL     1       7.530  46.970  51.866  1.00  0.00     0.026 A 
ATOM     24  C   UNL     1      10.185  46.642  52.604  1.00  0.00     0.002 A 
ATOM     25  C   UNL     1       8.075  47.759  52.885  1.00  0.00     0.002 A 
ATOM     26  C   UNL     1       9.405  47.596  53.252  1.00  0.00     0.000 A 
ENDBRANCH  19  21
ENDBRANCH   5  19
TORSDOF 6
ENDMDL
MODEL 4
REMARK VINA RESULT:    -8.753      2.200      6.645
REMARK INTER + INTRA:         -12.409
REMARK INTER:                 -11.755
REMARK INTRA:                  -0.654
REMARK UNBOUND:                -0.841
REMARK SMILES CC(Oc1ccccc1)c1nc(N)nc(Nc2ccccc2)n1
REMARK SMILES IDX 10 1 11 2 12 3 14 4 15 5 23 6 2 7 1 8 3 9 4 10 5 11 9 12
REMARK SMILES IDX 6 13 8 14 7 15 13 16 16 19 17 21 18 22 22 23 19 24 21 25
REMARK SMILES IDX 20 26
REMARK H PARENT 13 17 13 18 16 20
ROOT
ATOM      1  C   UNL     1       4.787  44.272  51.998  1.00  0.00     0.176 A 
ATOM      2  N   UNL     1       3.715  43.896  52.697  1.00  0.00    -0.194 NA
ATOM      3  C   UNL     1       3.248  42.697  52.395  1.00  0.00     0.225 A 
ATOM      4  N   UNL     1       3.737  41.899  51.459  1.00  0.00    -0.177 NA
ATOM      5  C   UNL     1       4.804  42.351  50.806  1.00  0.00     0.232 A 
ATOM      6  N   UNL     1       5.347  43.540  51.034  1.00  0.00    -0.193 NA
ENDROOT
BRANCH   1   7
ATOM      7  C   UNL     1       5.379  45.639  52.307  1.00  0.00     0.238 C 
ATOM      8  C   UNL     1       4.328  46.716  52.040  1.00  0.00     0.062 C 
BRANCH   7   9
ATOM      9  O   UNL     1       6.514  45.954  51.484  1.00  0.00    -0.483 OA
BRANCH   9  10
ATOM     10  C   UNL     1       7.689  46.309  52.086  1.00  0.00     0.120 A 
ATOM     11  C   UNL     1       7.543  46.789  53.391  1.00  0.00     0.046 A 
ATOM     12  C   UNL     1       8.966  46.234  51.529  1.00  0.00     0.046 A 
ATOM     13  C   UNL     1       8.656  47.190  54.133  1.00  0.00     0.004 A 
ATOM     14  C   UNL     1      10.081  46.636  52.272  1.00  0.00     0.004 A 
ATOM     15  C   UNL     1       9.927  47.113  53.572  1.00  0.00     0.000 A 
ENDBRANCH   9  10
ENDBRANCH   7   9
ENDBRANCH   1   7
BRANCH   3  16
ATOM     16  N   UNL     1       2.136  42.261  53.086  1.00  0.00    -0.368 N 
ATOM     17  H   UNL     1       1.291  42.486  52.577  1.00  0.00     0.159 HD
ATOM     18  H   UNL     1       2.184  42.544  54.054  1.00  0.00     0.159 HD
ENDBRANCH   3  16
BRANCH   5  19
ATOM     19  N   UNL     1       5.305  41.494  49.830  1.00  0.00    -0.324 N 
ATOM     20  H   UNL     1       6.135  41.039  50.182  1.00  0.00     0.170 HD
BRANCH  19  21
ATOM     21  C   UNL     1       5.009  41.290  48.476  1.00  0.00     0.041 A 
ATOM     22  C   UNL     1       5.749  41.834  47.422  1.00  0.00     0.026 A 
ATOM     23  C   UNL     1       3.867  40.539  48.149  1.00  0.00     0.026 A 
ATOM     24  C   UNL     1       5.380  41.620  46.089  1.00  0.00     0.002 A 
ATOM     25  C   UNL     1       3.493  40.322  46.818  1.00  0.00     0.002 A 
ATOM     26  C   UNL     1       4.253  40.862  45.787  1.00  0.00     0.000 A 
ENDBRANCH  19  21
ENDBRANCH   5  19
TORSDOF 6
ENDMDL
MODEL 5
REMARK VINA RESULT:    -8.576      1.651      5.900
REMARK INTER + INTRA:         -12.175
REMARK INTER:                 -11.442
REMARK INTRA:                  -0.733
REMARK UNBOUND:                -0.841
REMARK SMILES CC(Oc1ccccc1)c1nc(N)nc(Nc2ccccc2)n1
REMARK SMILES IDX 10 1 11 2 12 3 14 4 15 5 23 6 2 7 1 8 3 9 4 10 5 11 9 12
REMARK SMILES IDX 6 13 8 14 7 15 13 16 16 19 17 21 18 22 22 23 19 24 21 25
REMARK SMILES IDX 20 26
REMARK H PARENT 13 17 13 18 16 20
ROOT
ATOM      1  C   UNL     1       4.183  45.763  53.520  1.00  0.00     0.176 A 
ATOM      2  N   UNL     1       2.916  46.162  53.644  1.00  0.00    -0.194 NA
ATOM      3  C   UNL     1       2.015  45.275  53.261  1.00  0.00     0.225 A 
ATOM      4  N   UNL     1       2.282  44.083  52.752  1.00  0.00    -0.177 NA
ATOM      5  C   UNL     1       3.571  43.765  52.659  1.00  0.00     0.232 A 
ATOM      6  N   UNL     1       4.550  44.584  53.016  1.00  0.00    -0.193 NA
ENDROOT
BRANCH   1   7
ATOM      7  C   UNL     1       5.268  46.737  53.955  1.00  0.00     0.238 C 
ATOM      8  C   UNL     1       4.617  47.976  54.568  1.00  0.00     0.062 C 
BRANCH   7   9
ATOM      9  O   UNL     1       6.080  47.192  52.860  1.00  0.00    -0.483 OA
BRANCH   9  10
ATOM     10  C   UNL     1       7.438  47.060  52.944  1.00  0.00     0.120 A 
ATOM     11  C   UNL     1       8.062  46.769  51.728  1.00  0.00     0.046 A 
ATOM     12  C   UNL     1       8.217  47.187  54.095  1.00  0.00     0.046 A 
ATOM     13  C   UNL     1       9.447  46.606  51.657  1.00  0.00     0.004 A 
ATOM     14  C   UNL     1       9.605  47.022  54.025  1.00  0.00     0.004 A 
ATOM     15  C   UNL     1      10.219  46.733  52.808  1.00  0.00     0.000 A 
ENDBRANCH   9  10
ENDBRANCH   7   9
ENDBRANCH   1   7
BRANCH   3  16
ATOM     16  N   UNL     1       0.688  45.639  53.363  1.00  0.00    -0.368 N 
ATOM     17  H   UNL     1       0.497  46.033  54.274  1.00  0.00     0.159 HD
ATOM     18  H   UNL     1       0.087  44.893  53.044  1.00  0.00     0.159 HD
ENDBRANCH   3  16
BRANCH   5  19
ATOM     19  N   UNL     1       3.830  42.504  52.126  1.00  0.00    -0.324 N 
ATOM     20  H   UNL     1       3.782  41.816  52.863  1.00  0.00     0.170 HD
BRANCH  19  21
ATOM     21  C   UNL     1       4.296  42.055  50.884  1.00  0.00     0.041 A 
ATOM     22  C   UNL     1       3.617  41.136  50.078  1.00  0.00     0.026 A 
ATOM     23  C   UNL     1       5.550  42.509  50.438  1.00  0.00     0.026 A 
ATOM     24  C   UNL     1       4.154  40.702  48.861  1.00  0.00     0.002 A 
ATOM     25  C   UNL     1       6.091  42.079  49.222  1.00  0.00     0.002 A 
ATOM     26  C   UNL     1       5.390  41.175  48.431  1.00  0.00     0.000 A 
ENDBRANCH  19  21
ENDBRANCH   5  19
TORSDOF 6
ENDMDL
MODEL 6
REMARK VINA RESULT:    -8.339      2.209      5.017
REMARK INTER + INTRA:         -11.862
REMARK INTER:                 -11.056
REMARK INTRA:                  -0.806
REMARK UNBOUND:                -0.841
REMARK SMILES CC(Oc1ccccc1)c1nc(N)nc(Nc2ccccc2)n1
REMARK SMILES IDX 10 1 11 2 12 3 14 4 15 5 23 6 2 7 1 8 3 9 4 10 5 11 9 12
REMARK SMILES IDX 6 13 8 14 7 15 13 16 16 19 17 21 18 22 22 23 19 24 21 25
REMARK SMILES IDX 20 26
REMARK H PARENT 13 17 13 18 16 20
ROOT
ATOM      1  C   UNL     1       4.340  43.490  51.241  1.00  0.00     0.176 A 
ATOM      2  N   UNL     1       4.806  42.450  50.549  1.00  0.00    -0.194 NA
ATOM      3  C   UNL     1       6.004  42.628  50.019  1.00  0.00     0.225 A 
ATOM      4  N   UNL     1       6.719  43.737  50.100  1.00  0.00    -0.177 NA
ATOM      5  C   UNL     1       6.180  44.728  50.805  1.00  0.00     0.232 A 
ATOM      6  N   UNL     1       4.986  44.650  51.375  1.00  0.00    -0.193 NA
ENDROOT
BRANCH   1   7
ATOM      7  C   UNL     1       2.970  43.343  51.886  1.00  0.00     0.238 C 
ATOM      8  C   UNL     1       2.023  42.651  50.906  1.00  0.00     0.062 C 
BRANCH   7   9
ATOM      9  O   UNL     1       2.372  44.607  52.219  1.00  0.00    -0.483 OA
BRANCH   9  10
ATOM     10  C   UNL     1       1.889  44.798  53.483  1.00  0.00     0.120 A 
ATOM     11  C   UNL     1       2.819  45.336  54.377  1.00  0.00     0.046 A 
ATOM     12  C   UNL     1       0.600  44.512  53.934  1.00  0.00     0.046 A 
ATOM     13  C   UNL     1       2.471  45.587  55.706  1.00  0.00     0.004 A 
ATOM     14  C   UNL     1       0.250  44.762  55.266  1.00  0.00     0.004 A 
ATOM     15  C   UNL     1       1.183  45.299  56.150  1.00  0.00     0.000 A 
ENDBRANCH   9  10
ENDBRANCH   7   9
ENDBRANCH   1   7
BRANCH   3  16
ATOM     16  N   UNL     1       6.530  41.583  49.287  1.00  0.00    -0.368 N 
ATOM     17  H   UNL     1       5.873  40.817  49.237  1.00  0.00     0.159 HD
ATOM     18  H   UNL     1       7.469  41.370  49.594  1.00  0.00     0.159 HD
ENDBRANCH   3  16
BRANCH   5  19
ATOM     19  N   UNL     1       6.953  45.885  50.883  1.00  0.00    -0.324 N 
ATOM     20  H   UNL     1       6.828  46.424  50.039  1.00  0.00     0.170 HD
BRANCH  19  21
ATOM     21  C   UNL     1       7.945  46.329  51.765  1.00  0.00     0.041 A 
ATOM     22  C   UNL     1       9.316  46.168  51.547  1.00  0.00     0.026 A 
ATOM     23  C   UNL     1       7.545  46.925  52.974  1.00  0.00     0.026 A 
ATOM     24  C   UNL     1      10.258  46.604  52.486  1.00  0.00     0.002 A 
ATOM     25  C   UNL     1       8.481  47.362  53.917  1.00  0.00     0.002 A 
ATOM     26  C   UNL     1       9.840  47.204  53.670  1.00  0.00     0.000 A 
ENDBRANCH  19  21
ENDBRANCH   5  19
TORSDOF 6
ENDMDL
MODEL 7
REMARK VINA RESULT:    -8.217      2.117      3.499
REMARK INTER + INTRA:         -11.701
REMARK INTER:                 -10.965
REMARK INTRA:                  -0.735
REMARK UNBOUND:                -0.841
REMARK SMILES CC(Oc1ccccc1)c1nc(N)nc(Nc2ccccc2)n1
REMARK SMILES IDX 10 1 11 2 12 3 14 4 15 5 23 6 2 7 1 8 3 9 4 10 5 11 9 12
REMARK SMILES IDX 6 13 8 14 7 15 13 16 16 19 17 21 18 22 22 23 19 24 21 25
REMARK SMILES IDX 20 26
REMARK H PARENT 13 17 13 18 16 20
ROOT
ATOM      1  C   UNL     1       5.394  42.762  50.589  1.00  0.00     0.176 A 
ATOM      2  N   UNL     1       4.331  42.500  51.352  1.00  0.00    -0.194 NA
ATOM      3  C   UNL     1       3.987  43.474  52.177  1.00  0.00     0.225 A 
ATOM      4  N   UNL     1       4.625  44.625  52.310  1.00  0.00    -0.177 NA
ATOM      5  C   UNL     1       5.676  44.805  51.515  1.00  0.00     0.232 A 
ATOM      6  N   UNL     1       6.102  43.890  50.655  1.00  0.00    -0.193 NA
ENDROOT
BRANCH   1   7
ATOM      7  C   UNL     1       5.834  41.684  49.610  1.00  0.00     0.238 C 
ATOM      8  C   UNL     1       7.187  41.126  50.049  1.00  0.00     0.062 C 
BRANCH   7   9
ATOM      9  O   UNL     1       6.004  42.182  48.273  1.00  0.00    -0.483 OA
BRANCH   9  10
ATOM     10  C   UNL     1       5.270  41.626  47.262  1.00  0.00     0.120 A 
ATOM     11  C   UNL     1       4.270  40.750  47.695  1.00  0.00     0.046 A 
ATOM     12  C   UNL     1       5.430  41.853  45.895  1.00  0.00     0.046 A 
ATOM     13  C   UNL     1       3.439  40.105  46.776  1.00  0.00     0.004 A 
ATOM     14  C   UNL     1       4.598  41.207  44.974  1.00  0.00     0.004 A 
ATOM     15  C   UNL     1       3.603  40.335  45.413  1.00  0.00     0.000 A 
ENDBRANCH   9  10
ENDBRANCH   7   9
ENDBRANCH   1   7
BRANCH   3  16
ATOM     16  N   UNL     1       2.896  43.252  52.993  1.00  0.00    -0.368 N 
ATOM     17  H   UNL     1       2.718  42.262  53.086  1.00  0.00     0.159 HD
ATOM     18  H   UNL     1       2.122  43.841  52.721  1.00  0.00     0.159 HD
ENDBRANCH   3  16
BRANCH   5  19
ATOM     19  N   UNL     1       6.330  46.026  51.668  1.00  0.00    -0.324 N 
ATOM     20  H   UNL     1       5.838  46.734  51.143  1.00  0.00     0.170 HD
BRANCH  19  21
ATOM     21  C   UNL     1       7.559  46.402  52.222  1.00  0.00     0.041 A 
ATOM     22  C   UNL     1       8.779  46.333  51.542  1.00  0.00     0.026 A 
ATOM     23  C   UNL     1       7.586  46.824  53.563  1.00  0.00     0.026 A 
ATOM     24  C   UNL     1       9.980  46.693  52.164  1.00  0.00     0.002 A 
ATOM     25  C   UNL     1       8.783  47.185  54.190  1.00  0.00     0.002 A 
ATOM     26  C   UNL     1       9.982  47.121  53.488  1.00  0.00     0.000 A 
ENDBRANCH  19  21
ENDBRANCH   5  19
TORSDOF 6
ENDMDL
MODEL 8
REMARK VINA RESULT:    -8.204      2.334      7.292
REMARK INTER + INTRA:         -11.683
REMARK INTER:                 -11.022
REMARK INTRA:                  -0.661
REMARK UNBOUND:                -0.841
REMARK SMILES CC(Oc1ccccc1)c1nc(N)nc(Nc2ccccc2)n1
REMARK SMILES IDX 10 1 11 2 12 3 14 4 15 5 23 6 2 7 1 8 3 9 4 10 5 11 9 12
REMARK SMILES IDX 6 13 8 14 7 15 13 16 16 19 17 21 18 22 22 23 19 24 21 25
REMARK SMILES IDX 20 26
REMARK H PARENT 13 17 13 18 16 20
ROOT
ATOM      1  C   UNL     1       4.780  44.474  52.134  1.00  0.00     0.176 A 
ATOM      2  N   UNL     1       5.454  43.753  51.237  1.00  0.00    -0.194 NA
ATOM      3  C   UNL     1       4.931  42.569  50.970  1.00  0.00     0.225 A 
ATOM      4  N   UNL     1       3.848  42.065  51.538  1.00  0.00    -0.177 NA
ATOM      5  C   UNL     1       3.237  42.847  52.424  1.00  0.00     0.232 A 
ATOM      6  N   UNL     1       3.682  44.050  52.762  1.00  0.00    -0.193 NA
ENDROOT
BRANCH   1   7
ATOM      7  C   UNL     1       5.326  45.852  52.477  1.00  0.00     0.238 C 
ATOM      8  C   UNL     1       4.224  46.893  52.284  1.00  0.00     0.062 C 
BRANCH   7   9
ATOM      9  O   UNL     1       6.420  46.244  51.632  1.00  0.00    -0.483 OA
BRANCH   9  10
ATOM     10  C   UNL     1       7.637  46.495  52.200  1.00  0.00     0.120 A 
ATOM     11  C   UNL     1       7.574  46.905  53.535  1.00  0.00     0.046 A 
ATOM     12  C   UNL     1       8.884  46.379  51.584  1.00  0.00     0.046 A 
ATOM     13  C   UNL     1       8.738  47.198  54.249  1.00  0.00     0.004 A 
ATOM     14  C   UNL     1      10.051  46.673  52.298  1.00  0.00     0.004 A 
ATOM     15  C   UNL     1       9.978  47.081  53.629  1.00  0.00     0.000 A 
ENDBRANCH   9  10
ENDBRANCH   7   9
ENDBRANCH   1   7
BRANCH   3  16
ATOM     16  N   UNL     1       5.594  41.780  50.052  1.00  0.00    -0.368 N 
ATOM     17  H   UNL     1       6.546  41.614  50.348  1.00  0.00     0.159 HD
ATOM     18  H   UNL     1       5.453  42.129  49.114  1.00  0.00     0.159 HD
ENDBRANCH   3  16
BRANCH   5  19
ATOM     19  N   UNL     1       2.096  42.300  53.007  1.00  0.00    -0.324 N 
ATOM     20  H   UNL     1       2.270  41.331  53.229  1.00  0.00     0.170 HD
BRANCH  19  21
ATOM     21  C   UNL     1       0.780  42.750  53.166  1.00  0.00     0.041 A 
ATOM     22  C   UNL     1      -0.250  42.498  52.255  1.00  0.00     0.026 A 
ATOM     23  C   UNL     1       0.480  43.554  54.280  1.00  0.00     0.026 A 
ATOM     24  C   UNL     1      -1.539  43.006  52.455  1.00  0.00     0.002 A 
ATOM     25  C   UNL     1      -0.806  44.064  54.486  1.00  0.00     0.002 A 
ATOM     26  C   UNL     1      -1.817  43.788  53.572  1.00  0.00     0.000 A 
ENDBRANCH  19  21
ENDBRANCH   5  19
TORSDOF 6
ENDMDL
MODEL 9
REMARK VINA RESULT:    -8.061      2.657      5.206
REMARK INTER + INTRA:         -11.494
REMARK INTER:                 -10.531
REMARK INTRA:                  -0.963
REMARK UNBOUND:                -0.841
REMARK SMILES CC(Oc1ccccc1)c1nc(N)nc(Nc2ccccc2)n1
REMARK SMILES IDX 10 1 11 2 12 3 14 4 15 5 23 6 2 7 1 8 3 9 4 10 5 11 9 12
REMARK SMILES IDX 6 13 8 14 7 15 13 16 16 19 17 21 18 22 22 23 19 24 21 25
REMARK SMILES IDX 20 26
REMARK H PARENT 13 17 13 18 16 20
ROOT
ATOM      1  C   UNL     1       1.899  43.933  53.198  1.00  0.00     0.176 A 
ATOM      2  N   UNL     1       0.785  43.929  52.464  1.00  0.00    -0.194 NA
ATOM      3  C   UNL     1       0.922  43.433  51.247  1.00  0.00     0.225 A 
ATOM      4  N   UNL     1       2.055  42.992  50.724  1.00  0.00    -0.177 NA
ATOM      5  C   UNL     1       3.120  43.034  51.521  1.00  0.00     0.232 A 
ATOM      6  N   UNL     1       3.086  43.514  52.756  1.00  0.00    -0.193 NA
ENDROOT
BRANCH   1   7
ATOM      7  C   UNL     1       1.803  44.482  54.613  1.00  0.00     0.238 C 
ATOM      8  C   UNL     1       0.335  44.550  55.029  1.00  0.00     0.062 C 
BRANCH   7   9
ATOM      9  O   UNL     1       2.330  45.815  54.730  1.00  0.00    -0.483 OA
BRANCH   9  10
ATOM     10  C   UNL     1       3.672  46.012  54.568  1.00  0.00     0.120 A 
ATOM     11  C   UNL     1       3.999  46.976  53.611  1.00  0.00     0.046 A 
ATOM     12  C   UNL     1       4.699  45.357  55.250  1.00  0.00     0.046 A 
ATOM     13  C   UNL     1       5.333  47.286  53.335  1.00  0.00     0.004 A 
ATOM     14  C   UNL     1       6.035  45.667  54.974  1.00  0.00     0.004 A 
ATOM     15  C   UNL     1       6.352  46.630  54.019  1.00  0.00     0.000 A 
ENDBRANCH   9  10
ENDBRANCH   7   9
ENDBRANCH   1   7
BRANCH   3  16
ATOM     16  N   UNL     1      -0.200  43.411  50.445  1.00  0.00    -0.368 N 
ATOM     17  H   UNL     1      -0.882  42.758  50.806  1.00  0.00     0.159 HD
ATOM     18  H   UNL     1       0.059  43.323  49.473  1.00  0.00     0.159 HD
ENDBRANCH   3  16
BRANCH   5  19
ATOM     19  N   UNL     1       4.301  42.561  50.952  1.00  0.00    -0.324 N 
ATOM     20  H   UNL     1       4.320  41.554  51.018  1.00  0.00     0.170 HD
BRANCH  19  21
ATOM     21  C   UNL     1       5.474  43.179  50.502  1.00  0.00     0.041 A 
ATOM     22  C   UNL     1       6.442  42.544  49.718  1.00  0.00     0.026 A 
ATOM     23  C   UNL     1       5.728  44.502  50.903  1.00  0.00     0.026 A 
ATOM     24  C   UNL     1       7.611  43.208  49.329  1.00  0.00     0.002 A 
ATOM     25  C   UNL     1       6.894  45.170  50.517  1.00  0.00     0.002 A 
ATOM     26  C   UNL     1       7.836  44.522  49.727  1.00  0.00     0.000 A 
ENDBRANCH  19  21
ENDBRANCH   5  19
TORSDOF 6
ENDMDL
MODEL 10
REMARK VINA RESULT:    -7.985      2.624      6.446
REMARK INTER + INTRA:         -11.394
REMARK INTER:                 -10.602
REMARK INTRA:                  -0.792
REMARK UNBOUND:                -0.841
REMARK SMILES CC(Oc1ccccc1)c1nc(N)nc(Nc2ccccc2)n1
REMARK SMILES IDX 10 1 11 2 12 3 14 4 15 5 23 6 2 7 1 8 3 9 4 10 5 11 9 12
REMARK SMILES IDX 6 13 8 14 7 15 13 16 16 19 17 21 18 22 22 23 19 24 21 25
REMARK SMILES IDX 20 26
REMARK H PARENT 13 17 13 18 16 20
ROOT
ATOM      1  C   UNL     1       8.425  46.751  52.857  1.00  0.00     0.176 A 
ATOM      2  N   UNL     1       9.734  46.615  52.638  1.00  0.00    -0.194 NA
ATOM      3  C   UNL     1      10.048  45.915  51.563  1.00  0.00     0.225 A 
ATOM      4  N   UNL     1       9.182  45.336  50.747  1.00  0.00    -0.177 NA
ATOM      5  C   UNL     1       7.896  45.516  51.038  1.00  0.00     0.232 A 
ATOM      6  N   UNL     1       7.478  46.201  52.094  1.00  0.00    -0.193 NA
ENDROOT
BRANCH   1   7
ATOM      7  C   UNL     1       7.999  47.556  54.075  1.00  0.00     0.238 C 
ATOM      8  C   UNL     1       9.242  48.008  54.841  1.00  0.00     0.062 C 
BRANCH   7   9
ATOM      9  O   UNL     1       7.197  46.796  54.994  1.00  0.00    -0.483 OA
BRANCH   9  10
ATOM     10  C   UNL     1       5.900  46.520  54.668  1.00  0.00     0.120 A 
ATOM     11  C   UNL     1       5.499  45.213  54.964  1.00  0.00     0.046 A 
ATOM     12  C   UNL     1       4.982  47.396  54.088  1.00  0.00     0.046 A 
ATOM     13  C   UNL     1       4.199  44.784  54.687  1.00  0.00     0.004 A 
ATOM     14  C   UNL     1       3.679  46.967  53.809  1.00  0.00     0.004 A 
ATOM     15  C   UNL     1       3.288  45.664  54.108  1.00  0.00     0.000 A 
ENDBRANCH   9  10
ENDBRANCH   7   9
ENDBRANCH   1   7
BRANCH   3  16
ATOM     16  N   UNL     1      11.390  45.740  51.294  1.00  0.00    -0.368 N 
ATOM     17  H   UNL     1      11.593  45.972  50.331  1.00  0.00     0.159 HD
ATOM     18  H   UNL     1      11.708  44.843  51.633  1.00  0.00     0.159 HD
ENDBRANCH   3  16
BRANCH   5  19
ATOM     19  N   UNL     1       7.001  44.903  50.164  1.00  0.00    -0.324 N 
ATOM     20  H   UNL     1       6.889  45.482  49.344  1.00  0.00     0.170 HD
BRANCH  19  21
ATOM     21  C   UNL     1       6.142  43.803  50.272  1.00  0.00     0.041 A 
ATOM     22  C   UNL     1       5.027  43.760  51.115  1.00  0.00     0.026 A 
ATOM     23  C   UNL     1       6.443  42.645  49.534  1.00  0.00     0.026 A 
ATOM     24  C   UNL     1       4.227  42.616  51.203  1.00  0.00     0.002 A 
ATOM     25  C   UNL     1       5.647  41.499  49.618  1.00  0.00     0.002 A 
ATOM     26  C   UNL     1       4.536  41.485  50.453  1.00  0.00     0.000 A 
ENDBRANCH  19  21
ENDBRANCH   5  19
TORSDOF 6
ENDMDL
