MODEL 1
REMARK VINA RESULT:    -9.132      0.000      0.000
REMARK INTER + INTRA:         -15.377
REMARK INTER:                 -13.403
REMARK INTRA:                  -1.974
REMARK UNBOUND:                -1.974
REMARK SMILES CCOc1ccccc1C(=O)NCC(=O)N1CCCCC1c1nc(-c2ccccc2)c[nH]1
REMARK SMILES IDX 10 1 11 2 12 3 9 5 4 6 5 7 6 8 8 9 7 10 3 11 2 12 1 13 13 14
REMARK SMILES IDX 14 15 15 16 16 17 17 18 21 19 18 20 20 21 19 22 22 23 23 24
REMARK SMILES IDX 32 25 24 26 31 27 25 29 26 30 30 31 27 32 29 33 28 34
REMARK H PARENT 12 4 32 28
ROOT
ATOM      1  C   UNL     1       6.322  46.591  54.421  1.00  0.00     0.255 C 
ATOM      2  O   UNL     1       5.833  47.577  54.969  1.00  0.00    -0.269 OA
ATOM      3  N   UNL     1       5.815  45.324  54.606  1.00  0.00    -0.343 N 
ATOM      4  H   UNL     1       6.296  44.560  54.139  1.00  0.00     0.164 HD
ENDROOT
BRANCH   1   5
ATOM      5  C   UNL     1       7.479  46.743  53.484  1.00  0.00     0.081 A 
ATOM      6  C   UNL     1       8.802  47.013  53.890  1.00  0.00     0.132 A 
ATOM      7  C   UNL     1       9.800  47.131  52.910  1.00  0.00     0.047 A 
ATOM      8  C   UNL     1       9.496  46.991  51.553  1.00  0.00     0.004 A 
ATOM      9  C   UNL     1       7.187  46.614  52.114  1.00  0.00     0.018 A 
ATOM     10  C   UNL     1       8.189  46.737  51.154  1.00  0.00     0.001 A 
BRANCH   6  11
ATOM     11  O   UNL     1       9.038  47.155  55.234  1.00  0.00    -0.493 OA
BRANCH  11  12
ATOM     12  C   UNL     1       9.948  48.171  55.650  1.00  0.00     0.226 C 
ATOM     13  C   UNL     1      11.092  47.492  56.382  1.00  0.00     0.049 C 
ENDBRANCH  11  12
ENDBRANCH   6  11
ENDBRANCH   1   5
BRANCH   3  14
ATOM     14  C   UNL     1       4.767  45.037  55.559  1.00  0.00     0.216 C 
BRANCH  14  15
ATOM     15  C   UNL     1       3.329  45.595  55.432  1.00  0.00     0.242 C 
ATOM     16  O   UNL     1       2.999  46.476  56.244  1.00  0.00    -0.273 OA
BRANCH  15  17
ATOM     17  N   UNL     1       2.428  45.195  54.451  1.00  0.00    -0.331 N 
ATOM     18  C   UNL     1       1.518  44.094  54.794  1.00  0.00     0.120 C 
ATOM     19  C   UNL     1       2.113  45.952  53.227  1.00  0.00     0.151 C 
ATOM     20  C   UNL     1       1.027  43.324  53.575  1.00  0.00     0.022 C 
ATOM     21  C   UNL     1       0.674  45.704  52.744  1.00  0.00     0.033 C 
ATOM     22  C   UNL     1       0.352  44.224  52.543  1.00  0.00     0.004 C 
BRANCH  19  23
ATOM     23  C   UNL     1       3.107  45.615  52.142  1.00  0.00     0.129 A 
ATOM     24  N   UNL     1       3.842  44.525  52.053  1.00  0.00    -0.231 NA
ATOM     25  N   UNL     1       3.352  46.438  51.069  1.00  0.00    -0.346 N 
ATOM     26  C   UNL     1       4.583  44.647  50.897  1.00  0.00     0.088 A 
ATOM     27  C   UNL     1       4.285  45.839  50.272  1.00  0.00     0.113 A 
ATOM     28  H   UNL     1       2.897  47.328  50.912  1.00  0.00     0.167 HD
BRANCH  26  29
ATOM     29  C   UNL     1       5.513  43.628  50.433  1.00  0.00     0.002 A 
ATOM     30  C   UNL     1       5.166  42.274  50.547  1.00  0.00     0.010 A 
ATOM     31  C   UNL     1       6.753  43.953  49.863  1.00  0.00     0.010 A 
ATOM     32  C   UNL     1       6.028  41.271  50.094  1.00  0.00     0.001 A 
ATOM     33  C   UNL     1       7.618  42.949  49.412  1.00  0.00     0.001 A 
ATOM     34  C   UNL     1       7.253  41.609  49.526  1.00  0.00     0.000 A 
ENDBRANCH  26  29
ENDBRANCH  19  23
ENDBRANCH  15  17
ENDBRANCH  14  15
ENDBRANCH   3  14
TORSDOF 8
ENDMDL
MODEL 2
REMARK VINA RESULT:    -8.964      1.447      1.937
REMARK INTER + INTRA:         -15.131
REMARK INTER:                 -13.686
REMARK INTRA:                  -1.445
REMARK UNBOUND:                -1.974
REMARK SMILES CCOc1ccccc1C(=O)NCC(=O)N1CCCCC1c1nc(-c2ccccc2)c[nH]1
REMARK SMILES IDX 10 1 11 2 12 3 9 5 4 6 5 7 6 8 8 9 7 10 3 11 2 12 1 13 13 14
REMARK SMILES IDX 14 15 15 16 16 17 17 18 21 19 18 20 20 21 19 22 22 23 23 24
REMARK SMILES IDX 32 25 24 26 31 27 25 29 26 30 30 31 27 32 29 33 28 34
REMARK H PARENT 12 4 32 28
ROOT
ATOM      1  C   UNL     1       6.555  46.571  53.997  1.00  0.00     0.255 C 
ATOM      2  O   UNL     1       6.347  45.823  54.951  1.00  0.00    -0.269 OA
ATOM      3  N   UNL     1       5.628  47.498  53.578  1.00  0.00    -0.343 N 
ATOM      4  H   UNL     1       5.866  48.057  52.764  1.00  0.00     0.164 HD
ENDROOT
BRANCH   1   5
ATOM      5  C   UNL     1       7.865  46.527  53.273  1.00  0.00     0.081 A 
ATOM      6  C   UNL     1       9.111  46.812  53.867  1.00  0.00     0.132 A 
ATOM      7  C   UNL     1      10.270  46.732  53.079  1.00  0.00     0.047 A 
ATOM      8  C   UNL     1      10.197  46.385  51.727  1.00  0.00     0.004 A 
ATOM      9  C   UNL     1       7.807  46.188  51.910  1.00  0.00     0.018 A 
ATOM     10  C   UNL     1       8.967  46.116  51.141  1.00  0.00     0.001 A 
BRANCH   6  11
ATOM     11  O   UNL     1       9.118  47.162  55.194  1.00  0.00    -0.493 OA
BRANCH  11  12
ATOM     12  C   UNL     1      10.038  48.167  55.616  1.00  0.00     0.226 C 
ATOM     13  C   UNL     1      11.114  47.488  56.443  1.00  0.00     0.049 C 
ENDBRANCH  11  12
ENDBRANCH   6  11
ENDBRANCH   1   5
BRANCH   3  14
ATOM     14  C   UNL     1       4.294  47.569  54.131  1.00  0.00     0.216 C 
BRANCH  14  15
ATOM     15  C   UNL     1       3.021  47.211  53.325  1.00  0.00     0.242 C 
ATOM     16  O   UNL     1       2.762  47.929  52.345  1.00  0.00    -0.273 OA
BRANCH  15  17
ATOM     17  N   UNL     1       2.200  46.127  53.617  1.00  0.00    -0.331 N 
ATOM     18  C   UNL     1       1.980  45.824  55.037  1.00  0.00     0.120 C 
ATOM     19  C   UNL     1       1.316  45.447  52.654  1.00  0.00     0.151 C 
ATOM     20  C   UNL     1       1.626  44.364  55.288  1.00  0.00     0.022 C 
ATOM     21  C   UNL     1       0.073  44.846  53.330  1.00  0.00     0.033 C 
ATOM     22  C   UNL     1       0.409  43.907  54.487  1.00  0.00     0.004 C 
BRANCH  19  23
ATOM     23  C   UNL     1       2.086  44.383  51.909  1.00  0.00     0.129 A 
ATOM     24  N   UNL     1       3.371  44.396  51.614  1.00  0.00    -0.231 NA
ATOM     25  N   UNL     1       1.509  43.223  51.452  1.00  0.00    -0.346 N 
ATOM     26  C   UNL     1       3.629  43.217  50.948  1.00  0.00     0.088 A 
ATOM     27  C   UNL     1       2.474  42.475  50.840  1.00  0.00     0.113 A 
ATOM     28  H   UNL     1       0.534  42.981  51.570  1.00  0.00     0.167 HD
BRANCH  26  29
ATOM     29  C   UNL     1       4.953  42.846  50.467  1.00  0.00     0.002 A 
ATOM     30  C   UNL     1       5.830  43.845  50.023  1.00  0.00     0.010 A 
ATOM     31  C   UNL     1       5.391  41.514  50.441  1.00  0.00     0.010 A 
ATOM     32  C   UNL     1       7.115  43.526  49.573  1.00  0.00     0.001 A 
ATOM     33  C   UNL     1       6.676  41.192  49.989  1.00  0.00     0.001 A 
ATOM     34  C   UNL     1       7.537  42.199  49.558  1.00  0.00     0.000 A 
ENDBRANCH  26  29
ENDBRANCH  19  23
ENDBRANCH  15  17
ENDBRANCH  14  15
ENDBRANCH   3  14
TORSDOF 8
ENDMDL
MODEL 3
REMARK VINA RESULT:    -8.812      1.730      2.726
REMARK INTER + INTRA:         -14.906
REMARK INTER:                 -13.029
REMARK INTRA:                  -1.877
REMARK UNBOUND:                -1.974
REMARK SMILES CCOc1ccccc1C(=O)NCC(=O)N1CCCCC1c1nc(-c2ccccc2)c[nH]1
REMARK SMILES IDX 10 1 11 2 12 3 9 5 4 6 5 7 6 8 8 9 7 10 3 11 2 12 1 13 13 14
REMARK SMILES IDX 14 15 15 16 16 17 17 18 21 19 18 20 20 21 19 22 22 23 23 24
REMARK SMILES IDX 32 25 24 26 31 27 25 29 26 30 30 31 27 32 29 33 28 34
REMARK H PARENT 12 4 32 28
ROOT
ATOM      1  C   UNL     1       4.757  47.676  53.424  1.00  0.00     0.255 C 
ATOM      2  O   UNL     1       4.317  48.769  53.775  1.00  0.00    -0.269 OA
ATOM      3  N   UNL     1       3.933  46.650  53.021  1.00  0.00    -0.343 N 
ATOM      4  H   UNL     1       4.376  45.769  52.774  1.00  0.00     0.164 HD
ENDROOT
BRANCH   1   5
ATOM      5  C   UNL     1       6.234  47.434  53.381  1.00  0.00     0.081 A 
ATOM      6  C   UNL     1       6.935  46.626  54.299  1.00  0.00     0.132 A 
ATOM      7  C   UNL     1       8.323  46.477  54.148  1.00  0.00     0.047 A 
ATOM      8  C   UNL     1       9.006  47.122  53.114  1.00  0.00     0.004 A 
ATOM      9  C   UNL     1       6.937  48.084  52.351  1.00  0.00     0.018 A 
ATOM     10  C   UNL     1       8.315  47.928  52.217  1.00  0.00     0.001 A 
BRANCH   6  11
ATOM     11  O   UNL     1       6.213  46.031  55.303  1.00  0.00    -0.493 OA
BRANCH  11  12
ATOM     12  C   UNL     1       6.152  44.606  55.329  1.00  0.00     0.226 C 
ATOM     13  C   UNL     1       5.058  44.175  54.369  1.00  0.00     0.049 C 
ENDBRANCH  11  12
ENDBRANCH   6  11
ENDBRANCH   1   5
BRANCH   3  14
ATOM     14  C   UNL     1       2.492  46.728  53.112  1.00  0.00     0.216 C 
BRANCH  14  15
ATOM     15  C   UNL     1       1.635  45.700  53.891  1.00  0.00     0.242 C 
ATOM     16  O   UNL     1       1.367  45.978  55.071  1.00  0.00    -0.273 OA
BRANCH  15  17
ATOM     17  N   UNL     1       1.131  44.531  53.330  1.00  0.00    -0.331 N 
ATOM     18  C   UNL     1       0.332  43.664  54.206  1.00  0.00     0.120 C 
ATOM     19  C   UNL     1       1.082  44.233  51.887  1.00  0.00     0.151 C 
ATOM     20  C   UNL     1       0.340  42.205  53.769  1.00  0.00     0.022 C 
ATOM     21  C   UNL     1      -0.098  43.317  51.522  1.00  0.00     0.033 C 
ATOM     22  C   UNL     1      -0.127  42.020  52.327  1.00  0.00     0.004 C 
BRANCH  19  23
ATOM     23  C   UNL     1       2.389  43.624  51.442  1.00  0.00     0.129 A 
ATOM     24  N   UNL     1       3.480  44.268  51.078  1.00  0.00    -0.231 NA
ATOM     25  N   UNL     1       2.601  42.267  51.381  1.00  0.00    -0.346 N 
ATOM     26  C   UNL     1       4.418  43.305  50.773  1.00  0.00     0.088 A 
ATOM     27  C   UNL     1       3.881  42.050  50.958  1.00  0.00     0.113 A 
ATOM     28  H   UNL     1       1.912  41.567  51.625  1.00  0.00     0.167 HD
BRANCH  26  29
ATOM     29  C   UNL     1       5.773  43.619  50.342  1.00  0.00     0.002 A 
ATOM     30  C   UNL     1       6.504  42.668  49.616  1.00  0.00     0.010 A 
ATOM     31  C   UNL     1       6.378  44.854  50.621  1.00  0.00     0.010 A 
ATOM     32  C   UNL     1       7.800  42.944  49.171  1.00  0.00     0.001 A 
ATOM     33  C   UNL     1       7.676  45.131  50.178  1.00  0.00     0.001 A 
ATOM     34  C   UNL     1       8.385  44.176  49.451  1.00  0.00     0.000 A 
ENDBRANCH  26  29
ENDBRANCH  19  23
ENDBRANCH  15  17
ENDBRANCH  14  15
ENDBRANCH   3  14
TORSDOF 8
ENDMDL
MODEL 4
REMARK VINA RESULT:    -8.618      2.750      6.323
REMARK INTER + INTRA:         -14.622
REMARK INTER:                 -13.081
REMARK INTRA:                  -1.541
REMARK UNBOUND:                -1.974
REMARK SMILES CCOc1ccccc1C(=O)NCC(=O)N1CCCCC1c1nc(-c2ccccc2)c[nH]1
REMARK SMILES IDX 10 1 11 2 12 3 9 5 4 6 5 7 6 8 8 9 7 10 3 11 2 12 1 13 13 14
REMARK SMILES IDX 14 15 15 16 16 17 17 18 21 19 18 20 20 21 19 22 22 23 23 24
REMARK SMILES IDX 32 25 24 26 31 27 25 29 26 30 30 31 27 32 29 33 28 34
REMARK H PARENT 12 4 32 28
ROOT
ATOM      1  C   UNL     1       5.816  46.459  53.530  1.00  0.00     0.255 C 
ATOM      2  O   UNL     1       5.402  45.618  54.326  1.00  0.00    -0.269 OA
ATOM      3  N   UNL     1       4.965  47.255  52.797  1.00  0.00    -0.343 N 
ATOM      4  H   UNL     1       5.388  47.905  52.141  1.00  0.00     0.164 HD
ENDROOT
BRANCH   1   5
ATOM      5  C   UNL     1       7.287  46.680  53.360  1.00  0.00     0.081 A 
ATOM      6  C   UNL     1       7.964  46.615  52.126  1.00  0.00     0.132 A 
ATOM      7  C   UNL     1       9.348  46.845  52.099  1.00  0.00     0.047 A 
ATOM      8  C   UNL     1      10.052  47.126  53.273  1.00  0.00     0.004 A 
ATOM      9  C   UNL     1       8.011  46.956  54.534  1.00  0.00     0.018 A 
ATOM     10  C   UNL     1       9.385  47.179  54.491  1.00  0.00     0.001 A 
BRANCH   6  11
ATOM     11  O   UNL     1       7.223  46.319  51.009  1.00  0.00    -0.493 OA
BRANCH  11  12
ATOM     12  C   UNL     1       7.334  45.008  50.460  1.00  0.00     0.226 C 
ATOM     13  C   UNL     1       5.949  44.387  50.466  1.00  0.00     0.049 C 
ENDBRANCH  11  12
ENDBRANCH   6  11
ENDBRANCH   1   5
BRANCH   3  14
ATOM     14  C   UNL     1       3.531  47.069  52.801  1.00  0.00     0.216 C 
BRANCH  14  15
ATOM     15  C   UNL     1       2.790  46.165  51.786  1.00  0.00     0.242 C 
ATOM     16  O   UNL     1       2.891  46.473  50.587  1.00  0.00    -0.273 OA
BRANCH  15  17
ATOM     17  N   UNL     1       2.070  45.030  52.143  1.00  0.00    -0.331 N 
ATOM     18  C   UNL     1       1.063  44.553  51.187  1.00  0.00     0.120 C 
ATOM     19  C   UNL     1       2.421  44.113  53.242  1.00  0.00     0.151 C 
ATOM     20  C   UNL     1      -0.054  43.754  51.845  1.00  0.00     0.022 C 
ATOM     21  C   UNL     1       1.957  42.672  52.968  1.00  0.00     0.033 C 
ATOM     22  C   UNL     1       0.467  42.568  52.652  1.00  0.00     0.004 C 
BRANCH  19  23
ATOM     23  C   UNL     1       1.844  44.620  54.542  1.00  0.00     0.129 A 
ATOM     24  N   UNL     1       0.574  44.849  54.809  1.00  0.00    -0.231 NA
ATOM     25  N   UNL     1       2.615  44.897  55.645  1.00  0.00    -0.346 N 
ATOM     26  C   UNL     1       0.523  45.285  56.116  1.00  0.00     0.088 A 
ATOM     27  C   UNL     1       1.792  45.320  56.650  1.00  0.00     0.113 A 
ATOM     28  H   UNL     1       3.620  44.787  55.687  1.00  0.00     0.167 HD
BRANCH  26  29
ATOM     29  C   UNL     1      -0.720  45.626  56.795  1.00  0.00     0.002 A 
ATOM     30  C   UNL     1      -0.829  46.860  57.452  1.00  0.00     0.010 A 
ATOM     31  C   UNL     1      -1.825  44.763  56.808  1.00  0.00     0.010 A 
ATOM     32  C   UNL     1      -2.014  47.228  58.097  1.00  0.00     0.001 A 
ATOM     33  C   UNL     1      -3.011  45.129  57.455  1.00  0.00     0.001 A 
ATOM     34  C   UNL     1      -3.104  46.362  58.097  1.00  0.00     0.000 A 
ENDBRANCH  26  29
ENDBRANCH  19  23
ENDBRANCH  15  17
ENDBRANCH  14  15
ENDBRANCH   3  14
TORSDOF 8
ENDMDL
MODEL 5
REMARK VINA RESULT:    -8.524      2.792      6.277
REMARK INTER + INTRA:         -14.484
REMARK INTER:                 -13.555
REMARK INTRA:                  -0.930
REMARK UNBOUND:                -1.974
REMARK SMILES CCOc1ccccc1C(=O)NCC(=O)N1CCCCC1c1nc(-c2ccccc2)c[nH]1
REMARK SMILES IDX 10 1 11 2 12 3 9 5 4 6 5 7 6 8 8 9 7 10 3 11 2 12 1 13 13 14
REMARK SMILES IDX 14 15 15 16 16 17 17 18 21 19 18 20 20 21 19 22 22 23 23 24
REMARK SMILES IDX 32 25 24 26 31 27 25 29 26 30 30 31 27 32 29 33 28 34
REMARK H PARENT 12 4 32 28
ROOT
ATOM      1  C   UNL     1       6.130  45.697  51.543  1.00  0.00     0.255 C 
ATOM      2  O   UNL     1       6.080  44.698  50.827  1.00  0.00    -0.269 OA
ATOM      3  N   UNL     1       5.007  46.429  51.856  1.00  0.00    -0.343 N 
ATOM      4  H   UNL     1       5.139  47.256  52.431  1.00  0.00     0.164 HD
ENDROOT
BRANCH   1   5
ATOM      5  C   UNL     1       7.430  46.132  52.144  1.00  0.00     0.081 A 
ATOM      6  C   UNL     1       7.584  46.566  53.477  1.00  0.00     0.132 A 
ATOM      7  C   UNL     1       8.860  46.946  53.922  1.00  0.00     0.047 A 
ATOM      8  C   UNL     1       9.961  46.906  53.063  1.00  0.00     0.004 A 
ATOM      9  C   UNL     1       8.546  46.105  51.290  1.00  0.00     0.018 A 
ATOM     10  C   UNL     1       9.806  46.489  51.746  1.00  0.00     0.001 A 
BRANCH   6  11
ATOM     11  O   UNL     1       6.463  46.599  54.268  1.00  0.00    -0.493 OA
BRANCH  11  12
ATOM     12  C   UNL     1       6.208  45.480  55.115  1.00  0.00     0.226 C 
ATOM     13  C   UNL     1       4.703  45.323  55.229  1.00  0.00     0.049 C 
ENDBRANCH  11  12
ENDBRANCH   6  11
ENDBRANCH   1   5
BRANCH   3  14
ATOM     14  C   UNL     1       3.716  46.167  51.260  1.00  0.00     0.216 C 
BRANCH  14  15
ATOM     15  C   UNL     1       2.403  46.097  52.077  1.00  0.00     0.242 C 
ATOM     16  O   UNL     1       1.988  47.164  52.559  1.00  0.00    -0.273 OA
BRANCH  15  17
ATOM     17  N   UNL     1       1.665  44.931  52.256  1.00  0.00    -0.331 N 
ATOM     18  C   UNL     1       0.970  44.397  51.078  1.00  0.00     0.120 C 
ATOM     19  C   UNL     1       1.753  44.042  53.428  1.00  0.00     0.151 C 
ATOM     20  C   UNL     1      -0.244  43.550  51.434  1.00  0.00     0.022 C 
ATOM     21  C   UNL     1       1.444  42.578  53.072  1.00  0.00     0.033 C 
ATOM     22  C   UNL     1       0.097  42.398  52.376  1.00  0.00     0.004 C 
BRANCH  19  23
ATOM     23  C   UNL     1       0.831  44.533  54.518  1.00  0.00     0.129 A 
ATOM     24  N   UNL     1       1.123  45.389  55.477  1.00  0.00    -0.231 NA
ATOM     25  N   UNL     1      -0.480  44.135  54.624  1.00  0.00    -0.346 N 
ATOM     26  C   UNL     1      -0.026  45.547  56.222  1.00  0.00     0.088 A 
ATOM     27  C   UNL     1      -1.035  44.768  55.699  1.00  0.00     0.113 A 
ATOM     28  H   UNL     1      -0.938  43.490  53.994  1.00  0.00     0.167 HD
BRANCH  26  29
ATOM     29  C   UNL     1      -0.116  46.436  57.372  1.00  0.00     0.002 A 
ATOM     30  C   UNL     1       0.989  46.573  58.225  1.00  0.00     0.010 A 
ATOM     31  C   UNL     1      -1.273  47.175  57.656  1.00  0.00     0.010 A 
ATOM     32  C   UNL     1       0.944  47.433  59.326  1.00  0.00     0.001 A 
ATOM     33  C   UNL     1      -1.321  48.034  58.759  1.00  0.00     0.001 A 
ATOM     34  C   UNL     1      -0.211  48.164  59.592  1.00  0.00     0.000 A 
ENDBRANCH  26  29
ENDBRANCH  19  23
ENDBRANCH  15  17
ENDBRANCH  14  15
ENDBRANCH   3  14
TORSDOF 8
ENDMDL
MODEL 6
REMARK VINA RESULT:    -8.524      3.138      6.035
REMARK INTER + INTRA:         -14.484
REMARK INTER:                 -11.541
REMARK INTRA:                  -2.943
REMARK UNBOUND:                -1.974
REMARK SMILES CCOc1ccccc1C(=O)NCC(=O)N1CCCCC1c1nc(-c2ccccc2)c[nH]1
REMARK SMILES IDX 10 1 11 2 12 3 9 5 4 6 5 7 6 8 8 9 7 10 3 11 2 12 1 13 13 14
REMARK SMILES IDX 14 15 15 16 16 17 17 18 21 19 18 20 20 21 19 22 22 23 23 24
REMARK SMILES IDX 32 25 24 26 31 27 25 29 26 30 30 31 27 32 29 33 28 34
REMARK H PARENT 12 4 32 28
ROOT
ATOM      1  C   UNL     1       1.995  44.699  51.403  1.00  0.00     0.255 C 
ATOM      2  O   UNL     1       1.419  45.668  51.894  1.00  0.00    -0.269 OA
ATOM      3  N   UNL     1       1.314  43.582  50.975  1.00  0.00    -0.343 N 
ATOM      4  H   UNL     1       1.868  42.814  50.608  1.00  0.00     0.164 HD
ENDROOT
BRANCH   1   5
ATOM      5  C   UNL     1       3.480  44.720  51.211  1.00  0.00     0.081 A 
ATOM      6  C   UNL     1       4.297  43.571  51.201  1.00  0.00     0.132 A 
ATOM      7  C   UNL     1       5.678  43.724  51.008  1.00  0.00     0.047 A 
ATOM      8  C   UNL     1       6.243  44.991  50.837  1.00  0.00     0.004 A 
ATOM      9  C   UNL     1       4.064  45.988  51.046  1.00  0.00     0.018 A 
ATOM     10  C   UNL     1       5.438  46.123  50.859  1.00  0.00     0.001 A 
BRANCH   6  11
ATOM     11  O   UNL     1       3.687  42.356  51.390  1.00  0.00    -0.493 OA
BRANCH  11  12
ATOM     12  C   UNL     1       4.323  41.197  50.853  1.00  0.00     0.226 C 
ATOM     13  C   UNL     1       3.579  40.810  49.587  1.00  0.00     0.049 C 
ENDBRANCH  11  12
ENDBRANCH   6  11
ENDBRANCH   1   5
BRANCH   3  14
ATOM     14  C   UNL     1      -0.104  43.403  51.196  1.00  0.00     0.216 C 
BRANCH  14  15
ATOM     15  C   UNL     1      -0.692  42.832  52.509  1.00  0.00     0.242 C 
ATOM     16  O   UNL     1      -0.590  41.605  52.678  1.00  0.00    -0.273 OA
BRANCH  15  17
ATOM     17  N   UNL     1      -1.277  43.614  53.499  1.00  0.00    -0.331 N 
ATOM     18  C   UNL     1      -2.455  44.402  53.113  1.00  0.00     0.120 C 
ATOM     19  C   UNL     1      -1.004  43.502  54.943  1.00  0.00     0.151 C 
ATOM     20  C   UNL     1      -2.660  45.634  53.985  1.00  0.00     0.022 C 
ATOM     21  C   UNL     1      -2.218  43.903  55.797  1.00  0.00     0.033 C 
ATOM     22  C   UNL     1      -2.753  45.296  55.471  1.00  0.00     0.004 C 
BRANCH  19  23
ATOM     23  C   UNL     1       0.202  44.334  55.306  1.00  0.00     0.129 A 
ATOM     24  N   UNL     1       1.390  44.297  54.734  1.00  0.00    -0.231 NA
ATOM     25  N   UNL     1       0.189  45.276  56.306  1.00  0.00    -0.346 N 
ATOM     26  C   UNL     1       2.163  45.237  55.382  1.00  0.00     0.088 A 
ATOM     27  C   UNL     1       1.424  45.855  56.367  1.00  0.00     0.113 A 
ATOM     28  H   UNL     1      -0.615  45.493  56.880  1.00  0.00     0.167 HD
BRANCH  26  29
ATOM     29  C   UNL     1       3.548  45.514  55.026  1.00  0.00     0.002 A 
ATOM     30  C   UNL     1       3.940  46.834  54.760  1.00  0.00     0.010 A 
ATOM     31  C   UNL     1       4.516  44.501  54.948  1.00  0.00     0.010 A 
ATOM     32  C   UNL     1       5.266  47.137  54.435  1.00  0.00     0.001 A 
ATOM     33  C   UNL     1       5.842  44.804  54.620  1.00  0.00     0.001 A 
ATOM     34  C   UNL     1       6.216  46.122  54.366  1.00  0.00     0.000 A 
ENDBRANCH  26  29
ENDBRANCH  19  23
ENDBRANCH  15  17
ENDBRANCH  14  15
ENDBRANCH   3  14
TORSDOF 8
ENDMDL
MODEL 7
REMARK VINA RESULT:    -8.362      3.265      7.596
REMARK INTER + INTRA:         -14.246
REMARK INTER:                 -12.350
REMARK INTRA:                  -1.896
REMARK UNBOUND:                -1.974
REMARK SMILES CCOc1ccccc1C(=O)NCC(=O)N1CCCCC1c1nc(-c2ccccc2)c[nH]1
REMARK SMILES IDX 10 1 11 2 12 3 9 5 4 6 5 7 6 8 8 9 7 10 3 11 2 12 1 13 13 14
REMARK SMILES IDX 14 15 15 16 16 17 17 18 21 19 18 20 20 21 19 22 22 23 23 24
REMARK SMILES IDX 32 25 24 26 31 27 25 29 26 30 30 31 27 32 29 33 28 34
REMARK H PARENT 12 4 32 28
ROOT
ATOM      1  C   UNL     1       7.183  42.536  49.533  1.00  0.00     0.255 C 
ATOM      2  O   UNL     1       8.144  41.971  50.051  1.00  0.00    -0.269 OA
ATOM      3  N   UNL     1       7.299  43.764  48.922  1.00  0.00    -0.343 N 
ATOM      4  H   UNL     1       6.450  44.176  48.543  1.00  0.00     0.164 HD
ENDROOT
BRANCH   1   5
ATOM      5  C   UNL     1       5.840  41.876  49.510  1.00  0.00     0.081 A 
ATOM      6  C   UNL     1       5.218  41.378  48.347  1.00  0.00     0.132 A 
ATOM      7  C   UNL     1       3.955  40.777  48.459  1.00  0.00     0.047 A 
ATOM      8  C   UNL     1       3.314  40.676  49.697  1.00  0.00     0.004 A 
ATOM      9  C   UNL     1       5.179  41.775  50.747  1.00  0.00     0.018 A 
ATOM     10  C   UNL     1       3.924  41.178  50.841  1.00  0.00     0.001 A 
BRANCH   6  11
ATOM     11  O   UNL     1       5.888  41.519  47.157  1.00  0.00    -0.493 OA
BRANCH  11  12
ATOM     12  C   UNL     1       5.160  42.008  46.033  1.00  0.00     0.226 C 
ATOM     13  C   UNL     1       5.425  41.068  44.870  1.00  0.00     0.049 C 
ENDBRANCH  11  12
ENDBRANCH   6  11
ENDBRANCH   1   5
BRANCH   3  14
ATOM     14  C   UNL     1       8.516  44.543  48.965  1.00  0.00     0.216 C 
BRANCH  14  15
ATOM     15  C   UNL     1       9.378  44.700  50.241  1.00  0.00     0.242 C 
ATOM     16  O   UNL     1      10.327  43.909  50.373  1.00  0.00    -0.273 OA
BRANCH  15  17
ATOM     17  N   UNL     1       9.168  45.685  51.201  1.00  0.00    -0.331 N 
ATOM     18  C   UNL     1      10.305  46.022  52.067  1.00  0.00     0.120 C 
ATOM     19  C   UNL     1       8.018  46.606  51.234  1.00  0.00     0.151 C 
ATOM     20  C   UNL     1       9.880  46.599  53.411  1.00  0.00     0.022 C 
ATOM     21  C   UNL     1       8.376  47.959  51.873  1.00  0.00     0.033 C 
ATOM     22  C   UNL     1       8.982  47.825  53.268  1.00  0.00     0.004 C 
BRANCH  19  23
ATOM     23  C   UNL     1       6.862  45.962  51.959  1.00  0.00     0.129 A 
ATOM     24  N   UNL     1       5.693  45.629  51.447  1.00  0.00    -0.231 NA
ATOM     25  N   UNL     1       6.908  45.620  53.289  1.00  0.00    -0.346 N 
ATOM     26  C   UNL     1       4.967  45.061  52.471  1.00  0.00     0.088 A 
ATOM     27  C   UNL     1       5.715  45.049  53.628  1.00  0.00     0.113 A 
ATOM     28  H   UNL     1       7.707  45.767  53.892  1.00  0.00     0.167 HD
BRANCH  26  29
ATOM     29  C   UNL     1       3.617  44.542  52.300  1.00  0.00     0.002 A 
ATOM     30  C   UNL     1       2.920  44.813  51.114  1.00  0.00     0.010 A 
ATOM     31  C   UNL     1       2.984  43.767  53.283  1.00  0.00     0.010 A 
ATOM     32  C   UNL     1       1.630  44.314  50.908  1.00  0.00     0.001 A 
ATOM     33  C   UNL     1       1.692  43.269  53.080  1.00  0.00     0.001 A 
ATOM     34  C   UNL     1       1.017  43.542  51.891  1.00  0.00     0.000 A 
ENDBRANCH  26  29
ENDBRANCH  19  23
ENDBRANCH  15  17
ENDBRANCH  14  15
ENDBRANCH   3  14
TORSDOF 8
ENDMDL
MODEL 8
REMARK VINA RESULT:    -8.263      2.660      6.232
REMARK INTER + INTRA:         -14.101
REMARK INTER:                 -12.812
REMARK INTRA:                  -1.289
REMARK UNBOUND:                -1.974
REMARK SMILES CCOc1ccccc1C(=O)NCC(=O)N1CCCCC1c1nc(-c2ccccc2)c[nH]1
REMARK SMILES IDX 10 1 11 2 12 3 9 5 4 6 5 7 6 8 8 9 7 10 3 11 2 12 1 13 13 14
REMARK SMILES IDX 14 15 15 16 16 17 17 18 21 19 18 20 20 21 19 22 22 23 23 24
REMARK SMILES IDX 32 25 24 26 31 27 25 29 26 30 30 31 27 32 29 33 28 34
REMARK H PARENT 12 4 32 28
ROOT
ATOM      1  C   UNL     1       6.653  46.458  54.285  1.00  0.00     0.255 C 
ATOM      2  O   UNL     1       6.233  47.511  54.762  1.00  0.00    -0.269 OA
ATOM      3  N   UNL     1       6.018  45.255  54.494  1.00  0.00    -0.343 N 
ATOM      4  H   UNL     1       6.447  44.428  54.088  1.00  0.00     0.164 HD
ENDROOT
BRANCH   1   5
ATOM      5  C   UNL     1       7.867  46.456  53.409  1.00  0.00     0.081 A 
ATOM      6  C   UNL     1       7.859  46.126  52.039  1.00  0.00     0.132 A 
ATOM      7  C   UNL     1       9.067  46.165  51.325  1.00  0.00     0.047 A 
ATOM      8  C   UNL     1      10.263  46.516  51.957  1.00  0.00     0.004 A 
ATOM      9  C   UNL     1       9.081  46.799  54.032  1.00  0.00     0.018 A 
ATOM     10  C   UNL     1      10.272  46.830  53.311  1.00  0.00     0.001 A 
BRANCH   6  11
ATOM     11  O   UNL     1       6.657  45.775  51.477  1.00  0.00    -0.493 OA
BRANCH  11  12
ATOM     12  C   UNL     1       6.676  44.909  50.344  1.00  0.00     0.226 C 
ATOM     13  C   UNL     1       5.792  43.716  50.662  1.00  0.00     0.049 C 
ENDBRANCH  11  12
ENDBRANCH   6  11
ENDBRANCH   1   5
BRANCH   3  14
ATOM     14  C   UNL     1       4.899  45.114  55.398  1.00  0.00     0.216 C 
BRANCH  14  15
ATOM     15  C   UNL     1       3.432  45.385  54.981  1.00  0.00     0.242 C 
ATOM     16  O   UNL     1       2.739  46.041  55.777  1.00  0.00    -0.273 OA
BRANCH  15  17
ATOM     17  N   UNL     1       2.883  44.973  53.771  1.00  0.00    -0.331 N 
ATOM     18  C   UNL     1       3.208  45.777  52.586  1.00  0.00     0.120 C 
ATOM     19  C   UNL     1       2.255  43.662  53.527  1.00  0.00     0.151 C 
ATOM     20  C   UNL     1       2.157  45.674  51.489  1.00  0.00     0.022 C 
ATOM     21  C   UNL     1       2.409  43.208  52.066  1.00  0.00     0.033 C 
ATOM     22  C   UNL     1       1.896  44.233  51.057  1.00  0.00     0.004 C 
BRANCH  19  23
ATOM     23  C   UNL     1       0.799  43.707  53.921  1.00  0.00     0.129 A 
ATOM     24  N   UNL     1       0.298  44.171  55.049  1.00  0.00    -0.231 NA
ATOM     25  N   UNL     1      -0.213  43.263  53.103  1.00  0.00    -0.346 N 
ATOM     26  C   UNL     1      -1.070  44.022  54.958  1.00  0.00     0.088 A 
ATOM     27  C   UNL     1      -1.402  43.456  53.747  1.00  0.00     0.113 A 
ATOM     28  H   UNL     1      -0.076  42.874  52.180  1.00  0.00     0.167 HD
BRANCH  26  29
ATOM     29  C   UNL     1      -1.989  44.438  56.008  1.00  0.00     0.002 A 
ATOM     30  C   UNL     1      -2.604  43.467  56.811  1.00  0.00     0.010 A 
ATOM     31  C   UNL     1      -2.279  45.789  56.255  1.00  0.00     0.010 A 
ATOM     32  C   UNL     1      -3.476  43.833  57.841  1.00  0.00     0.001 A 
ATOM     33  C   UNL     1      -3.153  46.156  57.283  1.00  0.00     0.001 A 
ATOM     34  C   UNL     1      -3.749  45.178  58.077  1.00  0.00     0.000 A 
ENDBRANCH  26  29
ENDBRANCH  19  23
ENDBRANCH  15  17
ENDBRANCH  14  15
ENDBRANCH   3  14
TORSDOF 8
ENDMDL
MODEL 9
REMARK VINA RESULT:    -8.225      3.859      7.507
REMARK INTER + INTRA:         -14.046
REMARK INTER:                 -12.753
REMARK INTRA:                  -1.293
REMARK UNBOUND:                -1.974
REMARK SMILES CCOc1ccccc1C(=O)NCC(=O)N1CCCCC1c1nc(-c2ccccc2)c[nH]1
REMARK SMILES IDX 10 1 11 2 12 3 9 5 4 6 5 7 6 8 8 9 7 10 3 11 2 12 1 13 13 14
REMARK SMILES IDX 14 15 15 16 16 17 17 18 21 19 18 20 20 21 19 22 22 23 23 24
REMARK SMILES IDX 32 25 24 26 31 27 25 29 26 30 30 31 27 32 29 33 28 34
REMARK H PARENT 12 4 32 28
ROOT
ATOM      1  C   UNL     1      -1.755  46.266  57.144  1.00  0.00     0.255 C 
ATOM      2  O   UNL     1      -2.169  45.267  57.729  1.00  0.00    -0.269 OA
ATOM      3  N   UNL     1      -0.943  46.182  56.036  1.00  0.00    -0.343 N 
ATOM      4  H   UNL     1      -0.622  47.056  55.630  1.00  0.00     0.164 HD
ENDROOT
BRANCH   1   5
ATOM      5  C   UNL     1      -2.164  47.632  57.600  1.00  0.00     0.081 A 
ATOM      6  C   UNL     1      -1.808  48.196  58.842  1.00  0.00     0.132 A 
ATOM      7  C   UNL     1      -2.254  49.491  59.151  1.00  0.00     0.047 A 
ATOM      8  C   UNL     1      -3.044  50.212  58.252  1.00  0.00     0.004 A 
ATOM      9  C   UNL     1      -2.967  48.367  56.710  1.00  0.00     0.018 A 
ATOM     10  C   UNL     1      -3.404  49.650  57.033  1.00  0.00     0.001 A 
BRANCH   6  11
ATOM     11  O   UNL     1      -1.044  47.434  59.691  1.00  0.00    -0.493 OA
BRANCH  11  12
ATOM     12  C   UNL     1       0.281  47.877  59.978  1.00  0.00     0.226 C 
ATOM     13  C   UNL     1       1.230  47.098  59.084  1.00  0.00     0.049 C 
ENDBRANCH  11  12
ENDBRANCH   6  11
ENDBRANCH   1   5
BRANCH   3  14
ATOM     14  C   UNL     1      -0.402  44.929  55.561  1.00  0.00     0.216 C 
BRANCH  14  15
ATOM     15  C   UNL     1       1.104  44.707  55.278  1.00  0.00     0.242 C 
ATOM     16  O   UNL     1       1.866  44.741  56.259  1.00  0.00    -0.273 OA
BRANCH  15  17
ATOM     17  N   UNL     1       1.622  44.439  54.016  1.00  0.00    -0.331 N 
ATOM     18  C   UNL     1       1.130  43.233  53.337  1.00  0.00     0.120 C 
ATOM     19  C   UNL     1       2.388  45.392  53.192  1.00  0.00     0.151 C 
ATOM     20  C   UNL     1       2.116  42.678  52.318  1.00  0.00     0.022 C 
ATOM     21  C   UNL     1       2.199  45.142  51.687  1.00  0.00     0.033 C 
ATOM     22  C   UNL     1       2.521  43.709  51.268  1.00  0.00     0.004 C 
BRANCH  19  23
ATOM     23  C   UNL     1       3.850  45.337  53.564  1.00  0.00     0.129 A 
ATOM     24  N   UNL     1       4.845  45.952  52.957  1.00  0.00    -0.231 NA
ATOM     25  N   UNL     1       4.323  44.619  54.636  1.00  0.00    -0.346 N 
ATOM     26  C   UNL     1       5.989  45.623  53.652  1.00  0.00     0.088 A 
ATOM     27  C   UNL     1       5.676  44.790  54.703  1.00  0.00     0.113 A 
ATOM     28  H   UNL     1       3.746  44.073  55.262  1.00  0.00     0.167 HD
BRANCH  26  29
ATOM     29  C   UNL     1       7.309  46.125  53.299  1.00  0.00     0.002 A 
ATOM     30  C   UNL     1       8.105  46.725  54.286  1.00  0.00     0.010 A 
ATOM     31  C   UNL     1       7.825  46.023  51.999  1.00  0.00     0.010 A 
ATOM     32  C   UNL     1       9.385  47.200  53.986  1.00  0.00     0.001 A 
ATOM     33  C   UNL     1       9.105  46.500  51.697  1.00  0.00     0.001 A 
ATOM     34  C   UNL     1       9.885  47.086  52.692  1.00  0.00     0.000 A 
ENDBRANCH  26  29
ENDBRANCH  19  23
ENDBRANCH  15  17
ENDBRANCH  14  15
ENDBRANCH   3  14
TORSDOF 8
ENDMDL
MODEL 10
REMARK VINA RESULT:    -8.189      1.906      3.099
REMARK INTER + INTRA:         -13.992
REMARK INTER:                 -11.892
REMARK INTRA:                  -2.100
REMARK UNBOUND:                -1.974
REMARK SMILES CCOc1ccccc1C(=O)NCC(=O)N1CCCCC1c1nc(-c2ccccc2)c[nH]1
REMARK SMILES IDX 10 1 11 2 12 3 9 5 4 6 5 7 6 8 8 9 7 10 3 11 2 12 1 13 13 14
REMARK SMILES IDX 14 15 15 16 16 17 17 18 21 19 18 20 20 21 19 22 22 23 23 24
REMARK SMILES IDX 32 25 24 26 31 27 25 29 26 30 30 31 27 32 29 33 28 34
REMARK H PARENT 12 4 32 28
ROOT
ATOM      1  C   UNL     1       5.060  45.317  55.013  1.00  0.00     0.255 C 
ATOM      2  O   UNL     1       5.448  44.405  55.740  1.00  0.00    -0.269 OA
ATOM      3  N   UNL     1       3.733  45.675  54.932  1.00  0.00    -0.343 N 
ATOM      4  H   UNL     1       3.492  46.420  54.285  1.00  0.00     0.164 HD
ENDROOT
BRANCH   1   5
ATOM      5  C   UNL     1       6.040  46.112  54.208  1.00  0.00     0.081 A 
ATOM      6  C   UNL     1       5.822  47.433  53.767  1.00  0.00     0.132 A 
ATOM      7  C   UNL     1       6.824  48.072  53.020  1.00  0.00     0.047 A 
ATOM      8  C   UNL     1       8.017  47.414  52.708  1.00  0.00     0.004 A 
ATOM      9  C   UNL     1       7.242  45.460  53.878  1.00  0.00     0.018 A 
ATOM     10  C   UNL     1       8.226  46.108  53.133  1.00  0.00     0.001 A 
BRANCH   6  11
ATOM     11  O   UNL     1       4.625  48.022  54.091  1.00  0.00    -0.493 OA
BRANCH  11  12
ATOM     12  C   UNL     1       3.894  48.667  53.050  1.00  0.00     0.226 C 
ATOM     13  C   UNL     1       3.162  47.591  52.268  1.00  0.00     0.049 C 
ENDBRANCH  11  12
ENDBRANCH   6  11
ENDBRANCH   1   5
BRANCH   3  14
ATOM     14  C   UNL     1       2.683  44.922  55.582  1.00  0.00     0.216 C 
BRANCH  14  15
ATOM     15  C   UNL     1       1.207  44.947  55.115  1.00  0.00     0.242 C 
ATOM     16  O   UNL     1       0.417  45.618  55.800  1.00  0.00    -0.273 OA
BRANCH  15  17
ATOM     17  N   UNL     1       0.747  44.303  53.971  1.00  0.00    -0.331 N 
ATOM     18  C   UNL     1      -0.419  43.425  54.127  1.00  0.00     0.120 C 
ATOM     19  C   UNL     1       1.137  44.641  52.591  1.00  0.00     0.151 C 
ATOM     20  C   UNL     1      -0.489  42.332  53.069  1.00  0.00     0.022 C 
ATOM     21  C   UNL     1       0.022  44.331  51.579  1.00  0.00     0.033 C 
ATOM     22  C   UNL     1      -0.471  42.887  51.647  1.00  0.00     0.004 C 
BRANCH  19  23
ATOM     23  C   UNL     1       2.409  43.917  52.222  1.00  0.00     0.129 A 
ATOM     24  N   UNL     1       3.373  44.358  51.438  1.00  0.00    -0.231 NA
ATOM     25  N   UNL     1       2.724  42.667  52.699  1.00  0.00    -0.346 N 
ATOM     26  C   UNL     1       4.333  43.369  51.406  1.00  0.00     0.088 A 
ATOM     27  C   UNL     1       3.939  42.306  52.190  1.00  0.00     0.113 A 
ATOM     28  H   UNL     1       2.143  42.129  53.328  1.00  0.00     0.167 HD
BRANCH  26  29
ATOM     29  C   UNL     1       5.575  43.486  50.655  1.00  0.00     0.002 A 
ATOM     30  C   UNL     1       6.196  44.738  50.542  1.00  0.00     0.010 A 
ATOM     31  C   UNL     1       6.185  42.382  50.043  1.00  0.00     0.010 A 
ATOM     32  C   UNL     1       7.400  44.883  49.846  1.00  0.00     0.001 A 
ATOM     33  C   UNL     1       7.388  42.525  49.344  1.00  0.00     0.001 A 
ATOM     34  C   UNL     1       7.995  43.776  49.248  1.00  0.00     0.000 A 
ENDBRANCH  26  29
ENDBRANCH  19  23
ENDBRANCH  15  17
ENDBRANCH  14  15
ENDBRANCH   3  14
TORSDOF 8
ENDMDL
