MODEL 1
REMARK VINA RESULT:    -8.948      0.000      0.000
REMARK INTER + INTRA:         -13.698
REMARK INTER:                 -12.087
REMARK INTRA:                  -1.612
REMARK UNBOUND:                -1.612
REMARK SMILES O=C(NCc1noc2ccccc12)c1ccccc1OCC1CC1
REMARK SMILES IDX 14 1 15 2 16 3 17 4 18 5 19 6 2 7 3 8 1 9 4 11 5 12 6 13
REMARK SMILES IDX 13 14 7 15 12 16 8 17 11 18 9 19 10 20 20 21 21 22 22 23
REMARK SMILES IDX 23 24 24 25
REMARK H PARENT 3 10
ROOT
ATOM      1  C   UNL     1       7.541  46.583  53.469  1.00  0.00     0.081 A 
ATOM      2  C   UNL     1       8.624  47.090  54.205  1.00  0.00     0.018 A 
ATOM      3  C   UNL     1       9.897  47.164  53.637  1.00  0.00     0.001 A 
ATOM      4  C   UNL     1      10.102  46.729  52.329  1.00  0.00     0.004 A 
ATOM      5  C   UNL     1       9.038  46.208  51.591  1.00  0.00     0.047 A 
ATOM      6  C   UNL     1       7.766  46.114  52.167  1.00  0.00     0.132 A 
ENDROOT
BRANCH   1   7
ATOM      7  C   UNL     1       6.217  46.533  54.150  1.00  0.00     0.255 C 
ATOM      8  N   UNL     1       5.640  45.297  54.308  1.00  0.00    -0.346 N 
ATOM      9  O   UNL     1       5.682  47.565  54.536  1.00  0.00    -0.269 OA
ATOM     10  H   UNL     1       6.147  44.470  54.014  1.00  0.00     0.164 HD
BRANCH   8  11
ATOM     11  C   UNL     1       4.355  45.156  54.954  1.00  0.00     0.177 C 
BRANCH  11  12
ATOM     12  C   UNL     1       3.265  45.132  53.939  1.00  0.00     0.111 A 
ATOM     13  N   UNL     1       2.315  46.087  53.941  1.00  0.00    -0.082 NA
ATOM     14  C   UNL     1       3.046  44.182  52.902  1.00  0.00     0.047 A 
ATOM     15  O   UNL     1       1.451  45.763  52.908  1.00  0.00    -0.356 OA
ATOM     16  C   UNL     1       3.669  43.020  52.411  1.00  0.00     0.014 A 
ATOM     17  C   UNL     1       1.888  44.631  52.288  1.00  0.00     0.167 A 
ATOM     18  C   UNL     1       3.082  42.357  51.316  1.00  0.00     0.001 A 
ATOM     19  C   UNL     1       1.278  44.005  51.206  1.00  0.00     0.051 A 
ATOM     20  C   UNL     1       1.908  42.842  50.727  1.00  0.00     0.004 A 
ENDBRANCH  11  12
ENDBRANCH   8  11
ENDBRANCH   1   7
BRANCH   6  21
ATOM     21  O   UNL     1       6.745  45.588  51.423  1.00  0.00    -0.492 OA
BRANCH  21  22
ATOM     22  C   UNL     1       7.267  44.854  50.303  1.00  0.00     0.233 C 
BRANCH  22  23
ATOM     23  C   UNL     1       6.288  43.775  49.963  1.00  0.00     0.027 C 
ATOM     24  C   UNL     1       6.483  42.908  48.743  1.00  0.00     0.007 C 
ATOM     25  C   UNL     1       6.657  42.321  50.118  1.00  0.00     0.007 C 
ENDBRANCH  22  23
ENDBRANCH  21  22
ENDBRANCH   6  21
TORSDOF 6
ENDMDL
MODEL 2
REMARK VINA RESULT:    -8.837      1.759      6.103
REMARK INTER + INTRA:         -13.548
REMARK INTER:                 -12.614
REMARK INTRA:                  -0.935
REMARK UNBOUND:                -1.612
REMARK SMILES O=C(NCc1noc2ccccc12)c1ccccc1OCC1CC1
REMARK SMILES IDX 14 1 15 2 16 3 17 4 18 5 19 6 2 7 3 8 1 9 4 11 5 12 6 13
REMARK SMILES IDX 13 14 7 15 12 16 8 17 11 18 9 19 10 20 20 21 21 22 22 23
REMARK SMILES IDX 23 24 24 25
REMARK H PARENT 3 10
ROOT
ATOM      1  C   UNL     1       4.937  43.322  51.226  1.00  0.00     0.081 A 
ATOM      2  C   UNL     1       6.104  43.239  50.449  1.00  0.00     0.018 A 
ATOM      3  C   UNL     1       6.264  42.212  49.517  1.00  0.00     0.001 A 
ATOM      4  C   UNL     1       5.264  41.255  49.356  1.00  0.00     0.004 A 
ATOM      5  C   UNL     1       4.106  41.317  50.134  1.00  0.00     0.047 A 
ATOM      6  C   UNL     1       3.954  42.334  51.083  1.00  0.00     0.132 A 
ENDROOT
BRANCH   1   7
ATOM      7  C   UNL     1       4.846  44.446  52.201  1.00  0.00     0.255 C 
ATOM      8  N   UNL     1       4.947  45.721  51.701  1.00  0.00    -0.346 N 
ATOM      9  O   UNL     1       4.693  44.216  53.395  1.00  0.00    -0.269 OA
ATOM     10  H   UNL     1       5.024  45.856  50.699  1.00  0.00     0.164 HD
BRANCH   8  11
ATOM     11  C   UNL     1       4.873  46.868  52.575  1.00  0.00     0.177 C 
BRANCH  11  12
ATOM     12  C   UNL     1       6.142  47.020  53.340  1.00  0.00     0.111 A 
ATOM     13  N   UNL     1       6.114  47.372  54.639  1.00  0.00    -0.082 NA
ATOM     14  C   UNL     1       7.477  46.854  52.874  1.00  0.00     0.047 A 
ATOM     15  O   UNL     1       7.438  47.453  55.038  1.00  0.00    -0.356 OA
ATOM     16  C   UNL     1       8.121  46.502  51.674  1.00  0.00     0.014 A 
ATOM     17  C   UNL     1       8.250  47.143  53.988  1.00  0.00     0.167 A 
ATOM     18  C   UNL     1       9.529  46.464  51.655  1.00  0.00     0.001 A 
ATOM     19  C   UNL     1       9.639  47.116  54.010  1.00  0.00     0.051 A 
ATOM     20  C   UNL     1      10.272  46.766  52.803  1.00  0.00     0.004 A 
ENDBRANCH  11  12
ENDBRANCH   8  11
ENDBRANCH   1   7
BRANCH   6  21
ATOM     21  O   UNL     1       2.813  42.362  51.838  1.00  0.00    -0.492 OA
BRANCH  21  22
ATOM     22  C   UNL     1       1.679  42.699  51.023  1.00  0.00     0.233 C 
BRANCH  22  23
ATOM     23  C   UNL     1       1.404  44.159  51.199  1.00  0.00     0.027 C 
ATOM     24  C   UNL     1       0.039  44.645  51.620  1.00  0.00     0.007 C 
ATOM     25  C   UNL     1       1.201  44.747  52.572  1.00  0.00     0.007 C 
ENDBRANCH  22  23
ENDBRANCH  21  22
ENDBRANCH   6  21
TORSDOF 6
ENDMDL
MODEL 3
REMARK VINA RESULT:    -8.783      1.230      1.501
REMARK INTER + INTRA:         -13.476
REMARK INTER:                 -12.120
REMARK INTRA:                  -1.355
REMARK UNBOUND:                -1.612
REMARK SMILES O=C(NCc1noc2ccccc12)c1ccccc1OCC1CC1
REMARK SMILES IDX 14 1 15 2 16 3 17 4 18 5 19 6 2 7 3 8 1 9 4 11 5 12 6 13
REMARK SMILES IDX 13 14 7 15 12 16 8 17 11 18 9 19 10 20 20 21 21 22 22 23
REMARK SMILES IDX 23 24 24 25
REMARK H PARENT 3 10
ROOT
ATOM      1  C   UNL     1       7.481  46.969  53.151  1.00  0.00     0.081 A 
ATOM      2  C   UNL     1       8.534  47.299  54.020  1.00  0.00     0.018 A 
ATOM      3  C   UNL     1       9.860  47.062  53.651  1.00  0.00     0.001 A 
ATOM      4  C   UNL     1      10.147  46.491  52.413  1.00  0.00     0.004 A 
ATOM      5  C   UNL     1       9.108  46.143  51.546  1.00  0.00     0.047 A 
ATOM      6  C   UNL     1       7.779  46.360  51.924  1.00  0.00     0.132 A 
ENDROOT
BRANCH   1   7
ATOM      7  C   UNL     1       6.096  47.248  53.622  1.00  0.00     0.255 C 
ATOM      8  N   UNL     1       5.083  47.121  52.703  1.00  0.00    -0.346 N 
ATOM      9  O   UNL     1       5.894  47.582  54.783  1.00  0.00    -0.269 OA
ATOM     10  H   UNL     1       5.299  46.793  51.768  1.00  0.00     0.164 HD
BRANCH   8  11
ATOM     11  C   UNL     1       3.710  47.375  53.073  1.00  0.00     0.177 C 
BRANCH  11  12
ATOM     12  C   UNL     1       3.043  46.110  53.490  1.00  0.00     0.111 A 
ATOM     13  N   UNL     1       2.997  45.764  54.791  1.00  0.00    -0.082 NA
ATOM     14  C   UNL     1       2.414  45.133  52.668  1.00  0.00     0.047 A 
ATOM     15  O   UNL     1       2.345  44.542  54.834  1.00  0.00    -0.356 OA
ATOM     16  C   UNL     1       2.148  44.943  51.299  1.00  0.00     0.014 A 
ATOM     17  C   UNL     1       1.996  44.168  53.571  1.00  0.00     0.167 A 
ATOM     18  C   UNL     1       1.471  43.773  50.904  1.00  0.00     0.001 A 
ATOM     19  C   UNL     1       1.326  43.001  53.221  1.00  0.00     0.051 A 
ATOM     20  C   UNL     1       1.069  42.821  51.849  1.00  0.00     0.004 A 
ENDBRANCH  11  12
ENDBRANCH   8  11
ENDBRANCH   1   7
BRANCH   6  21
ATOM     21  O   UNL     1       6.783  45.998  51.058  1.00  0.00    -0.492 OA
BRANCH  21  22
ATOM     22  C   UNL     1       7.199  44.886  50.250  1.00  0.00     0.233 C 
BRANCH  22  23
ATOM     23  C   UNL     1       6.003  44.020  50.006  1.00  0.00     0.027 C 
ATOM     24  C   UNL     1       6.087  42.522  50.161  1.00  0.00     0.007 C 
ATOM     25  C   UNL     1       5.298  43.337  51.151  1.00  0.00     0.007 C 
ENDBRANCH  22  23
ENDBRANCH  21  22
ENDBRANCH   6  21
TORSDOF 6
ENDMDL
MODEL 4
REMARK VINA RESULT:    -8.557      2.029      4.052
REMARK INTER + INTRA:         -13.171
REMARK INTER:                 -11.871
REMARK INTRA:                  -1.300
REMARK UNBOUND:                -1.612
REMARK SMILES O=C(NCc1noc2ccccc12)c1ccccc1OCC1CC1
REMARK SMILES IDX 14 1 15 2 16 3 17 4 18 5 19 6 2 7 3 8 1 9 4 11 5 12 6 13
REMARK SMILES IDX 13 14 7 15 12 16 8 17 11 18 9 19 10 20 20 21 21 22 22 23
REMARK SMILES IDX 23 24 24 25
REMARK H PARENT 3 10
ROOT
ATOM      1  C   UNL     1       6.232  45.081  50.623  1.00  0.00     0.081 A 
ATOM      2  C   UNL     1       5.787  43.866  50.078  1.00  0.00     0.018 A 
ATOM      3  C   UNL     1       6.683  42.999  49.450  1.00  0.00     0.001 A 
ATOM      4  C   UNL     1       8.031  43.339  49.355  1.00  0.00     0.004 A 
ATOM      5  C   UNL     1       8.484  44.552  49.878  1.00  0.00     0.047 A 
ATOM      6  C   UNL     1       7.583  45.431  50.489  1.00  0.00     0.132 A 
ENDROOT
BRANCH   1   7
ATOM      7  C   UNL     1       5.212  45.952  51.272  1.00  0.00     0.255 C 
ATOM      8  N   UNL     1       5.461  46.358  52.560  1.00  0.00    -0.346 N 
ATOM      9  O   UNL     1       4.198  46.273  50.664  1.00  0.00    -0.269 OA
ATOM     10  H   UNL     1       6.339  46.104  52.999  1.00  0.00     0.164 HD
BRANCH   8  11
ATOM     11  C   UNL     1       4.525  47.201  53.266  1.00  0.00     0.177 C 
BRANCH  11  12
ATOM     12  C   UNL     1       3.571  46.370  54.052  1.00  0.00     0.111 A 
ATOM     13  N   UNL     1       3.879  45.985  55.305  1.00  0.00    -0.082 NA
ATOM     14  C   UNL     1       2.299  45.872  53.652  1.00  0.00     0.047 A 
ATOM     15  O   UNL     1       2.812  45.214  55.738  1.00  0.00    -0.356 OA
ATOM     16  C   UNL     1       1.467  45.938  52.519  1.00  0.00     0.014 A 
ATOM     17  C   UNL     1       1.870  45.149  54.755  1.00  0.00     0.167 A 
ATOM     18  C   UNL     1       0.234  45.259  52.552  1.00  0.00     0.001 A 
ATOM     19  C   UNL     1       0.661  44.466  54.826  1.00  0.00     0.051 A 
ATOM     20  C   UNL     1      -0.159  44.537  53.686  1.00  0.00     0.004 A 
ENDBRANCH  11  12
ENDBRANCH   8  11
ENDBRANCH   1   7
BRANCH   6  21
ATOM     21  O   UNL     1       8.055  46.617  50.982  1.00  0.00    -0.492 OA
BRANCH  21  22
ATOM     22  C   UNL     1       9.334  46.428  51.607  1.00  0.00     0.233 C 
BRANCH  22  23
ATOM     23  C   UNL     1       9.123  46.388  53.088  1.00  0.00     0.027 C 
ATOM     24  C   UNL     1      10.043  47.133  54.022  1.00  0.00     0.007 C 
ATOM     25  C   UNL     1       8.627  47.602  53.830  1.00  0.00     0.007 C 
ENDBRANCH  22  23
ENDBRANCH  21  22
ENDBRANCH   6  21
TORSDOF 6
ENDMDL
MODEL 5
REMARK VINA RESULT:    -8.529      1.702      6.316
REMARK INTER + INTRA:         -13.132
REMARK INTER:                 -11.865
REMARK INTRA:                  -1.268
REMARK UNBOUND:                -1.612
REMARK SMILES O=C(NCc1noc2ccccc12)c1ccccc1OCC1CC1
REMARK SMILES IDX 14 1 15 2 16 3 17 4 18 5 19 6 2 7 3 8 1 9 4 11 5 12 6 13
REMARK SMILES IDX 13 14 7 15 12 16 8 17 11 18 9 19 10 20 20 21 21 22 22 23
REMARK SMILES IDX 23 24 24 25
REMARK H PARENT 3 10
ROOT
ATOM      1  C   UNL     1       1.938  44.893  53.031  1.00  0.00     0.081 A 
ATOM      2  C   UNL     1       1.136  45.016  54.177  1.00  0.00     0.018 A 
ATOM      3  C   UNL     1       0.299  43.971  54.573  1.00  0.00     0.001 A 
ATOM      4  C   UNL     1       0.251  42.795  53.826  1.00  0.00     0.004 A 
ATOM      5  C   UNL     1       1.032  42.666  52.676  1.00  0.00     0.047 A 
ATOM      6  C   UNL     1       1.855  43.721  52.267  1.00  0.00     0.132 A 
ENDROOT
BRANCH   1   7
ATOM      7  C   UNL     1       2.800  46.055  52.674  1.00  0.00     0.255 C 
ATOM      8  N   UNL     1       4.109  45.791  52.355  1.00  0.00    -0.346 N 
ATOM      9  O   UNL     1       2.338  47.190  52.679  1.00  0.00    -0.269 OA
ATOM     10  H   UNL     1       4.427  44.829  52.318  1.00  0.00     0.164 HD
BRANCH   8  11
ATOM     11  C   UNL     1       5.015  46.859  51.999  1.00  0.00     0.177 C 
BRANCH  11  12
ATOM     12  C   UNL     1       6.088  46.990  53.023  1.00  0.00     0.111 A 
ATOM     13  N   UNL     1       5.773  47.230  54.310  1.00  0.00    -0.082 NA
ATOM     14  C   UNL     1       7.498  46.908  52.838  1.00  0.00     0.047 A 
ATOM     15  O   UNL     1       6.980  47.323  54.985  1.00  0.00    -0.356 OA
ATOM     16  C   UNL     1       8.394  46.680  51.779  1.00  0.00     0.014 A 
ATOM     17  C   UNL     1       8.006  47.129  54.109  1.00  0.00     0.167 A 
ATOM     18  C   UNL     1       9.775  46.691  52.054  1.00  0.00     0.001 A 
ATOM     19  C   UNL     1       9.361  47.148  54.421  1.00  0.00     0.051 A 
ATOM     20  C   UNL     1      10.247  46.922  53.353  1.00  0.00     0.004 A 
ENDBRANCH  11  12
ENDBRANCH   8  11
ENDBRANCH   1   7
BRANCH   6  21
ATOM     21  O   UNL     1       2.601  43.569  51.129  1.00  0.00    -0.492 OA
BRANCH  21  22
ATOM     22  C   UNL     1       2.949  42.189  50.937  1.00  0.00     0.233 C 
BRANCH  22  23
ATOM     23  C   UNL     1       4.417  42.045  51.187  1.00  0.00     0.027 C 
ATOM     24  C   UNL     1       5.346  41.568  50.098  1.00  0.00     0.007 C 
ATOM     25  C   UNL     1       5.404  42.998  50.563  1.00  0.00     0.007 C 
ENDBRANCH  22  23
ENDBRANCH  21  22
ENDBRANCH   6  21
TORSDOF 6
ENDMDL
MODEL 6
REMARK VINA RESULT:    -8.464      1.699      6.315
REMARK INTER + INTRA:         -13.044
REMARK INTER:                 -11.914
REMARK INTRA:                  -1.130
REMARK UNBOUND:                -1.612
REMARK SMILES O=C(NCc1noc2ccccc12)c1ccccc1OCC1CC1
REMARK SMILES IDX 14 1 15 2 16 3 17 4 18 5 19 6 2 7 3 8 1 9 4 11 5 12 6 13
REMARK SMILES IDX 13 14 7 15 12 16 8 17 11 18 9 19 10 20 20 21 21 22 22 23
REMARK SMILES IDX 23 24 24 25
REMARK H PARENT 3 10
ROOT
ATOM      1  C   UNL     1       1.863  45.001  53.391  1.00  0.00     0.081 A 
ATOM      2  C   UNL     1       0.530  45.264  53.744  1.00  0.00     0.018 A 
ATOM      3  C   UNL     1      -0.388  44.220  53.881  1.00  0.00     0.001 A 
ATOM      4  C   UNL     1       0.016  42.905  53.662  1.00  0.00     0.004 A 
ATOM      5  C   UNL     1       1.335  42.631  53.294  1.00  0.00     0.047 A 
ATOM      6  C   UNL     1       2.250  43.678  53.136  1.00  0.00     0.132 A 
ENDROOT
BRANCH   1   7
ATOM      7  C   UNL     1       2.778  46.170  53.261  1.00  0.00     0.255 C 
ATOM      8  N   UNL     1       4.026  46.056  53.821  1.00  0.00    -0.346 N 
ATOM      9  O   UNL     1       2.406  47.183  52.679  1.00  0.00    -0.269 OA
ATOM     10  H   UNL     1       4.300  45.178  54.248  1.00  0.00     0.164 HD
BRANCH   8  11
ATOM     11  C   UNL     1       4.975  47.142  53.744  1.00  0.00     0.177 C 
BRANCH  11  12
ATOM     12  C   UNL     1       6.103  46.782  52.841  1.00  0.00     0.111 A 
ATOM     13  N   UNL     1       5.858  46.285  51.613  1.00  0.00    -0.082 NA
ATOM     14  C   UNL     1       7.501  46.873  53.096  1.00  0.00     0.047 A 
ATOM     15  O   UNL     1       7.099  46.031  51.052  1.00  0.00    -0.356 OA
ATOM     16  C   UNL     1       8.339  47.300  54.142  1.00  0.00     0.014 A 
ATOM     17  C   UNL     1       8.077  46.384  51.934  1.00  0.00     0.167 A 
ATOM     18  C   UNL     1       9.733  47.206  53.965  1.00  0.00     0.001 A 
ATOM     19  C   UNL     1       9.447  46.276  51.721  1.00  0.00     0.051 A 
ATOM     20  C   UNL     1      10.274  46.702  52.775  1.00  0.00     0.004 A 
ENDBRANCH  11  12
ENDBRANCH   8  11
ENDBRANCH   1   7
BRANCH   6  21
ATOM     21  O   UNL     1       3.533  43.379  52.765  1.00  0.00    -0.492 OA
BRANCH  21  22
ATOM     22  C   UNL     1       3.601  43.130  51.352  1.00  0.00     0.233 C 
BRANCH  22  23
ATOM     23  C   UNL     1       4.192  41.771  51.150  1.00  0.00     0.027 C 
ATOM     24  C   UNL     1       3.881  40.965  49.914  1.00  0.00     0.007 C 
ATOM     25  C   UNL     1       5.258  41.539  50.109  1.00  0.00     0.007 C 
ENDBRANCH  22  23
ENDBRANCH  21  22
ENDBRANCH   6  21
TORSDOF 6
ENDMDL
MODEL 7
REMARK VINA RESULT:    -8.448      1.544      1.947
REMARK INTER + INTRA:         -13.023
REMARK INTER:                 -11.940
REMARK INTRA:                  -1.083
REMARK UNBOUND:                -1.612
REMARK SMILES O=C(NCc1noc2ccccc12)c1ccccc1OCC1CC1
REMARK SMILES IDX 14 1 15 2 16 3 17 4 18 5 19 6 2 7 3 8 1 9 4 11 5 12 6 13
REMARK SMILES IDX 13 14 7 15 12 16 8 17 11 18 9 19 10 20 20 21 21 22 22 23
REMARK SMILES IDX 23 24 24 25
REMARK H PARENT 3 10
ROOT
ATOM      1  C   UNL     1       7.567  46.970  53.190  1.00  0.00     0.081 A 
ATOM      2  C   UNL     1       8.608  47.318  54.065  1.00  0.00     0.018 A 
ATOM      3  C   UNL     1       9.941  47.122  53.697  1.00  0.00     0.001 A 
ATOM      4  C   UNL     1      10.246  46.572  52.454  1.00  0.00     0.004 A 
ATOM      5  C   UNL     1       9.220  46.206  51.580  1.00  0.00     0.047 A 
ATOM      6  C   UNL     1       7.884  46.383  51.957  1.00  0.00     0.132 A 
ENDROOT
BRANCH   1   7
ATOM      7  C   UNL     1       6.173  47.207  53.660  1.00  0.00     0.255 C 
ATOM      8  N   UNL     1       5.181  47.197  52.710  1.00  0.00    -0.346 N 
ATOM      9  O   UNL     1       5.948  47.406  54.847  1.00  0.00    -0.269 OA
ATOM     10  H   UNL     1       5.416  46.978  51.748  1.00  0.00     0.164 HD
BRANCH   8  11
ATOM     11  C   UNL     1       3.802  47.420  53.078  1.00  0.00     0.177 C 
BRANCH  11  12
ATOM     12  C   UNL     1       2.919  46.429  52.403  1.00  0.00     0.111 A 
ATOM     13  N   UNL     1       2.969  46.273  51.066  1.00  0.00    -0.082 NA
ATOM     14  C   UNL     1       1.949  45.567  52.991  1.00  0.00     0.047 A 
ATOM     15  O   UNL     1       2.019  45.313  50.760  1.00  0.00    -0.356 OA
ATOM     16  C   UNL     1       1.464  45.277  54.279  1.00  0.00     0.014 A 
ATOM     17  C   UNL     1       1.413  44.891  51.906  1.00  0.00     0.167 A 
ATOM     18  C   UNL     1       0.448  44.311  54.411  1.00  0.00     0.001 A 
ATOM     19  C   UNL     1       0.410  43.932  51.995  1.00  0.00     0.051 A 
ATOM     20  C   UNL     1      -0.069  43.653  53.288  1.00  0.00     0.004 A 
ENDBRANCH  11  12
ENDBRANCH   8  11
ENDBRANCH   1   7
BRANCH   6  21
ATOM     21  O   UNL     1       6.900  46.004  51.084  1.00  0.00    -0.492 OA
BRANCH  21  22
ATOM     22  C   UNL     1       7.349  44.914  50.263  1.00  0.00     0.233 C 
BRANCH  22  23
ATOM     23  C   UNL     1       6.158  44.081  49.910  1.00  0.00     0.027 C 
ATOM     24  C   UNL     1       6.171  42.586  50.113  1.00  0.00     0.007 C 
ATOM     25  C   UNL     1       5.307  43.456  50.986  1.00  0.00     0.007 C 
ENDBRANCH  22  23
ENDBRANCH  21  22
ENDBRANCH   6  21
TORSDOF 6
ENDMDL
MODEL 8
REMARK VINA RESULT:    -8.275      3.285      5.676
REMARK INTER + INTRA:         -12.789
REMARK INTER:                 -11.778
REMARK INTRA:                  -1.011
REMARK UNBOUND:                -1.612
REMARK SMILES O=C(NCc1noc2ccccc12)c1ccccc1OCC1CC1
REMARK SMILES IDX 14 1 15 2 16 3 17 4 18 5 19 6 2 7 3 8 1 9 4 11 5 12 6 13
REMARK SMILES IDX 13 14 7 15 12 16 8 17 11 18 9 19 10 20 20 21 21 22 22 23
REMARK SMILES IDX 23 24 24 25
REMARK H PARENT 3 10
ROOT
ATOM      1  C   UNL     1       5.009  45.275  51.493  1.00  0.00     0.081 A 
ATOM      2  C   UNL     1       3.863  45.810  50.885  1.00  0.00     0.018 A 
ATOM      3  C   UNL     1       3.154  46.848  51.493  1.00  0.00     0.001 A 
ATOM      4  C   UNL     1       3.581  47.358  52.718  1.00  0.00     0.004 A 
ATOM      5  C   UNL     1       4.711  46.824  53.342  1.00  0.00     0.047 A 
ATOM      6  C   UNL     1       5.408  45.770  52.743  1.00  0.00     0.132 A 
ENDROOT
BRANCH   1   7
ATOM      7  C   UNL     1       5.706  44.166  50.782  1.00  0.00     0.255 C 
ATOM      8  N   UNL     1       5.150  42.914  50.876  1.00  0.00    -0.346 N 
ATOM      9  O   UNL     1       6.733  44.387  50.152  1.00  0.00    -0.269 OA
ATOM     10  H   UNL     1       4.271  42.796  51.369  1.00  0.00     0.164 HD
BRANCH   8  11
ATOM     11  C   UNL     1       5.760  41.781  50.219  1.00  0.00     0.177 C 
BRANCH  11  12
ATOM     12  C   UNL     1       4.802  41.157  49.265  1.00  0.00     0.111 A 
ATOM     13  N   UNL     1       3.772  40.420  49.721  1.00  0.00    -0.082 NA
ATOM     14  C   UNL     1       4.815  41.210  47.842  1.00  0.00     0.047 A 
ATOM     15  O   UNL     1       3.102  39.968  48.596  1.00  0.00    -0.356 OA
ATOM     16  C   UNL     1       5.597  41.800  46.832  1.00  0.00     0.014 A 
ATOM     17  C   UNL     1       3.721  40.440  47.477  1.00  0.00     0.167 A 
ATOM     18  C   UNL     1       5.236  41.578  45.489  1.00  0.00     0.001 A 
ATOM     19  C   UNL     1       3.333  40.198  46.165  1.00  0.00     0.051 A 
ATOM     20  C   UNL     1       4.124  40.790  45.164  1.00  0.00     0.004 A 
ENDBRANCH  11  12
ENDBRANCH   8  11
ENDBRANCH   1   7
BRANCH   6  21
ATOM     21  O   UNL     1       6.505  45.260  53.384  1.00  0.00    -0.492 OA
BRANCH  21  22
ATOM     22  C   UNL     1       7.417  46.314  53.734  1.00  0.00     0.233 C 
BRANCH  22  23
ATOM     23  C   UNL     1       8.502  46.346  52.705  1.00  0.00     0.027 C 
ATOM     24  C   UNL     1       8.784  47.600  51.915  1.00  0.00     0.007 C 
ATOM     25  C   UNL     1       9.771  47.123  52.945  1.00  0.00     0.007 C 
ENDBRANCH  22  23
ENDBRANCH  21  22
ENDBRANCH   6  21
TORSDOF 6
ENDMDL
MODEL 9
REMARK VINA RESULT:    -8.162      1.828      5.792
REMARK INTER + INTRA:         -12.636
REMARK INTER:                 -11.081
REMARK INTRA:                  -1.555
REMARK UNBOUND:                -1.612
REMARK SMILES O=C(NCc1noc2ccccc12)c1ccccc1OCC1CC1
REMARK SMILES IDX 14 1 15 2 16 3 17 4 18 5 19 6 2 7 3 8 1 9 4 11 5 12 6 13
REMARK SMILES IDX 13 14 7 15 12 16 8 17 11 18 9 19 10 20 20 21 21 22 22 23
REMARK SMILES IDX 23 24 24 25
REMARK H PARENT 3 10
ROOT
ATOM      1  C   UNL     1       1.913  44.903  53.537  1.00  0.00     0.081 A 
ATOM      2  C   UNL     1       0.589  44.990  53.996  1.00  0.00     0.018 A 
ATOM      3  C   UNL     1      -0.241  43.867  53.990  1.00  0.00     0.001 A 
ATOM      4  C   UNL     1       0.242  42.647  53.521  1.00  0.00     0.004 A 
ATOM      5  C   UNL     1       1.553  42.551  53.046  1.00  0.00     0.047 A 
ATOM      6  C   UNL     1       2.377  43.680  53.032  1.00  0.00     0.132 A 
ENDROOT
BRANCH   1   7
ATOM      7  C   UNL     1       2.730  46.148  53.572  1.00  0.00     0.255 C 
ATOM      8  N   UNL     1       3.813  46.164  54.416  1.00  0.00    -0.346 N 
ATOM      9  O   UNL     1       2.425  47.107  52.873  1.00  0.00    -0.269 OA
ATOM     10  H   UNL     1       4.050  45.326  54.936  1.00  0.00     0.164 HD
BRANCH   8  11
ATOM     11  C   UNL     1       4.658  47.331  54.515  1.00  0.00     0.177 C 
BRANCH  11  12
ATOM     12  C   UNL     1       6.027  47.023  54.016  1.00  0.00     0.111 A 
ATOM     13  N   UNL     1       7.104  47.272  54.786  1.00  0.00    -0.082 NA
ATOM     14  C   UNL     1       6.404  46.482  52.754  1.00  0.00     0.047 A 
ATOM     15  O   UNL     1       8.205  46.906  54.029  1.00  0.00    -0.356 OA
ATOM     16  C   UNL     1       5.765  46.033  51.584  1.00  0.00     0.014 A 
ATOM     17  C   UNL     1       7.788  46.434  52.820  1.00  0.00     0.167 A 
ATOM     18  C   UNL     1       6.561  45.558  50.524  1.00  0.00     0.001 A 
ATOM     19  C   UNL     1       8.609  45.972  51.797  1.00  0.00     0.051 A 
ATOM     20  C   UNL     1       7.958  45.530  50.631  1.00  0.00     0.004 A 
ENDBRANCH  11  12
ENDBRANCH   8  11
ENDBRANCH   1   7
BRANCH   6  21
ATOM     21  O   UNL     1       3.653  43.557  52.551  1.00  0.00    -0.492 OA
BRANCH  21  22
ATOM     22  C   UNL     1       3.858  42.244  52.005  1.00  0.00     0.233 C 
BRANCH  22  23
ATOM     23  C   UNL     1       4.466  42.399  50.647  1.00  0.00     0.027 C 
ATOM     24  C   UNL     1       5.840  41.853  50.346  1.00  0.00     0.007 C 
ATOM     25  C   UNL     1       4.624  41.211  49.732  1.00  0.00     0.007 C 
ENDBRANCH  22  23
ENDBRANCH  21  22
ENDBRANCH   6  21
TORSDOF 6
ENDMDL
MODEL 10
REMARK VINA RESULT:    -8.066      1.979      4.222
REMARK INTER + INTRA:         -12.507
REMARK INTER:                 -11.650
REMARK INTRA:                  -0.857
REMARK UNBOUND:                -1.612
REMARK SMILES O=C(NCc1noc2ccccc12)c1ccccc1OCC1CC1
REMARK SMILES IDX 14 1 15 2 16 3 17 4 18 5 19 6 2 7 3 8 1 9 4 11 5 12 6 13
REMARK SMILES IDX 13 14 7 15 12 16 8 17 11 18 9 19 10 20 20 21 21 22 22 23
REMARK SMILES IDX 23 24 24 25
REMARK H PARENT 3 10
ROOT
ATOM      1  C   UNL     1       6.158  44.607  51.230  1.00  0.00     0.081 A 
ATOM      2  C   UNL     1       5.758  43.385  50.666  1.00  0.00     0.018 A 
ATOM      3  C   UNL     1       6.477  42.822  49.609  1.00  0.00     0.001 A 
ATOM      4  C   UNL     1       7.598  43.475  49.103  1.00  0.00     0.004 A 
ATOM      5  C   UNL     1       7.997  44.700  49.644  1.00  0.00     0.047 A 
ATOM      6  C   UNL     1       7.265  45.274  50.689  1.00  0.00     0.132 A 
ENDROOT
BRANCH   1   7
ATOM      7  C   UNL     1       5.335  45.142  52.351  1.00  0.00     0.255 C 
ATOM      8  N   UNL     1       4.579  46.260  52.096  1.00  0.00    -0.346 N 
ATOM      9  O   UNL     1       5.354  44.594  53.447  1.00  0.00    -0.269 OA
ATOM     10  H   UNL     1       4.562  46.645  51.158  1.00  0.00     0.164 HD
BRANCH   8  11
ATOM     11  C   UNL     1       3.755  46.847  53.126  1.00  0.00     0.177 C 
BRANCH  11  12
ATOM     12  C   UNL     1       2.431  46.166  53.181  1.00  0.00     0.111 A 
ATOM     13  N   UNL     1       1.745  45.923  52.048  1.00  0.00    -0.082 NA
ATOM     14  C   UNL     1       1.721  45.711  54.328  1.00  0.00     0.047 A 
ATOM     15  O   UNL     1       0.564  45.315  52.444  1.00  0.00    -0.356 OA
ATOM     16  C   UNL     1       1.913  45.675  55.722  1.00  0.00     0.014 A 
ATOM     17  C   UNL     1       0.551  45.187  53.801  1.00  0.00     0.167 A 
ATOM     18  C   UNL     1       0.902  45.111  56.523  1.00  0.00     0.001 A 
ATOM     19  C   UNL     1      -0.469  44.622  54.558  1.00  0.00     0.051 A 
ATOM     20  C   UNL     1      -0.267  44.595  55.949  1.00  0.00     0.004 A 
ENDBRANCH  11  12
ENDBRANCH   8  11
ENDBRANCH   1   7
BRANCH   6  21
ATOM     21  O   UNL     1       7.674  46.480  51.191  1.00  0.00    -0.492 OA
BRANCH  21  22
ATOM     22  C   UNL     1       8.990  46.368  51.757  1.00  0.00     0.233 C 
BRANCH  22  23
ATOM     23  C   UNL     1       9.117  47.395  52.837  1.00  0.00     0.027 C 
ATOM     24  C   UNL     1       8.506  47.170  54.197  1.00  0.00     0.007 C 
ATOM     25  C   UNL     1      10.002  47.153  54.033  1.00  0.00     0.007 C 
ENDBRANCH  22  23
ENDBRANCH  21  22
ENDBRANCH   6  21
TORSDOF 6
ENDMDL
