MODEL 1
REMARK VINA RESULT:    -8.564      0.000      0.000
REMARK INTER + INTRA:         -11.346
REMARK INTER:                 -10.566
REMARK INTRA:                  -0.780
REMARK UNBOUND:                -0.780
REMARK SMILES COC(=O)C1CCCC[NH+]1Cc1nc2ccccc2c(=O)[nH]1
REMARK SMILES IDX 5 1 6 2 7 3 8 4 9 5 10 6 3 8 4 9 2 10 1 11 11 12 12 13 13 14
REMARK SMILES IDX 22 15 14 16 20 17 15 18 19 19 16 20 18 21 17 22 21 24
REMARK H PARENT 10 7 22 23
ROOT
ATOM      1  C   UNL     1       1.773  45.784  52.982  1.00  0.00     0.295 C 
ATOM      2  C   UNL     1       0.653  44.945  53.594  1.00  0.00     0.078 C 
ATOM      3  C   UNL     1       0.384  45.313  55.050  1.00  0.00     0.013 C 
ATOM      4  C   UNL     1       1.659  45.549  55.859  1.00  0.00     0.062 C 
ATOM      5  C   UNL     1       2.886  44.972  55.178  1.00  0.00     0.263 C 
ATOM      6  N   UNL     1       3.082  45.618  53.835  1.00  0.00    -0.317 N 
ATOM      7  H   UNL     1       3.647  44.960  53.266  1.00  0.00     0.349 HD
ENDROOT
BRANCH   1   8
ATOM      8  C   UNL     1       2.052  45.317  51.551  1.00  0.00     0.364 C 
ATOM      9  O   UNL     1       2.698  46.021  50.777  1.00  0.00    -0.245 OA
BRANCH   8  10
ATOM     10  O   UNL     1       1.514  44.105  51.290  1.00  0.00    -0.465 OA
ATOM     11  C   UNL     1       2.472  43.046  51.192  1.00  0.00     0.282 C 
ENDBRANCH   8  10
ENDBRANCH   1   8
BRANCH   6  12
ATOM     12  C   UNL     1       3.913  46.905  53.902  1.00  0.00     0.339 C 
BRANCH  12  13
ATOM     13  C   UNL     1       5.340  46.717  53.393  1.00  0.00     0.165 C 
ATOM     14  N   UNL     1       6.330  47.117  54.124  1.00  0.00    -0.229 NA
ATOM     15  N   UNL     1       5.492  46.178  52.145  1.00  0.00    -0.305 N 
ATOM     16  C   UNL     1       7.632  46.968  53.609  1.00  0.00     0.078 A 
ATOM     17  C   UNL     1       6.718  45.999  51.552  1.00  0.00     0.258 C 
ATOM     18  C   UNL     1       8.717  47.383  54.384  1.00  0.00     0.029 A 
ATOM     19  C   UNL     1       7.882  46.429  52.342  1.00  0.00     0.065 A 
ATOM     20  C   UNL     1      10.022  47.261  53.896  1.00  0.00     0.002 A 
ATOM     21  C   UNL     1       9.181  46.303  51.845  1.00  0.00     0.016 A 
ATOM     22  C   UNL     1      10.253  46.723  52.629  1.00  0.00     0.001 A 
ATOM     23  H   UNL     1       4.720  45.855  51.578  1.00  0.00     0.171 HD
ATOM     24  O   UNL     1       6.815  45.509  50.435  1.00  0.00    -0.269 OA
ENDBRANCH  12  13
ENDBRANCH   6  12
TORSDOF 4
ENDMDL
MODEL 2
REMARK VINA RESULT:    -8.347      1.132      1.383
REMARK INTER + INTRA:         -11.079
REMARK INTER:                 -10.278
REMARK INTRA:                  -0.801
REMARK UNBOUND:                -0.780
REMARK SMILES COC(=O)C1CCCC[NH+]1Cc1nc2ccccc2c(=O)[nH]1
REMARK SMILES IDX 5 1 6 2 7 3 8 4 9 5 10 6 3 8 4 9 2 10 1 11 11 12 12 13 13 14
REMARK SMILES IDX 22 15 14 16 20 17 15 18 19 19 16 20 18 21 17 22 21 24
REMARK H PARENT 10 7 22 23
ROOT
ATOM      1  C   UNL     1       2.145  44.236  52.676  1.00  0.00     0.295 C 
ATOM      2  C   UNL     1       1.158  43.532  53.607  1.00  0.00     0.078 C 
ATOM      3  C   UNL     1       0.596  44.471  54.670  1.00  0.00     0.013 C 
ATOM      4  C   UNL     1       1.648  45.401  55.272  1.00  0.00     0.062 C 
ATOM      5  C   UNL     1       3.062  44.920  55.002  1.00  0.00     0.263 C 
ATOM      6  N   UNL     1       3.312  44.862  53.521  1.00  0.00    -0.317 N 
ATOM      7  H   UNL     1       4.088  44.189  53.375  1.00  0.00     0.349 HD
ENDROOT
BRANCH   1   8
ATOM      8  C   UNL     1       2.734  43.229  51.685  1.00  0.00     0.364 C 
ATOM      9  O   UNL     1       2.018  42.677  50.852  1.00  0.00    -0.245 OA
BRANCH   8  10
ATOM     10  O   UNL     1       4.063  43.052  51.859  1.00  0.00    -0.465 OA
ATOM     11  C   UNL     1       4.688  42.261  50.843  1.00  0.00     0.282 C 
ENDBRANCH   8  10
ENDBRANCH   1   8
BRANCH   6  12
ATOM     12  C   UNL     1       3.816  46.188  52.942  1.00  0.00     0.339 C 
BRANCH  12  13
ATOM     13  C   UNL     1       5.323  46.194  52.695  1.00  0.00     0.165 C 
ATOM     14  N   UNL     1       6.109  46.696  53.592  1.00  0.00    -0.229 NA
ATOM     15  N   UNL     1       5.760  45.710  51.493  1.00  0.00    -0.305 N 
ATOM     16  C   UNL     1       7.490  46.724  53.317  1.00  0.00     0.078 A 
ATOM     17  C   UNL     1       7.085  45.700  51.127  1.00  0.00     0.258 C 
ATOM     18  C   UNL     1       8.359  47.252  54.273  1.00  0.00     0.029 A 
ATOM     19  C   UNL     1       8.026  46.253  52.113  1.00  0.00     0.065 A 
ATOM     20  C   UNL     1       9.734  47.307  54.026  1.00  0.00     0.002 A 
ATOM     21  C   UNL     1       9.398  46.304  51.855  1.00  0.00     0.016 A 
ATOM     22  C   UNL     1      10.252  46.835  52.819  1.00  0.00     0.001 A 
ATOM     23  H   UNL     1       5.148  45.307  50.796  1.00  0.00     0.171 HD
ATOM     24  O   UNL     1       7.438  45.256  50.045  1.00  0.00    -0.269 OA
ENDBRANCH  12  13
ENDBRANCH   6  12
TORSDOF 4
ENDMDL
MODEL 3
REMARK VINA RESULT:    -8.204      1.848      2.850
REMARK INTER + INTRA:         -10.903
REMARK INTER:                 -10.401
REMARK INTRA:                  -0.502
REMARK UNBOUND:                -0.780
REMARK SMILES COC(=O)C1CCCC[NH+]1Cc1nc2ccccc2c(=O)[nH]1
REMARK SMILES IDX 5 1 6 2 7 3 8 4 9 5 10 6 3 8 4 9 2 10 1 11 11 12 12 13 13 14
REMARK SMILES IDX 22 15 14 16 20 17 15 18 19 19 16 20 18 21 17 22 21 24
REMARK H PARENT 10 7 22 23
ROOT
ATOM      1  C   UNL     1       3.648  45.119  53.648  1.00  0.00     0.295 C 
ATOM      2  C   UNL     1       2.997  43.866  53.064  1.00  0.00     0.078 C 
ATOM      3  C   UNL     1       2.971  43.886  51.539  1.00  0.00     0.013 C 
ATOM      4  C   UNL     1       2.604  45.251  50.958  1.00  0.00     0.062 C 
ATOM      5  C   UNL     1       1.950  46.155  51.986  1.00  0.00     0.263 C 
ATOM      6  N   UNL     1       2.891  46.396  53.134  1.00  0.00    -0.317 N 
ATOM      7  H   UNL     1       2.307  46.661  53.949  1.00  0.00     0.349 HD
ENDROOT
BRANCH   1   8
ATOM      8  C   UNL     1       3.573  45.080  55.177  1.00  0.00     0.364 C 
ATOM      9  O   UNL     1       2.510  44.843  55.746  1.00  0.00    -0.245 OA
BRANCH   8  10
ATOM     10  O   UNL     1       4.767  45.333  55.758  1.00  0.00    -0.465 OA
ATOM     11  C   UNL     1       5.836  44.507  55.287  1.00  0.00     0.282 C 
ENDBRANCH   8  10
ENDBRANCH   1   8
BRANCH   6  12
ATOM     12  C   UNL     1       3.827  47.588  52.906  1.00  0.00     0.339 C 
BRANCH  12  13
ATOM     13  C   UNL     1       5.282  47.171  52.710  1.00  0.00     0.165 C 
ATOM     14  N   UNL     1       6.175  47.570  53.559  1.00  0.00    -0.229 NA
ATOM     15  N   UNL     1       5.576  46.432  51.598  1.00  0.00    -0.305 N 
ATOM     16  C   UNL     1       7.515  47.204  53.328  1.00  0.00     0.078 A 
ATOM     17  C   UNL     1       6.851  46.032  51.280  1.00  0.00     0.258 C 
ATOM     18  C   UNL     1       8.493  47.614  54.235  1.00  0.00     0.029 A 
ATOM     19  C   UNL     1       7.906  46.452  52.215  1.00  0.00     0.065 A 
ATOM     20  C   UNL     1       9.834  47.279  54.028  1.00  0.00     0.002 A 
ATOM     21  C   UNL     1       9.244  46.112  51.998  1.00  0.00     0.016 A 
ATOM     22  C   UNL     1      10.209  46.530  52.911  1.00  0.00     0.001 A 
ATOM     23  H   UNL     1       4.878  46.111  50.940  1.00  0.00     0.171 HD
ATOM     24  O   UNL     1       7.075  45.369  50.277  1.00  0.00    -0.269 OA
ENDBRANCH  12  13
ENDBRANCH   6  12
TORSDOF 4
ENDMDL
MODEL 4
REMARK VINA RESULT:    -8.183      1.529      2.251
REMARK INTER + INTRA:         -10.877
REMARK INTER:                 -10.063
REMARK INTRA:                  -0.813
REMARK UNBOUND:                -0.780
REMARK SMILES COC(=O)C1CCCC[NH+]1Cc1nc2ccccc2c(=O)[nH]1
REMARK SMILES IDX 5 1 6 2 7 3 8 4 9 5 10 6 3 8 4 9 2 10 1 11 11 12 12 13 13 14
REMARK SMILES IDX 22 15 14 16 20 17 15 18 19 19 16 20 18 21 17 22 21 24
REMARK H PARENT 10 7 22 23
ROOT
ATOM      1  C   UNL     1       2.280  45.621  52.803  1.00  0.00     0.295 C 
ATOM      2  C   UNL     1       0.776  45.483  52.569  1.00  0.00     0.078 C 
ATOM      3  C   UNL     1       0.164  44.354  53.392  1.00  0.00     0.013 C 
ATOM      4  C   UNL     1       1.028  43.094  53.426  1.00  0.00     0.062 C 
ATOM      5  C   UNL     1       2.070  43.083  52.323  1.00  0.00     0.263 C 
ATOM      6  N   UNL     1       2.992  44.261  52.473  1.00  0.00    -0.317 N 
ATOM      7  H   UNL     1       3.406  44.438  51.539  1.00  0.00     0.349 HD
ENDROOT
BRANCH   1   8
ATOM      8  C   UNL     1       2.851  46.713  51.893  1.00  0.00     0.364 C 
ATOM      9  O   UNL     1       3.159  46.460  50.730  1.00  0.00    -0.245 OA
BRANCH   8  10
ATOM     10  O   UNL     1       2.958  47.904  52.522  1.00  0.00    -0.465 OA
ATOM     11  C   UNL     1       4.075  48.000  53.411  1.00  0.00     0.282 C 
ENDBRANCH   8  10
ENDBRANCH   1   8
BRANCH   6  12
ATOM     12  C   UNL     1       4.185  43.978  53.394  1.00  0.00     0.339 C 
BRANCH  12  13
ATOM     13  C   UNL     1       5.459  44.694  52.951  1.00  0.00     0.165 C 
ATOM     14  N   UNL     1       6.157  45.343  53.827  1.00  0.00    -0.229 NA
ATOM     15  N   UNL     1       5.767  44.654  51.620  1.00  0.00    -0.305 N 
ATOM     16  C   UNL     1       7.304  46.027  53.380  1.00  0.00     0.078 A 
ATOM     17  C   UNL     1       6.859  45.294  51.084  1.00  0.00     0.258 C 
ATOM     18  C   UNL     1       8.078  46.726  54.308  1.00  0.00     0.029 A 
ATOM     19  C   UNL     1       7.693  46.042  52.036  1.00  0.00     0.065 A 
ATOM     20  C   UNL     1       9.215  47.427  53.895  1.00  0.00     0.002 A 
ATOM     21  C   UNL     1       8.827  46.739  51.613  1.00  0.00     0.016 A 
ATOM     22  C   UNL     1       9.588  47.434  52.550  1.00  0.00     0.001 A 
ATOM     23  H   UNL     1       5.229  44.137  50.936  1.00  0.00     0.171 HD
ATOM     24  O   UNL     1       7.104  45.232  49.888  1.00  0.00    -0.269 OA
ENDBRANCH  12  13
ENDBRANCH   6  12
TORSDOF 4
ENDMDL
MODEL 5
REMARK VINA RESULT:    -8.094      2.927      4.257
REMARK INTER + INTRA:         -10.767
REMARK INTER:                 -10.158
REMARK INTRA:                  -0.609
REMARK UNBOUND:                -0.780
REMARK SMILES COC(=O)C1CCCC[NH+]1Cc1nc2ccccc2c(=O)[nH]1
REMARK SMILES IDX 5 1 6 2 7 3 8 4 9 5 10 6 3 8 4 9 2 10 1 11 11 12 12 13 13 14
REMARK SMILES IDX 22 15 14 16 20 17 15 18 19 19 16 20 18 21 17 22 21 24
REMARK H PARENT 10 7 22 23
ROOT
ATOM      1  C   UNL     1       5.018  42.612  49.939  1.00  0.00     0.295 C 
ATOM      2  C   UNL     1       4.222  41.314  50.065  1.00  0.00     0.078 C 
ATOM      3  C   UNL     1       2.762  41.565  50.428  1.00  0.00     0.013 C 
ATOM      4  C   UNL     1       2.580  42.651  51.487  1.00  0.00     0.062 C 
ATOM      5  C   UNL     1       3.867  42.942  52.237  1.00  0.00     0.263 C 
ATOM      6  N   UNL     1       4.923  43.422  51.281  1.00  0.00    -0.317 N 
ATOM      7  H   UNL     1       5.840  43.233  51.730  1.00  0.00     0.349 HD
ENDROOT
BRANCH   1   8
ATOM      8  C   UNL     1       6.489  42.295  49.654  1.00  0.00     0.364 C 
ATOM      9  O   UNL     1       7.017  41.292  50.130  1.00  0.00    -0.245 OA
BRANCH   8  10
ATOM     10  O   UNL     1       7.072  43.221  48.861  1.00  0.00    -0.465 OA
ATOM     11  C   UNL     1       8.380  43.618  49.285  1.00  0.00     0.282 C 
ENDBRANCH   8  10
ENDBRANCH   1   8
BRANCH   6  12
ATOM     12  C   UNL     1       4.891  44.937  51.058  1.00  0.00     0.339 C 
BRANCH  12  13
ATOM     13  C   UNL     1       5.887  45.689  51.937  1.00  0.00     0.165 C 
ATOM     14  N   UNL     1       7.150  45.620  51.664  1.00  0.00    -0.229 NA
ATOM     15  N   UNL     1       5.384  46.360  53.018  1.00  0.00    -0.305 N 
ATOM     16  C   UNL     1       8.047  46.291  52.518  1.00  0.00     0.078 A 
ATOM     17  C   UNL     1       6.175  47.037  53.914  1.00  0.00     0.258 C 
ATOM     18  C   UNL     1       9.413  46.239  52.238  1.00  0.00     0.029 A 
ATOM     19  C   UNL     1       7.622  46.999  53.647  1.00  0.00     0.065 A 
ATOM     20  C   UNL     1      10.332  46.881  53.074  1.00  0.00     0.002 A 
ATOM     21  C   UNL     1       8.530  47.645  54.489  1.00  0.00     0.016 A 
ATOM     22  C   UNL     1       9.891  47.583  54.197  1.00  0.00     0.001 A 
ATOM     23  H   UNL     1       4.396  46.423  53.226  1.00  0.00     0.171 HD
ATOM     24  O   UNL     1       5.688  47.629  54.866  1.00  0.00    -0.269 OA
ENDBRANCH  12  13
ENDBRANCH   6  12
TORSDOF 4
ENDMDL
MODEL 6
REMARK VINA RESULT:    -7.919      2.663      5.256
REMARK INTER + INTRA:         -10.551
REMARK INTER:                  -9.817
REMARK INTRA:                  -0.734
REMARK UNBOUND:                -0.780
REMARK SMILES COC(=O)C1CCCC[NH+]1Cc1nc2ccccc2c(=O)[nH]1
REMARK SMILES IDX 5 1 6 2 7 3 8 4 9 5 10 6 3 8 4 9 2 10 1 11 11 12 12 13 13 14
REMARK SMILES IDX 22 15 14 16 20 17 15 18 19 19 16 20 18 21 17 22 21 24
REMARK H PARENT 10 7 22 23
ROOT
ATOM      1  C   UNL     1       6.417  46.036  54.061  1.00  0.00     0.295 C 
ATOM      2  C   UNL     1       6.183  45.391  55.426  1.00  0.00     0.078 C 
ATOM      3  C   UNL     1       4.832  44.688  55.510  1.00  0.00     0.013 C 
ATOM      4  C   UNL     1       3.698  45.479  54.860  1.00  0.00     0.062 C 
ATOM      5  C   UNL     1       4.060  46.938  54.653  1.00  0.00     0.263 C 
ATOM      6  N   UNL     1       5.256  47.049  53.750  1.00  0.00    -0.317 N 
ATOM      7  H   UNL     1       5.695  47.968  53.946  1.00  0.00     0.349 HD
ENDROOT
BRANCH   1   8
ATOM      8  C   UNL     1       7.748  46.793  54.063  1.00  0.00     0.364 C 
ATOM      9  O   UNL     1       7.997  47.617  54.940  1.00  0.00    -0.245 OA
BRANCH   8  10
ATOM     10  O   UNL     1       8.541  46.443  53.027  1.00  0.00    -0.465 OA
ATOM     11  C   UNL     1       9.906  46.851  53.168  1.00  0.00     0.282 C 
ENDBRANCH   8  10
ENDBRANCH   1   8
BRANCH   6  12
ATOM     12  C   UNL     1       4.887  47.088  52.263  1.00  0.00     0.339 C 
BRANCH  12  13
ATOM     13  C   UNL     1       5.320  45.833  51.510  1.00  0.00     0.165 C 
ATOM     14  N   UNL     1       4.563  44.784  51.540  1.00  0.00    -0.229 NA
ATOM     15  N   UNL     1       6.534  45.870  50.881  1.00  0.00    -0.305 N 
ATOM     16  C   UNL     1       5.009  43.629  50.870  1.00  0.00     0.078 A 
ATOM     17  C   UNL     1       7.061  44.794  50.207  1.00  0.00     0.258 C 
ATOM     18  C   UNL     1       4.205  42.488  50.880  1.00  0.00     0.029 A 
ATOM     19  C   UNL     1       6.237  43.575  50.202  1.00  0.00     0.065 A 
ATOM     20  C   UNL     1       4.625  41.320  50.237  1.00  0.00     0.002 A 
ATOM     21  C   UNL     1       6.667  42.414  49.556  1.00  0.00     0.016 A 
ATOM     22  C   UNL     1       5.855  41.283  49.576  1.00  0.00     0.001 A 
ATOM     23  H   UNL     1       7.122  46.692  50.847  1.00  0.00     0.171 HD
ATOM     24  O   UNL     1       8.149  44.866  49.653  1.00  0.00    -0.269 OA
ENDBRANCH  12  13
ENDBRANCH   6  12
TORSDOF 4
ENDMDL
MODEL 7
REMARK VINA RESULT:    -7.837      1.721      2.398
REMARK INTER + INTRA:         -10.450
REMARK INTER:                  -9.823
REMARK INTRA:                  -0.627
REMARK UNBOUND:                -0.780
REMARK SMILES COC(=O)C1CCCC[NH+]1Cc1nc2ccccc2c(=O)[nH]1
REMARK SMILES IDX 5 1 6 2 7 3 8 4 9 5 10 6 3 8 4 9 2 10 1 11 11 12 12 13 13 14
REMARK SMILES IDX 22 15 14 16 20 17 15 18 19 19 16 20 18 21 17 22 21 24
REMARK H PARENT 10 7 22 23
ROOT
ATOM      1  C   UNL     1       2.296  44.115  52.609  1.00  0.00     0.295 C 
ATOM      2  C   UNL     1       1.326  43.408  53.554  1.00  0.00     0.078 C 
ATOM      3  C   UNL     1       0.702  44.365  54.564  1.00  0.00     0.013 C 
ATOM      4  C   UNL     1       1.699  45.369  55.141  1.00  0.00     0.062 C 
ATOM      5  C   UNL     1       3.138  44.943  54.916  1.00  0.00     0.263 C 
ATOM      6  N   UNL     1       3.418  44.831  53.443  1.00  0.00    -0.317 N 
ATOM      7  H   UNL     1       4.227  44.190  53.340  1.00  0.00     0.349 HD
ENDROOT
BRANCH   1   8
ATOM      8  C   UNL     1       2.950  43.094  51.673  1.00  0.00     0.364 C 
ATOM      9  O   UNL     1       2.281  42.502  50.828  1.00  0.00    -0.245 OA
BRANCH   8  10
ATOM     10  O   UNL     1       4.273  42.953  51.908  1.00  0.00    -0.465 OA
ATOM     11  C   UNL     1       5.045  42.636  50.745  1.00  0.00     0.282 C 
ENDBRANCH   8  10
ENDBRANCH   1   8
BRANCH   6  12
ATOM     12  C   UNL     1       3.871  46.153  52.813  1.00  0.00     0.339 C 
BRANCH  12  13
ATOM     13  C   UNL     1       5.388  46.323  52.818  1.00  0.00     0.165 C 
ATOM     14  N   UNL     1       6.079  45.872  51.819  1.00  0.00    -0.229 NA
ATOM     15  N   UNL     1       5.949  46.903  53.922  1.00  0.00    -0.305 N 
ATOM     16  C   UNL     1       7.479  46.007  51.872  1.00  0.00     0.078 A 
ATOM     17  C   UNL     1       7.304  47.073  54.072  1.00  0.00     0.258 C 
ATOM     18  C   UNL     1       8.244  45.538  50.802  1.00  0.00     0.029 A 
ATOM     19  C   UNL     1       8.138  46.585  52.962  1.00  0.00     0.065 A 
ATOM     20  C   UNL     1       9.637  45.643  50.829  1.00  0.00     0.002 A 
ATOM     21  C   UNL     1       9.530  46.696  53.000  1.00  0.00     0.016 A 
ATOM     22  C   UNL     1      10.279  46.221  51.926  1.00  0.00     0.001 A 
ATOM     23  H   UNL     1       5.410  47.266  54.697  1.00  0.00     0.171 HD
ATOM     24  O   UNL     1       7.768  47.600  55.073  1.00  0.00    -0.269 OA
ENDBRANCH  12  13
ENDBRANCH   6  12
TORSDOF 4
ENDMDL
MODEL 8
REMARK VINA RESULT:    -7.741      2.209      7.061
REMARK INTER + INTRA:         -10.332
REMARK INTER:                  -9.903
REMARK INTRA:                  -0.428
REMARK UNBOUND:                -0.780
REMARK SMILES COC(=O)C1CCCC[NH+]1Cc1nc2ccccc2c(=O)[nH]1
REMARK SMILES IDX 5 1 6 2 7 3 8 4 9 5 10 6 3 8 4 9 2 10 1 11 11 12 12 13 13 14
REMARK SMILES IDX 22 15 14 16 20 17 15 18 19 19 16 20 18 21 17 22 21 24
REMARK H PARENT 10 7 22 23
ROOT
ATOM      1  C   UNL     1       9.018  47.555  53.392  1.00  0.00     0.295 C 
ATOM      2  C   UNL     1      10.092  46.673  52.757  1.00  0.00     0.078 C 
ATOM      3  C   UNL     1       9.753  46.295  51.318  1.00  0.00     0.013 C 
ATOM      4  C   UNL     1       8.282  45.932  51.119  1.00  0.00     0.062 C 
ATOM      5  C   UNL     1       7.585  45.622  52.430  1.00  0.00     0.263 C 
ATOM      6  N   UNL     1       7.630  46.822  53.335  1.00  0.00    -0.317 N 
ATOM      7  H   UNL     1       7.516  46.470  54.304  1.00  0.00     0.349 HD
ENDROOT
BRANCH   1   8
ATOM      8  C   UNL     1       9.372  47.834  54.855  1.00  0.00     0.364 C 
ATOM      9  O   UNL     1       8.773  48.700  55.490  1.00  0.00    -0.245 OA
BRANCH   8  10
ATOM     10  O   UNL     1      10.372  47.044  55.304  1.00  0.00    -0.465 OA
ATOM     11  C   UNL     1      11.093  47.583  56.416  1.00  0.00     0.282 C 
ENDBRANCH   8  10
ENDBRANCH   1   8
BRANCH   6  12
ATOM     12  C   UNL     1       6.459  47.786  53.117  1.00  0.00     0.339 C 
BRANCH  12  13
ATOM     13  C   UNL     1       5.100  47.096  53.194  1.00  0.00     0.165 C 
ATOM     14  N   UNL     1       4.641  46.730  54.348  1.00  0.00    -0.229 NA
ATOM     15  N   UNL     1       4.456  46.849  52.013  1.00  0.00    -0.305 N 
ATOM     16  C   UNL     1       3.403  46.059  54.383  1.00  0.00     0.078 A 
ATOM     17  C   UNL     1       3.250  46.195  51.940  1.00  0.00     0.258 C 
ATOM     18  C   UNL     1       2.883  45.663  55.616  1.00  0.00     0.029 A 
ATOM     19  C   UNL     1       2.677  45.762  53.224  1.00  0.00     0.065 A 
ATOM     20  C   UNL     1       1.664  44.983  55.685  1.00  0.00     0.002 A 
ATOM     21  C   UNL     1       1.458  45.083  53.281  1.00  0.00     0.016 A 
ATOM     22  C   UNL     1       0.953  44.693  54.519  1.00  0.00     0.001 A 
ATOM     23  H   UNL     1       4.809  47.144  51.112  1.00  0.00     0.171 HD
ATOM     24  O   UNL     1       2.703  45.995  50.865  1.00  0.00    -0.269 OA
ENDBRANCH  12  13
ENDBRANCH   6  12
TORSDOF 4
ENDMDL
MODEL 9
REMARK VINA RESULT:    -7.700      1.858      2.933
REMARK INTER + INTRA:         -10.280
REMARK INTER:                  -9.671
REMARK INTRA:                  -0.610
REMARK UNBOUND:                -0.780
REMARK SMILES COC(=O)C1CCCC[NH+]1Cc1nc2ccccc2c(=O)[nH]1
REMARK SMILES IDX 5 1 6 2 7 3 8 4 9 5 10 6 3 8 4 9 2 10 1 11 11 12 12 13 13 14
REMARK SMILES IDX 22 15 14 16 20 17 15 18 19 19 16 20 18 21 17 22 21 24
REMARK H PARENT 10 7 22 23
ROOT
ATOM      1  C   UNL     1       1.893  44.237  53.701  1.00  0.00     0.295 C 
ATOM      2  C   UNL     1       0.450  44.467  53.253  1.00  0.00     0.078 C 
ATOM      3  C   UNL     1       0.116  43.715  51.969  1.00  0.00     0.013 C 
ATOM      4  C   UNL     1       1.233  43.772  50.928  1.00  0.00     0.062 C 
ATOM      5  C   UNL     1       2.229  44.881  51.213  1.00  0.00     0.263 C 
ATOM      6  N   UNL     1       2.876  44.660  52.552  1.00  0.00    -0.317 N 
ATOM      7  H   UNL     1       3.221  45.584  52.873  1.00  0.00     0.349 HD
ENDROOT
BRANCH   1   8
ATOM      8  C   UNL     1       2.193  45.077  54.945  1.00  0.00     0.364 C 
ATOM      9  O   UNL     1       2.940  46.051  54.877  1.00  0.00    -0.245 OA
BRANCH   8  10
ATOM     10  O   UNL     1       1.560  44.613  56.045  1.00  0.00    -0.465 OA
ATOM     11  C   UNL     1       0.842  45.612  56.776  1.00  0.00     0.282 C 
ENDBRANCH   8  10
ENDBRANCH   1   8
BRANCH   6  12
ATOM     12  C   UNL     1       4.121  43.770  52.479  1.00  0.00     0.339 C 
BRANCH  12  13
ATOM     13  C   UNL     1       5.416  44.569  52.354  1.00  0.00     0.165 C 
ATOM     14  N   UNL     1       5.858  45.223  53.380  1.00  0.00    -0.229 NA
ATOM     15  N   UNL     1       6.017  44.595  51.126  1.00  0.00    -0.305 N 
ATOM     16  C   UNL     1       7.033  45.983  53.221  1.00  0.00     0.078 A 
ATOM     17  C   UNL     1       7.160  45.313  50.867  1.00  0.00     0.258 C 
ATOM     18  C   UNL     1       7.534  46.688  54.317  1.00  0.00     0.029 A 
ATOM     19  C   UNL     1       7.712  46.070  52.002  1.00  0.00     0.065 A 
ATOM     20  C   UNL     1       8.690  47.465  54.189  1.00  0.00     0.002 A 
ATOM     21  C   UNL     1       8.868  46.842  51.863  1.00  0.00     0.016 A 
ATOM     22  C   UNL     1       9.355  47.541  52.964  1.00  0.00     0.001 A 
ATOM     23  H   UNL     1       5.679  44.076  50.327  1.00  0.00     0.171 HD
ATOM     24  O   UNL     1       7.672  45.309  49.757  1.00  0.00    -0.269 OA
ENDBRANCH  12  13
ENDBRANCH   6  12
TORSDOF 4
ENDMDL
MODEL 10
REMARK VINA RESULT:    -7.679      2.784      4.080
REMARK INTER + INTRA:         -10.255
REMARK INTER:                  -9.575
REMARK INTRA:                  -0.680
REMARK UNBOUND:                -0.780
REMARK SMILES COC(=O)C1CCCC[NH+]1Cc1nc2ccccc2c(=O)[nH]1
REMARK SMILES IDX 5 1 6 2 7 3 8 4 9 5 10 6 3 8 4 9 2 10 1 11 11 12 12 13 13 14
REMARK SMILES IDX 22 15 14 16 20 17 15 18 19 19 16 20 18 21 17 22 21 24
REMARK H PARENT 10 7 22 23
ROOT
ATOM      1  C   UNL     1       2.957  44.801  54.885  1.00  0.00     0.295 C 
ATOM      2  C   UNL     1       2.007  45.744  55.621  1.00  0.00     0.078 C 
ATOM      3  C   UNL     1       0.546  45.332  55.463  1.00  0.00     0.013 C 
ATOM      4  C   UNL     1       0.195  44.883  54.046  1.00  0.00     0.062 C 
ATOM      5  C   UNL     1       1.228  45.331  53.029  1.00  0.00     0.263 C 
ATOM      6  N   UNL     1       2.570  44.742  53.364  1.00  0.00    -0.317 N 
ATOM      7  H   UNL     1       3.283  45.352  52.921  1.00  0.00     0.349 HD
ENDROOT
BRANCH   1   8
ATOM      8  C   UNL     1       4.396  45.309  55.011  1.00  0.00     0.364 C 
ATOM      9  O   UNL     1       5.331  44.518  55.117  1.00  0.00    -0.245 OA
BRANCH   8  10
ATOM     10  O   UNL     1       4.470  46.658  54.994  1.00  0.00    -0.465 OA
ATOM     11  C   UNL     1       5.104  47.197  53.830  1.00  0.00     0.282 C 
ENDBRANCH   8  10
ENDBRANCH   1   8
BRANCH   6  12
ATOM     12  C   UNL     1       2.790  43.356  52.750  1.00  0.00     0.339 C 
BRANCH  12  13
ATOM     13  C   UNL     1       4.013  43.297  51.838  1.00  0.00     0.165 C 
ATOM     14  N   UNL     1       4.827  44.303  51.807  1.00  0.00    -0.229 NA
ATOM     15  N   UNL     1       4.152  42.188  51.050  1.00  0.00    -0.305 N 
ATOM     16  C   UNL     1       5.924  44.236  50.925  1.00  0.00     0.078 A 
ATOM     17  C   UNL     1       5.182  42.031  50.154  1.00  0.00     0.258 C 
ATOM     18  C   UNL     1       6.821  45.305  50.881  1.00  0.00     0.029 A 
ATOM     19  C   UNL     1       6.143  43.143  50.081  1.00  0.00     0.065 A 
ATOM     20  C   UNL     1       7.912  45.276  50.007  1.00  0.00     0.002 A 
ATOM     21  C   UNL     1       7.230  43.103  49.204  1.00  0.00     0.016 A 
ATOM     22  C   UNL     1       8.115  44.178  49.170  1.00  0.00     0.001 A 
ATOM     23  H   UNL     1       3.523  41.397  51.082  1.00  0.00     0.171 HD
ATOM     24  O   UNL     1       5.275  41.023  49.468  1.00  0.00    -0.269 OA
ENDBRANCH  12  13
ENDBRANCH   6  12
TORSDOF 4
ENDMDL
