MODEL 1
REMARK VINA RESULT:    -8.882      0.000      0.000
REMARK INTER + INTRA:         -12.517
REMARK INTER:                 -11.738
REMARK INTRA:                  -0.779
REMARK UNBOUND:                -0.779
REMARK SMILES CC(c1nc(N)nc(Nc2ccccc2)n1)[NH+]1CCN(c2ncccn2)CC1
REMARK SMILES IDX 3 1 4 2 5 3 7 4 8 5 16 6 2 7 1 8 17 9 18 10 28 11 19 12
REMARK SMILES IDX 27 13 20 14 21 16 22 17 26 18 23 19 25 20 24 21 6 22 9 25
REMARK SMILES IDX 10 27 11 28 15 29 12 30 14 31 13 32
REMARK H PARENT 17 15 6 23 6 24 9 26
ROOT
ATOM      1  C   UNL     1       5.080  43.826  51.215  1.00  0.00     0.193 A 
ATOM      2  N   UNL     1       5.473  43.073  50.189  1.00  0.00    -0.191 NA
ATOM      3  C   UNL     1       6.614  43.448  49.634  1.00  0.00     0.225 A 
ATOM      4  N   UNL     1       7.325  44.500  50.004  1.00  0.00    -0.177 NA
ATOM      5  C   UNL     1       6.836  45.230  51.002  1.00  0.00     0.232 A 
ATOM      6  N   UNL     1       5.702  44.928  51.624  1.00  0.00    -0.191 NA
ENDROOT
BRANCH   1   7
ATOM      7  C   UNL     1       3.696  43.553  51.805  1.00  0.00     0.250 C 
ATOM      8  C   UNL     1       3.462  42.042  51.879  1.00  0.00     0.084 C 
BRANCH   7   9
ATOM      9  N   UNL     1       2.568  44.218  50.970  1.00  0.00    -0.323 N 
ATOM     10  C   UNL     1       1.193  43.596  51.120  1.00  0.00     0.284 C 
ATOM     11  C   UNL     1       2.428  45.715  51.255  1.00  0.00     0.284 C 
ATOM     12  C   UNL     1       0.593  43.809  52.526  1.00  0.00     0.181 C 
ATOM     13  C   UNL     1       1.886  45.999  52.672  1.00  0.00     0.181 C 
ATOM     14  N   UNL     1       1.320  44.808  53.313  1.00  0.00    -0.330 N 
ATOM     15  H   UNL     1       2.875  44.130  49.993  1.00  0.00     0.348 HD
BRANCH  14  16
ATOM     16  C   UNL     1       0.843  45.006  54.606  1.00  0.00     0.225 A 
ATOM     17  N   UNL     1       1.693  45.453  55.543  1.00  0.00    -0.221 NA
ATOM     18  N   UNL     1      -0.440  44.713  54.868  1.00  0.00    -0.221 NA
ATOM     19  C   UNL     1       1.216  45.616  56.794  1.00  0.00     0.117 A 
ATOM     20  C   UNL     1      -0.876  44.889  56.132  1.00  0.00     0.117 A 
ATOM     21  C   UNL     1      -0.079  45.345  57.150  1.00  0.00     0.040 A 
ENDBRANCH  14  16
ENDBRANCH   7   9
ENDBRANCH   1   7
BRANCH   3  22
ATOM     22  N   UNL     1       7.085  42.699  48.581  1.00  0.00    -0.368 N 
ATOM     23  H   UNL     1       6.380  42.593  47.861  1.00  0.00     0.159 HD
ATOM     24  H   UNL     1       7.999  42.997  48.271  1.00  0.00     0.159 HD
ENDBRANCH   3  22
BRANCH   5  25
ATOM     25  N   UNL     1       7.564  46.365  51.334  1.00  0.00    -0.324 N 
ATOM     26  H   UNL     1       7.505  47.044  50.586  1.00  0.00     0.170 HD
BRANCH  25  27
ATOM     27  C   UNL     1       8.297  46.757  52.463  1.00  0.00     0.041 A 
ATOM     28  C   UNL     1       9.656  46.404  52.533  1.00  0.00     0.026 A 
ATOM     29  C   UNL     1       7.764  47.490  53.530  1.00  0.00     0.026 A 
ATOM     30  C   UNL     1      10.450  46.771  53.623  1.00  0.00     0.002 A 
ATOM     31  C   UNL     1       8.554  47.857  54.626  1.00  0.00     0.002 A 
ATOM     32  C   UNL     1       9.898  47.498  54.672  1.00  0.00     0.000 A 
ENDBRANCH  25  27
ENDBRANCH   5  25
TORSDOF 6
ENDMDL
MODEL 2
REMARK VINA RESULT:    -8.763      2.206      7.991
REMARK INTER + INTRA:         -12.361
REMARK INTER:                 -11.505
REMARK INTRA:                  -0.855
REMARK UNBOUND:                -0.779
REMARK SMILES CC(c1nc(N)nc(Nc2ccccc2)n1)[NH+]1CCN(c2ncccn2)CC1
REMARK SMILES IDX 3 1 4 2 5 3 7 4 8 5 16 6 2 7 1 8 17 9 18 10 28 11 19 12
REMARK SMILES IDX 27 13 20 14 21 16 22 17 26 18 23 19 25 20 24 21 6 22 9 25
REMARK SMILES IDX 10 27 11 28 15 29 12 30 14 31 13 32
REMARK H PARENT 17 15 6 23 6 24 9 26
ROOT
ATOM      1  C   UNL     1       2.379  44.882  54.084  1.00  0.00     0.193 A 
ATOM      2  N   UNL     1       2.022  43.717  53.546  1.00  0.00    -0.191 NA
ATOM      3  C   UNL     1       0.790  43.330  53.837  1.00  0.00     0.225 A 
ATOM      4  N   UNL     1      -0.044  43.990  54.624  1.00  0.00    -0.177 NA
ATOM      5  C   UNL     1       0.410  45.117  55.163  1.00  0.00     0.232 A 
ATOM      6  N   UNL     1       1.629  45.587  54.924  1.00  0.00    -0.191 NA
ENDROOT
BRANCH   1   7
ATOM      7  C   UNL     1       3.837  45.317  53.926  1.00  0.00     0.250 C 
ATOM      8  C   UNL     1       4.516  45.332  55.298  1.00  0.00     0.084 C 
BRANCH   7   9
ATOM      9  N   UNL     1       3.956  46.718  53.266  1.00  0.00    -0.323 N 
ATOM     10  C   UNL     1       5.356  47.299  53.218  1.00  0.00     0.284 C 
ATOM     11  C   UNL     1       3.398  46.749  51.842  1.00  0.00     0.284 C 
ATOM     12  C   UNL     1       6.293  46.519  52.271  1.00  0.00     0.181 C 
ATOM     13  C   UNL     1       4.260  45.935  50.852  1.00  0.00     0.181 C 
ATOM     14  N   UNL     1       5.576  45.588  51.397  1.00  0.00    -0.330 N 
ATOM     15  H   UNL     1       3.355  47.330  53.833  1.00  0.00     0.348 HD
BRANCH  14  16
ATOM     16  C   UNL     1       6.381  44.829  50.552  1.00  0.00     0.225 A 
ATOM     17  N   UNL     1       5.898  43.673  50.071  1.00  0.00    -0.221 NA
ATOM     18  N   UNL     1       7.618  45.271  50.277  1.00  0.00    -0.221 NA
ATOM     19  C   UNL     1       6.703  42.942  49.273  1.00  0.00     0.117 A 
ATOM     20  C   UNL     1       8.390  44.509  49.476  1.00  0.00     0.117 A 
ATOM     21  C   UNL     1       7.978  43.318  48.938  1.00  0.00     0.040 A 
ENDBRANCH  14  16
ENDBRANCH   7   9
ENDBRANCH   1   7
BRANCH   3  22
ATOM     22  N   UNL     1       0.352  42.143  53.297  1.00  0.00    -0.368 N 
ATOM     23  H   UNL     1       0.029  42.270  52.345  1.00  0.00     0.159 HD
ATOM     24  H   UNL     1       1.001  41.384  53.451  1.00  0.00     0.159 HD
ENDBRANCH   3  22
BRANCH   5  25
ATOM     25  N   UNL     1      -0.458  45.762  56.035  1.00  0.00    -0.324 N 
ATOM     26  H   UNL     1      -1.415  45.622  55.736  1.00  0.00     0.170 HD
BRANCH  25  27
ATOM     27  C   UNL     1      -0.284  46.500  57.214  1.00  0.00     0.041 A 
ATOM     28  C   UNL     1      -1.340  47.316  57.653  1.00  0.00     0.026 A 
ATOM     29  C   UNL     1       0.878  46.471  57.995  1.00  0.00     0.026 A 
ATOM     30  C   UNL     1      -1.241  48.071  58.826  1.00  0.00     0.002 A 
ATOM     31  C   UNL     1       0.984  47.227  59.168  1.00  0.00     0.002 A 
ATOM     32  C   UNL     1      -0.076  48.026  59.584  1.00  0.00     0.000 A 
ENDBRANCH  25  27
ENDBRANCH   5  25
TORSDOF 6
ENDMDL
MODEL 3
REMARK VINA RESULT:    -8.428      2.143      7.028
REMARK INTER + INTRA:         -11.918
REMARK INTER:                 -10.952
REMARK INTRA:                  -0.966
REMARK UNBOUND:                -0.779
REMARK SMILES CC(c1nc(N)nc(Nc2ccccc2)n1)[NH+]1CCN(c2ncccn2)CC1
REMARK SMILES IDX 3 1 4 2 5 3 7 4 8 5 16 6 2 7 1 8 17 9 18 10 28 11 19 12
REMARK SMILES IDX 27 13 20 14 21 16 22 17 26 18 23 19 25 20 24 21 6 22 9 25
REMARK SMILES IDX 10 27 11 28 15 29 12 30 14 31 13 32
REMARK H PARENT 17 15 6 23 6 24 9 26
ROOT
ATOM      1  C   UNL     1       3.046  44.249  53.540  1.00  0.00     0.193 A 
ATOM      2  N   UNL     1       1.720  44.189  53.652  1.00  0.00    -0.191 NA
ATOM      3  C   UNL     1       1.158  43.171  53.020  1.00  0.00     0.225 A 
ATOM      4  N   UNL     1       1.810  42.281  52.291  1.00  0.00    -0.177 NA
ATOM      5  C   UNL     1       3.126  42.443  52.187  1.00  0.00     0.232 A 
ATOM      6  N   UNL     1       3.778  43.431  52.790  1.00  0.00    -0.191 NA
ENDROOT
BRANCH   1   7
ATOM      7  C   UNL     1       3.750  45.482  54.107  1.00  0.00     0.250 C 
ATOM      8  C   UNL     1       3.244  45.750  55.528  1.00  0.00     0.084 C 
BRANCH   7   9
ATOM      9  N   UNL     1       3.521  46.739  53.224  1.00  0.00    -0.323 N 
ATOM     10  C   UNL     1       4.234  47.996  53.681  1.00  0.00     0.284 C 
ATOM     11  C   UNL     1       3.897  46.506  51.759  1.00  0.00     0.284 C 
ATOM     12  C   UNL     1       5.769  47.895  53.543  1.00  0.00     0.181 C 
ATOM     13  C   UNL     1       5.419  46.337  51.558  1.00  0.00     0.181 C 
ATOM     14  N   UNL     1       6.195  46.754  52.730  1.00  0.00    -0.330 N 
ATOM     15  H   UNL     1       2.505  46.898  53.248  1.00  0.00     0.348 HD
BRANCH  14  16
ATOM     16  C   UNL     1       7.573  46.595  52.609  1.00  0.00     0.225 A 
ATOM     17  N   UNL     1       8.359  47.016  53.612  1.00  0.00    -0.221 NA
ATOM     18  N   UNL     1       8.059  46.054  51.482  1.00  0.00    -0.221 NA
ATOM     19  C   UNL     1       9.692  46.873  53.465  1.00  0.00     0.117 A 
ATOM     20  C   UNL     1       9.398  45.931  51.375  1.00  0.00     0.117 A 
ATOM     21  C   UNL     1      10.275  46.330  52.350  1.00  0.00     0.040 A 
ENDBRANCH  14  16
ENDBRANCH   7   9
ENDBRANCH   1   7
BRANCH   3  22
ATOM     22  N   UNL     1      -0.208  43.041  53.113  1.00  0.00    -0.368 N 
ATOM     23  H   UNL     1      -0.562  42.385  52.428  1.00  0.00     0.159 HD
ATOM     24  H   UNL     1      -0.521  42.907  54.064  1.00  0.00     0.159 HD
ENDBRANCH   3  22
BRANCH   5  25
ATOM     25  N   UNL     1       3.784  41.536  51.366  1.00  0.00    -0.324 N 
ATOM     26  H   UNL     1       3.625  40.593  51.698  1.00  0.00     0.170 HD
BRANCH  25  27
ATOM     27  C   UNL     1       4.554  41.656  50.201  1.00  0.00     0.041 A 
ATOM     28  C   UNL     1       4.177  40.912  49.070  1.00  0.00     0.026 A 
ATOM     29  C   UNL     1       5.678  42.482  50.084  1.00  0.00     0.026 A 
ATOM     30  C   UNL     1       4.892  40.991  47.872  1.00  0.00     0.002 A 
ATOM     31  C   UNL     1       6.400  42.563  48.888  1.00  0.00     0.002 A 
ATOM     32  C   UNL     1       6.006  41.818  47.781  1.00  0.00     0.000 A 
ENDBRANCH  25  27
ENDBRANCH   5  25
TORSDOF 6
ENDMDL
MODEL 4
REMARK VINA RESULT:    -8.400      1.920      3.022
REMARK INTER + INTRA:         -11.881
REMARK INTER:                 -11.714
REMARK INTRA:                  -0.167
REMARK UNBOUND:                -0.779
REMARK SMILES CC(c1nc(N)nc(Nc2ccccc2)n1)[NH+]1CCN(c2ncccn2)CC1
REMARK SMILES IDX 3 1 4 2 5 3 7 4 8 5 16 6 2 7 1 8 17 9 18 10 28 11 19 12
REMARK SMILES IDX 27 13 20 14 21 16 22 17 26 18 23 19 25 20 24 21 6 22 9 25
REMARK SMILES IDX 10 27 11 28 15 29 12 30 14 31 13 32
REMARK H PARENT 17 15 6 23 6 24 9 26
ROOT
ATOM      1  C   UNL     1       3.452  44.459  52.974  1.00  0.00     0.193 A 
ATOM      2  N   UNL     1       3.191  44.739  54.250  1.00  0.00    -0.191 NA
ATOM      3  C   UNL     1       3.892  45.745  54.750  1.00  0.00     0.225 A 
ATOM      4  N   UNL     1       4.816  46.423  54.089  1.00  0.00    -0.177 NA
ATOM      5  C   UNL     1       5.053  46.046  52.837  1.00  0.00     0.232 A 
ATOM      6  N   UNL     1       4.395  45.053  52.249  1.00  0.00    -0.191 NA
ENDROOT
BRANCH   1   7
ATOM      7  C   UNL     1       2.801  43.212  52.375  1.00  0.00     0.250 C 
ATOM      8  C   UNL     1       3.870  42.359  51.687  1.00  0.00     0.084 C 
BRANCH   7   9
ATOM      9  N   UNL     1       1.683  43.572  51.359  1.00  0.00    -0.323 N 
ATOM     10  C   UNL     1       0.457  42.681  51.396  1.00  0.00     0.284 C 
ATOM     11  C   UNL     1       1.203  45.019  51.498  1.00  0.00     0.284 C 
ATOM     12  C   UNL     1      -0.357  42.841  52.698  1.00  0.00     0.181 C 
ATOM     13  C   UNL     1       0.430  45.261  52.813  1.00  0.00     0.181 C 
ATOM     14  N   UNL     1       0.039  44.015  53.479  1.00  0.00    -0.330 N 
ATOM     15  H   UNL     1       2.130  43.495  50.436  1.00  0.00     0.348 HD
BRANCH  14  16
ATOM     16  C   UNL     1      -0.638  44.180  54.685  1.00  0.00     0.225 A 
ATOM     17  N   UNL     1      -0.109  44.993  55.612  1.00  0.00    -0.221 NA
ATOM     18  N   UNL     1      -1.775  43.496  54.881  1.00  0.00    -0.221 NA
ATOM     19  C   UNL     1      -0.768  45.122  56.782  1.00  0.00     0.117 A 
ATOM     20  C   UNL     1      -2.402  43.652  56.065  1.00  0.00     0.117 A 
ATOM     21  C   UNL     1      -1.936  44.464  57.066  1.00  0.00     0.040 A 
ENDBRANCH  14  16
ENDBRANCH   7   9
ENDBRANCH   1   7
BRANCH   3  22
ATOM     22  N   UNL     1       3.656  46.097  56.058  1.00  0.00    -0.368 N 
ATOM     23  H   UNL     1       3.433  45.285  56.622  1.00  0.00     0.159 HD
ATOM     24  H   UNL     1       4.362  46.717  56.427  1.00  0.00     0.159 HD
ENDBRANCH   3  22
BRANCH   5  25
ATOM     25  N   UNL     1       6.070  46.730  52.182  1.00  0.00    -0.324 N 
ATOM     26  H   UNL     1       5.673  47.399  51.534  1.00  0.00     0.170 HD
BRANCH  25  27
ATOM     27  C   UNL     1       7.469  46.707  52.264  1.00  0.00     0.041 A 
ATOM     28  C   UNL     1       8.086  47.390  53.326  1.00  0.00     0.026 A 
ATOM     29  C   UNL     1       8.299  46.038  51.357  1.00  0.00     0.026 A 
ATOM     30  C   UNL     1       9.476  47.402  53.477  1.00  0.00     0.002 A 
ATOM     31  C   UNL     1       9.691  46.049  51.502  1.00  0.00     0.002 A 
ATOM     32  C   UNL     1      10.280  46.730  52.563  1.00  0.00     0.000 A 
ENDBRANCH  25  27
ENDBRANCH   5  25
TORSDOF 6
ENDMDL
MODEL 5
REMARK VINA RESULT:    -8.253      1.977      3.274
REMARK INTER + INTRA:         -11.686
REMARK INTER:                 -11.261
REMARK INTRA:                  -0.425
REMARK UNBOUND:                -0.779
REMARK SMILES CC(c1nc(N)nc(Nc2ccccc2)n1)[NH+]1CCN(c2ncccn2)CC1
REMARK SMILES IDX 3 1 4 2 5 3 7 4 8 5 16 6 2 7 1 8 17 9 18 10 28 11 19 12
REMARK SMILES IDX 27 13 20 14 21 16 22 17 26 18 23 19 25 20 24 21 6 22 9 25
REMARK SMILES IDX 10 27 11 28 15 29 12 30 14 31 13 32
REMARK H PARENT 17 15 6 23 6 24 9 26
ROOT
ATOM      1  C   UNL     1       4.776  44.261  50.835  1.00  0.00     0.193 A 
ATOM      2  N   UNL     1       4.922  43.152  50.112  1.00  0.00    -0.191 NA
ATOM      3  C   UNL     1       6.153  42.937  49.674  1.00  0.00     0.225 A 
ATOM      4  N   UNL     1       7.179  43.746  49.877  1.00  0.00    -0.177 NA
ATOM      5  C   UNL     1       6.936  44.858  50.563  1.00  0.00     0.232 A 
ATOM      6  N   UNL     1       5.736  45.155  51.047  1.00  0.00    -0.191 NA
ENDROOT
BRANCH   1   7
ATOM      7  C   UNL     1       3.356  44.660  51.239  1.00  0.00     0.250 C 
ATOM      8  C   UNL     1       3.218  46.184  51.180  1.00  0.00     0.084 C 
BRANCH   7   9
ATOM      9  N   UNL     1       2.995  44.156  52.663  1.00  0.00    -0.323 N 
ATOM     10  C   UNL     1       2.203  45.127  53.517  1.00  0.00     0.284 C 
ATOM     11  C   UNL     1       2.227  42.832  52.642  1.00  0.00     0.284 C 
ATOM     12  C   UNL     1       0.772  45.359  52.985  1.00  0.00     0.181 C 
ATOM     13  C   UNL     1       0.803  42.984  52.065  1.00  0.00     0.181 C 
ATOM     14  N   UNL     1       0.376  44.383  51.968  1.00  0.00    -0.330 N 
ATOM     15  H   UNL     1       3.899  43.968  53.115  1.00  0.00     0.348 HD
BRANCH  14  16
ATOM     16  C   UNL     1      -0.893  44.574  51.426  1.00  0.00     0.225 A 
ATOM     17  N   UNL     1      -1.359  43.671  50.549  1.00  0.00    -0.221 NA
ATOM     18  N   UNL     1      -1.583  45.668  51.779  1.00  0.00    -0.221 NA
ATOM     19  C   UNL     1      -2.581  43.887  50.019  1.00  0.00     0.117 A 
ATOM     20  C   UNL     1      -2.799  45.847  51.223  1.00  0.00     0.117 A 
ATOM     21  C   UNL     1      -3.355  44.975  50.324  1.00  0.00     0.040 A 
ENDBRANCH  14  16
ENDBRANCH   7   9
ENDBRANCH   1   7
BRANCH   3  22
ATOM     22  N   UNL     1       6.375  41.797  48.937  1.00  0.00    -0.368 N 
ATOM     23  H   UNL     1       5.612  41.621  48.294  1.00  0.00     0.159 HD
ATOM     24  H   UNL     1       7.306  41.763  48.546  1.00  0.00     0.159 HD
ENDBRANCH   3  22
BRANCH   5  25
ATOM     25  N   UNL     1       8.012  45.724  50.711  1.00  0.00    -0.324 N 
ATOM     26  H   UNL     1       8.426  45.917  49.808  1.00  0.00     0.170 HD
BRANCH  25  27
ATOM     27  C   UNL     1       8.588  46.385  51.805  1.00  0.00     0.041 A 
ATOM     28  C   UNL     1       7.885  47.454  52.386  1.00  0.00     0.026 A 
ATOM     29  C   UNL     1       9.823  46.042  52.369  1.00  0.00     0.026 A 
ATOM     30  C   UNL     1       8.394  48.152  53.485  1.00  0.00     0.002 A 
ATOM     31  C   UNL     1      10.338  46.739  53.469  1.00  0.00     0.002 A 
ATOM     32  C   UNL     1       9.623  47.793  54.028  1.00  0.00     0.000 A 
ENDBRANCH  25  27
ENDBRANCH   5  25
TORSDOF 6
ENDMDL
MODEL 6
REMARK VINA RESULT:    -8.000      1.963      7.888
REMARK INTER + INTRA:         -11.352
REMARK INTER:                 -10.528
REMARK INTRA:                  -0.824
REMARK UNBOUND:                -0.779
REMARK SMILES CC(c1nc(N)nc(Nc2ccccc2)n1)[NH+]1CCN(c2ncccn2)CC1
REMARK SMILES IDX 3 1 4 2 5 3 7 4 8 5 16 6 2 7 1 8 17 9 18 10 28 11 19 12
REMARK SMILES IDX 27 13 20 14 21 16 22 17 26 18 23 19 25 20 24 21 6 22 9 25
REMARK SMILES IDX 10 27 11 28 15 29 12 30 14 31 13 32
REMARK H PARENT 17 15 6 23 6 24 9 26
ROOT
ATOM      1  C   UNL     1       2.241  45.609  53.704  1.00  0.00     0.193 A 
ATOM      2  N   UNL     1       1.395  44.763  53.117  1.00  0.00    -0.191 NA
ATOM      3  C   UNL     1       0.473  44.257  53.921  1.00  0.00     0.225 A 
ATOM      4  N   UNL     1       0.380  44.508  55.217  1.00  0.00    -0.177 NA
ATOM      5  C   UNL     1       1.296  45.321  55.735  1.00  0.00     0.232 A 
ATOM      6  N   UNL     1       2.255  45.880  55.005  1.00  0.00    -0.191 NA
ENDROOT
BRANCH   1   7
ATOM      7  C   UNL     1       3.428  46.109  52.880  1.00  0.00     0.250 C 
ATOM      8  C   UNL     1       2.973  47.260  51.978  1.00  0.00     0.084 C 
BRANCH   7   9
ATOM      9  N   UNL     1       4.051  44.980  52.015  1.00  0.00    -0.323 N 
ATOM     10  C   UNL     1       4.951  45.444  50.887  1.00  0.00     0.284 C 
ATOM     11  C   UNL     1       4.843  43.969  52.848  1.00  0.00     0.284 C 
ATOM     12  C   UNL     1       6.258  46.092  51.395  1.00  0.00     0.181 C 
ATOM     13  C   UNL     1       6.137  44.573  53.436  1.00  0.00     0.181 C 
ATOM     14  N   UNL     1       6.497  45.854  52.819  1.00  0.00    -0.330 N 
ATOM     15  H   UNL     1       3.247  44.474  51.621  1.00  0.00     0.348 HD
BRANCH  14  16
ATOM     16  C   UNL     1       7.643  46.453  53.336  1.00  0.00     0.225 A 
ATOM     17  N   UNL     1       8.803  46.293  52.681  1.00  0.00    -0.221 NA
ATOM     18  N   UNL     1       7.545  47.140  54.484  1.00  0.00    -0.221 NA
ATOM     19  C   UNL     1       9.905  46.863  53.211  1.00  0.00     0.117 A 
ATOM     20  C   UNL     1       8.671  47.692  54.981  1.00  0.00     0.117 A 
ATOM     21  C   UNL     1       9.897  47.583  54.376  1.00  0.00     0.040 A 
ENDBRANCH  14  16
ENDBRANCH   7   9
ENDBRANCH   1   7
BRANCH   3  22
ATOM     22  N   UNL     1      -0.444  43.393  53.372  1.00  0.00    -0.368 N 
ATOM     23  H   UNL     1      -1.226  43.894  52.968  1.00  0.00     0.159 HD
ATOM     24  H   UNL     1      -0.013  42.690  52.787  1.00  0.00     0.159 HD
ENDBRANCH   3  22
BRANCH   5  25
ATOM     25  N   UNL     1       1.220  45.521  57.107  1.00  0.00    -0.324 N 
ATOM     26  H   UNL     1       1.792  44.838  57.587  1.00  0.00     0.170 HD
BRANCH  25  27
ATOM     27  C   UNL     1       0.570  46.460  57.920  1.00  0.00     0.041 A 
ATOM     28  C   UNL     1      -0.730  46.862  57.569  1.00  0.00     0.026 A 
ATOM     29  C   UNL     1       1.131  47.023  59.073  1.00  0.00     0.026 A 
ATOM     30  C   UNL     1      -1.441  47.787  58.340  1.00  0.00     0.002 A 
ATOM     31  C   UNL     1       0.425  47.951  59.846  1.00  0.00     0.002 A 
ATOM     32  C   UNL     1      -0.862  48.332  59.480  1.00  0.00     0.000 A 
ENDBRANCH  25  27
ENDBRANCH   5  25
TORSDOF 6
ENDMDL
MODEL 7
REMARK VINA RESULT:    -7.985      2.327      5.544
REMARK INTER + INTRA:         -11.332
REMARK INTER:                 -10.343
REMARK INTRA:                  -0.989
REMARK UNBOUND:                -0.779
REMARK SMILES CC(c1nc(N)nc(Nc2ccccc2)n1)[NH+]1CCN(c2ncccn2)CC1
REMARK SMILES IDX 3 1 4 2 5 3 7 4 8 5 16 6 2 7 1 8 17 9 18 10 28 11 19 12
REMARK SMILES IDX 27 13 20 14 21 16 22 17 26 18 23 19 25 20 24 21 6 22 9 25
REMARK SMILES IDX 10 27 11 28 15 29 12 30 14 31 13 32
REMARK H PARENT 17 15 6 23 6 24 9 26
ROOT
ATOM      1  C   UNL     1       7.792  46.223  51.470  1.00  0.00     0.193 A 
ATOM      2  N   UNL     1       9.082  46.233  51.802  1.00  0.00    -0.191 NA
ATOM      3  C   UNL     1       9.831  45.372  51.133  1.00  0.00     0.225 A 
ATOM      4  N   UNL     1       9.379  44.521  50.227  1.00  0.00    -0.177 NA
ATOM      5  C   UNL     1       8.070  44.539  49.993  1.00  0.00     0.232 A 
ATOM      6  N   UNL     1       7.241  45.371  50.611  1.00  0.00    -0.191 NA
ENDROOT
BRANCH   1   7
ATOM      7  C   UNL     1       6.838  47.074  52.309  1.00  0.00     0.250 C 
ATOM      8  C   UNL     1       7.333  48.522  52.333  1.00  0.00     0.084 C 
BRANCH   7   9
ATOM      9  N   UNL     1       6.708  46.540  53.762  1.00  0.00    -0.323 N 
ATOM     10  C   UNL     1       5.600  47.162  54.589  1.00  0.00     0.284 C 
ATOM     11  C   UNL     1       6.526  45.022  53.818  1.00  0.00     0.284 C 
ATOM     12  C   UNL     1       4.192  46.783  54.079  1.00  0.00     0.181 C 
ATOM     13  C   UNL     1       5.157  44.570  53.266  1.00  0.00     0.181 C 
ATOM     14  N   UNL     1       4.211  45.680  53.116  1.00  0.00    -0.330 N 
ATOM     15  H   UNL     1       7.615  46.746  54.201  1.00  0.00     0.348 HD
BRANCH  14  16
ATOM     16  C   UNL     1       2.969  45.328  52.594  1.00  0.00     0.225 A 
ATOM     17  N   UNL     1       2.913  44.364  51.663  1.00  0.00    -0.221 NA
ATOM     18  N   UNL     1       1.883  45.989  53.023  1.00  0.00    -0.221 NA
ATOM     19  C   UNL     1       1.703  44.054  51.154  1.00  0.00     0.117 A 
ATOM     20  C   UNL     1       0.693  45.649  52.487  1.00  0.00     0.117 A 
ATOM     21  C   UNL     1       0.542  44.674  51.535  1.00  0.00     0.040 A 
ENDBRANCH  14  16
ENDBRANCH   7   9
ENDBRANCH   1   7
BRANCH   3  22
ATOM     22  N   UNL     1      11.177  45.347  51.415  1.00  0.00    -0.368 N 
ATOM     23  H   UNL     1      11.397  45.940  52.206  1.00  0.00     0.159 HD
ATOM     24  H   UNL     1      11.551  44.409  51.442  1.00  0.00     0.159 HD
ENDBRANCH   3  22
BRANCH   5  25
ATOM     25  N   UNL     1       7.606  43.595  49.084  1.00  0.00    -0.324 N 
ATOM     26  H   UNL     1       8.219  43.561  48.280  1.00  0.00     0.170 HD
BRANCH  25  27
ATOM     27  C   UNL     1       6.533  42.694  49.079  1.00  0.00     0.041 A 
ATOM     28  C   UNL     1       5.891  42.412  50.296  1.00  0.00     0.026 A 
ATOM     29  C   UNL     1       6.047  42.057  47.930  1.00  0.00     0.026 A 
ATOM     30  C   UNL     1       4.806  41.532  50.364  1.00  0.00     0.002 A 
ATOM     31  C   UNL     1       4.964  41.173  47.992  1.00  0.00     0.002 A 
ATOM     32  C   UNL     1       4.343  40.911  49.209  1.00  0.00     0.000 A 
ENDBRANCH  25  27
ENDBRANCH   5  25
TORSDOF 6
ENDMDL
MODEL 8
REMARK VINA RESULT:    -7.919      2.256      8.539
REMARK INTER + INTRA:         -11.245
REMARK INTER:                 -10.681
REMARK INTRA:                  -0.563
REMARK UNBOUND:                -0.779
REMARK SMILES CC(c1nc(N)nc(Nc2ccccc2)n1)[NH+]1CCN(c2ncccn2)CC1
REMARK SMILES IDX 3 1 4 2 5 3 7 4 8 5 16 6 2 7 1 8 17 9 18 10 28 11 19 12
REMARK SMILES IDX 27 13 20 14 21 16 22 17 26 18 23 19 25 20 24 21 6 22 9 25
REMARK SMILES IDX 10 27 11 28 15 29 12 30 14 31 13 32
REMARK H PARENT 17 15 6 23 6 24 9 26
ROOT
ATOM      1  C   UNL     1       2.211  44.836  53.910  1.00  0.00     0.193 A 
ATOM      2  N   UNL     1       2.048  43.610  53.415  1.00  0.00    -0.191 NA
ATOM      3  C   UNL     1       0.823  43.123  53.536  1.00  0.00     0.225 A 
ATOM      4  N   UNL     1      -0.183  43.747  54.126  1.00  0.00    -0.177 NA
ATOM      5  C   UNL     1       0.078  44.945  54.641  1.00  0.00     0.232 A 
ATOM      6  N   UNL     1       1.274  45.516  54.563  1.00  0.00    -0.191 NA
ENDROOT
BRANCH   1   7
ATOM      7  C   UNL     1       3.632  45.400  53.952  1.00  0.00     0.250 C 
ATOM      8  C   UNL     1       4.091  45.518  55.408  1.00  0.00     0.084 C 
BRANCH   7   9
ATOM      9  N   UNL     1       3.727  46.786  53.258  1.00  0.00    -0.323 N 
ATOM     10  C   UNL     1       5.108  47.412  53.239  1.00  0.00     0.284 C 
ATOM     11  C   UNL     1       3.215  46.759  51.815  1.00  0.00     0.284 C 
ATOM     12  C   UNL     1       6.101  46.639  52.344  1.00  0.00     0.181 C 
ATOM     13  C   UNL     1       4.136  45.949  50.877  1.00  0.00     0.181 C 
ATOM     14  N   UNL     1       5.444  45.661  51.474  1.00  0.00    -0.330 N 
ATOM     15  H   UNL     1       3.087  47.392  53.788  1.00  0.00     0.348 HD
BRANCH  14  16
ATOM     16  C   UNL     1       6.302  44.908  50.677  1.00  0.00     0.225 A 
ATOM     17  N   UNL     1       7.535  45.379  50.436  1.00  0.00    -0.221 NA
ATOM     18  N   UNL     1       5.848  43.757  50.157  1.00  0.00    -0.221 NA
ATOM     19  C   UNL     1       8.341  44.644  49.642  1.00  0.00     0.117 A 
ATOM     20  C   UNL     1       6.686  43.055  49.368  1.00  0.00     0.117 A 
ATOM     21  C   UNL     1       7.963  43.457  49.072  1.00  0.00     0.040 A 
ENDBRANCH  14  16
ENDBRANCH   7   9
ENDBRANCH   1   7
BRANCH   3  22
ATOM     22  N   UNL     1       0.585  41.869  53.026  1.00  0.00    -0.368 N 
ATOM     23  H   UNL     1       0.500  41.891  52.017  1.00  0.00     0.159 HD
ATOM     24  H   UNL     1       1.208  41.170  53.406  1.00  0.00     0.159 HD
ENDBRANCH   3  22
BRANCH   5  25
ATOM     25  N   UNL     1      -0.975  45.556  55.312  1.00  0.00    -0.324 N 
ATOM     26  H   UNL     1      -1.107  46.496  54.962  1.00  0.00     0.170 HD
BRANCH  25  27
ATOM     27  C   UNL     1      -1.873  45.136  56.302  1.00  0.00     0.041 A 
ATOM     28  C   UNL     1      -2.067  43.756  56.487  1.00  0.00     0.026 A 
ATOM     29  C   UNL     1      -2.592  46.005  57.131  1.00  0.00     0.026 A 
ATOM     30  C   UNL     1      -2.939  43.265  57.463  1.00  0.00     0.002 A 
ATOM     31  C   UNL     1      -3.469  45.519  58.108  1.00  0.00     0.002 A 
ATOM     32  C   UNL     1      -3.642  44.149  58.274  1.00  0.00     0.000 A 
ENDBRANCH  25  27
ENDBRANCH   5  25
TORSDOF 6
ENDMDL
MODEL 9
REMARK VINA RESULT:    -7.872      1.912      5.118
REMARK INTER + INTRA:         -11.182
REMARK INTER:                 -10.405
REMARK INTRA:                  -0.777
REMARK UNBOUND:                -0.779
REMARK SMILES CC(c1nc(N)nc(Nc2ccccc2)n1)[NH+]1CCN(c2ncccn2)CC1
REMARK SMILES IDX 3 1 4 2 5 3 7 4 8 5 16 6 2 7 1 8 17 9 18 10 28 11 19 12
REMARK SMILES IDX 27 13 20 14 21 16 22 17 26 18 23 19 25 20 24 21 6 22 9 25
REMARK SMILES IDX 10 27 11 28 15 29 12 30 14 31 13 32
REMARK H PARENT 17 15 6 23 6 24 9 26
ROOT
ATOM      1  C   UNL     1       5.938  46.775  52.698  1.00  0.00     0.193 A 
ATOM      2  N   UNL     1       7.011  47.324  53.265  1.00  0.00    -0.191 NA
ATOM      3  C   UNL     1       8.157  47.044  52.665  1.00  0.00     0.225 A 
ATOM      4  N   UNL     1       8.285  46.258  51.609  1.00  0.00    -0.177 NA
ATOM      5  C   UNL     1       7.171  45.707  51.136  1.00  0.00     0.232 A 
ATOM      6  N   UNL     1       5.976  45.934  51.669  1.00  0.00    -0.191 NA
ENDROOT
BRANCH   1   7
ATOM      7  C   UNL     1       4.600  46.920  53.424  1.00  0.00     0.250 C 
ATOM      8  C   UNL     1       4.464  48.347  53.963  1.00  0.00     0.084 C 
BRANCH   7   9
ATOM      9  N   UNL     1       4.460  45.904  54.591  1.00  0.00    -0.323 N 
ATOM     10  C   UNL     1       3.180  46.010  55.397  1.00  0.00     0.284 C 
ATOM     11  C   UNL     1       4.591  44.452  54.127  1.00  0.00     0.284 C 
ATOM     12  C   UNL     1       1.930  45.603  54.587  1.00  0.00     0.181 C 
ATOM     13  C   UNL     1       3.397  43.998  53.259  1.00  0.00     0.181 C 
ATOM     14  N   UNL     1       2.259  44.919  53.334  1.00  0.00    -0.330 N 
ATOM     15  H   UNL     1       5.263  46.093  55.204  1.00  0.00     0.348 HD
BRANCH  14  16
ATOM     16  C   UNL     1       1.166  44.568  52.546  1.00  0.00     0.225 A 
ATOM     17  N   UNL     1      -0.011  45.172  52.774  1.00  0.00    -0.221 NA
ATOM     18  N   UNL     1       1.327  43.619  51.612  1.00  0.00    -0.221 NA
ATOM     19  C   UNL     1      -1.062  44.801  52.014  1.00  0.00     0.117 A 
ATOM     20  C   UNL     1       0.250  43.276  50.877  1.00  0.00     0.117 A 
ATOM     21  C   UNL     1      -0.988  43.843  51.038  1.00  0.00     0.040 A 
ENDBRANCH  14  16
ENDBRANCH   7   9
ENDBRANCH   1   7
BRANCH   3  22
ATOM     22  N   UNL     1       9.301  47.598  53.190  1.00  0.00    -0.368 N 
ATOM     23  H   UNL     1       9.771  48.183  52.511  1.00  0.00     0.159 HD
ATOM     24  H   UNL     1       9.152  48.003  54.103  1.00  0.00     0.159 HD
ENDBRANCH   3  22
BRANCH   5  25
ATOM     25  N   UNL     1       7.334  44.835  50.067  1.00  0.00    -0.324 N 
ATOM     26  H   UNL     1       8.103  45.143  49.486  1.00  0.00     0.170 HD
BRANCH  25  27
ATOM     27  C   UNL     1       6.703  43.647  49.673  1.00  0.00     0.041 A 
ATOM     28  C   UNL     1       5.871  42.994  50.599  1.00  0.00     0.026 A 
ATOM     29  C   UNL     1       6.841  43.067  48.407  1.00  0.00     0.026 A 
ATOM     30  C   UNL     1       5.202  41.811  50.271  1.00  0.00     0.002 A 
ATOM     31  C   UNL     1       6.175  41.881  48.074  1.00  0.00     0.002 A 
ATOM     32  C   UNL     1       5.354  41.254  49.006  1.00  0.00     0.000 A 
ENDBRANCH  25  27
ENDBRANCH   5  25
TORSDOF 6
ENDMDL
MODEL 10
REMARK VINA RESULT:    -7.814      2.213      8.544
REMARK INTER + INTRA:         -11.106
REMARK INTER:                 -10.231
REMARK INTRA:                  -0.875
REMARK UNBOUND:                -0.779
REMARK SMILES CC(c1nc(N)nc(Nc2ccccc2)n1)[NH+]1CCN(c2ncccn2)CC1
REMARK SMILES IDX 3 1 4 2 5 3 7 4 8 5 16 6 2 7 1 8 17 9 18 10 28 11 19 12
REMARK SMILES IDX 27 13 20 14 21 16 22 17 26 18 23 19 25 20 24 21 6 22 9 25
REMARK SMILES IDX 10 27 11 28 15 29 12 30 14 31 13 32
REMARK H PARENT 17 15 6 23 6 24 9 26
ROOT
ATOM      1  C   UNL     1       2.607  45.041  54.820  1.00  0.00     0.193 A 
ATOM      2  N   UNL     1       2.293  45.647  55.964  1.00  0.00    -0.191 NA
ATOM      3  C   UNL     1       1.037  45.482  56.350  1.00  0.00     0.225 A 
ATOM      4  N   UNL     1       0.120  44.812  55.673  1.00  0.00    -0.177 NA
ATOM      5  C   UNL     1       0.502  44.281  54.515  1.00  0.00     0.232 A 
ATOM      6  N   UNL     1       1.741  44.390  54.049  1.00  0.00    -0.191 NA
ENDROOT
BRANCH   1   7
ATOM      7  C   UNL     1       3.989  45.317  54.228  1.00  0.00     0.250 C 
ATOM      8  C   UNL     1       5.051  45.170  55.322  1.00  0.00     0.084 C 
BRANCH   7   9
ATOM      9  N   UNL     1       4.079  46.734  53.598  1.00  0.00    -0.323 N 
ATOM     10  C   UNL     1       5.476  47.312  53.489  1.00  0.00     0.284 C 
ATOM     11  C   UNL     1       3.444  46.802  52.207  1.00  0.00     0.284 C 
ATOM     12  C   UNL     1       6.357  46.553  52.472  1.00  0.00     0.181 C 
ATOM     13  C   UNL     1       4.247  46.011  51.152  1.00  0.00     0.181 C 
ATOM     14  N   UNL     1       5.589  45.646  51.616  1.00  0.00    -0.330 N 
ATOM     15  H   UNL     1       3.512  47.333  54.212  1.00  0.00     0.348 HD
BRANCH  14  16
ATOM     16  C   UNL     1       6.344  44.907  50.709  1.00  0.00     0.225 A 
ATOM     17  N   UNL     1       5.811  43.790  50.189  1.00  0.00    -0.221 NA
ATOM     18  N   UNL     1       7.585  45.324  50.416  1.00  0.00    -0.221 NA
ATOM     19  C   UNL     1       6.567  43.076  49.330  1.00  0.00     0.117 A 
ATOM     20  C   UNL     1       8.308  44.580  49.555  1.00  0.00     0.117 A 
ATOM     21  C   UNL     1       7.842  43.429  48.973  1.00  0.00     0.040 A 
ENDBRANCH  14  16
ENDBRANCH   7   9
ENDBRANCH   1   7
BRANCH   3  22
ATOM     22  N   UNL     1       0.655  46.067  57.534  1.00  0.00    -0.368 N 
ATOM     23  H   UNL     1       1.056  45.584  58.329  1.00  0.00     0.159 HD
ATOM     24  H   UNL     1       0.759  47.072  57.522  1.00  0.00     0.159 HD
ENDBRANCH   3  22
BRANCH   5  25
ATOM     25  N   UNL     1      -0.491  43.635  53.789  1.00  0.00    -0.324 N 
ATOM     26  H   UNL     1      -0.835  42.839  54.310  1.00  0.00     0.170 HD
BRANCH  25  27
ATOM     27  C   UNL     1      -1.111  43.879  52.556  1.00  0.00     0.041 A 
ATOM     28  C   UNL     1      -1.784  45.100  52.376  1.00  0.00     0.026 A 
ATOM     29  C   UNL     1      -1.098  42.984  51.479  1.00  0.00     0.026 A 
ATOM     30  C   UNL     1      -2.415  45.415  51.169  1.00  0.00     0.002 A 
ATOM     31  C   UNL     1      -1.731  43.293  50.270  1.00  0.00     0.002 A 
ATOM     32  C   UNL     1      -2.389  44.509  50.114  1.00  0.00     0.000 A 
ENDBRANCH  25  27
ENDBRANCH   5  25
TORSDOF 6
ENDMDL
