MODEL 1
REMARK VINA RESULT:   -10.370      0.000      0.000
REMARK INTER + INTRA:         -14.416
REMARK INTER:                 -13.401
REMARK INTRA:                  -1.015
REMARK UNBOUND:                -1.015
REMARK SMILES O=C(Nc1ccccc1)C1CCC[NH+](Cc2nc(-c3ccc(F)cc3)no2)C1
REMARK SMILES IDX 15 1 14 2 10 3 11 4 28 5 12 6 13 7 2 9 3 10 1 11 4 13 5 14
REMARK SMILES IDX 9 15 6 16 8 17 7 18 16 19 17 20 27 21 18 22 26 23 19 24
REMARK SMILES IDX 20 25 25 26 21 27 24 28 22 29 23 30
REMARK H PARENT 14 8 3 12
ROOT
ATOM      1  C   UNL     1       3.197  45.916  55.826  1.00  0.00     0.364 C 
ENDROOT
BRANCH   1   2
ATOM      2  N   UNL     1       2.319  44.832  55.179  1.00  0.00    -0.326 N 
ATOM      3  C   UNL     1       1.995  43.264  53.250  1.00  0.00     0.134 C 
ATOM      4  C   UNL     1       0.525  43.680  53.176  1.00  0.00     0.025 C 
ATOM      5  C   UNL     1       2.859  44.393  53.823  1.00  0.00     0.276 C 
ATOM      6  C   UNL     1       0.021  44.178  54.528  1.00  0.00     0.062 C 
ATOM      7  C   UNL     1       0.887  45.296  55.087  1.00  0.00     0.262 C 
ATOM      8  H   UNL     1       2.362  44.021  55.809  1.00  0.00     0.348 HD
BRANCH   3   9
ATOM      9  C   UNL     1       2.544  42.894  51.876  1.00  0.00     0.233 C 
ATOM     10  N   UNL     1       3.920  42.766  51.855  1.00  0.00    -0.326 N 
ATOM     11  O   UNL     1       1.775  42.748  50.934  1.00  0.00    -0.274 OA
ATOM     12  H   UNL     1       4.425  42.873  52.726  1.00  0.00     0.169 HD
BRANCH  10  13
ATOM     13  C   UNL     1       4.736  42.485  50.736  1.00  0.00     0.041 A 
ATOM     14  C   UNL     1       4.586  41.364  49.918  1.00  0.00     0.026 A 
ATOM     15  C   UNL     1       5.745  43.412  50.437  1.00  0.00     0.026 A 
ATOM     16  C   UNL     1       5.430  41.171  48.819  1.00  0.00     0.002 A 
ATOM     17  C   UNL     1       6.590  43.218  49.340  1.00  0.00     0.002 A 
ATOM     18  C   UNL     1       6.430  42.098  48.530  1.00  0.00     0.000 A 
ENDBRANCH  10  13
ENDBRANCH   3   9
ENDBRANCH   1   2
BRANCH   1  19
ATOM     19  C   UNL     1       4.280  46.454  54.962  1.00  0.00     0.282 A 
ATOM     20  N   UNL     1       5.487  45.986  54.746  1.00  0.00    -0.186 NA
ATOM     21  O   UNL     1       4.024  47.615  54.305  1.00  0.00    -0.333 OA
ATOM     22  C   UNL     1       6.012  46.905  53.853  1.00  0.00     0.202 A 
ATOM     23  N   UNL     1       5.170  47.915  53.578  1.00  0.00    -0.057 NA
BRANCH  22  24
ATOM     24  C   UNL     1       7.349  46.766  53.284  1.00  0.00     0.023 A 
ATOM     25  C   UNL     1       7.514  46.262  51.982  1.00  0.00     0.015 A 
ATOM     26  C   UNL     1       8.492  47.142  54.014  1.00  0.00     0.015 A 
ATOM     27  C   UNL     1       8.790  46.139  51.423  1.00  0.00     0.040 A 
ATOM     28  C   UNL     1       9.767  47.013  53.455  1.00  0.00     0.040 A 
ATOM     29  C   UNL     1       9.903  46.515  52.165  1.00  0.00     0.123 A 
ATOM     30  F   UNL     1      11.125  46.400  51.626  1.00  0.00    -0.207 F 
ENDBRANCH  22  24
ENDBRANCH   1  19
TORSDOF 5
ENDMDL
MODEL 2
REMARK VINA RESULT:    -9.259      2.976      6.235
REMARK INTER + INTRA:         -12.980
REMARK INTER:                 -12.302
REMARK INTRA:                  -0.678
REMARK UNBOUND:                -1.015
REMARK SMILES O=C(Nc1ccccc1)C1CCC[NH+](Cc2nc(-c3ccc(F)cc3)no2)C1
REMARK SMILES IDX 15 1 14 2 10 3 11 4 28 5 12 6 13 7 2 9 3 10 1 11 4 13 5 14
REMARK SMILES IDX 9 15 6 16 8 17 7 18 16 19 17 20 27 21 18 22 26 23 19 24
REMARK SMILES IDX 20 25 25 26 21 27 24 28 22 29 23 30
REMARK H PARENT 14 8 3 12
ROOT
ATOM      1  C   UNL     1       6.972  47.214  54.566  1.00  0.00     0.364 C 
ENDROOT
BRANCH   1   2
ATOM      2  N   UNL     1       7.902  47.080  53.348  1.00  0.00    -0.326 N 
ATOM      3  C   UNL     1       8.327  45.972  51.140  1.00  0.00     0.134 C 
ATOM      4  C   UNL     1       9.785  45.749  51.547  1.00  0.00     0.025 C 
ATOM      5  C   UNL     1       7.412  46.019  52.369  1.00  0.00     0.276 C 
ATOM      6  C   UNL     1      10.236  46.782  52.576  1.00  0.00     0.062 C 
ATOM      7  C   UNL     1       9.320  46.821  53.790  1.00  0.00     0.262 C 
ATOM      8  H   UNL     1       7.868  47.988  52.866  1.00  0.00     0.348 HD
BRANCH   3   9
ATOM      9  C   UNL     1       7.826  44.866  50.217  1.00  0.00     0.233 C 
ATOM     10  N   UNL     1       6.693  44.233  50.688  1.00  0.00    -0.326 N 
ATOM     11  O   UNL     1       8.430  44.623  49.178  1.00  0.00    -0.274 OA
ATOM     12  H   UNL     1       6.276  44.573  51.546  1.00  0.00     0.169 HD
BRANCH  10  13
ATOM     13  C   UNL     1       6.016  43.141  50.100  1.00  0.00     0.041 A 
ATOM     14  C   UNL     1       6.356  42.578  48.869  1.00  0.00     0.026 A 
ATOM     15  C   UNL     1       4.945  42.594  50.821  1.00  0.00     0.026 A 
ATOM     16  C   UNL     1       5.640  41.487  48.366  1.00  0.00     0.002 A 
ATOM     17  C   UNL     1       4.227  41.504  50.318  1.00  0.00     0.002 A 
ATOM     18  C   UNL     1       4.577  40.950  49.091  1.00  0.00     0.000 A 
ENDBRANCH  10  13
ENDBRANCH   3   9
ENDBRANCH   1   2
BRANCH   1  19
ATOM     19  C   UNL     1       5.540  46.921  54.304  1.00  0.00     0.282 A 
ATOM     20  N   UNL     1       4.894  45.780  54.369  1.00  0.00    -0.186 NA
ATOM     21  O   UNL     1       4.760  47.962  53.910  1.00  0.00    -0.333 OA
ATOM     22  C   UNL     1       3.602  46.143  54.029  1.00  0.00     0.202 A 
ATOM     23  N   UNL     1       3.483  47.446  53.723  1.00  0.00    -0.057 NA
BRANCH  22  24
ATOM     24  C   UNL     1       2.500  45.186  54.011  1.00  0.00     0.023 A 
ATOM     25  C   UNL     1       2.574  44.038  53.203  1.00  0.00     0.015 A 
ATOM     26  C   UNL     1       1.355  45.383  54.805  1.00  0.00     0.015 A 
ATOM     27  C   UNL     1       1.529  43.109  53.191  1.00  0.00     0.040 A 
ATOM     28  C   UNL     1       0.310  44.454  54.787  1.00  0.00     0.040 A 
ATOM     29  C   UNL     1       0.408  43.326  53.982  1.00  0.00     0.123 A 
ATOM     30  F   UNL     1      -0.590  42.432  53.971  1.00  0.00    -0.207 F 
ENDBRANCH  22  24
ENDBRANCH   1  19
TORSDOF 5
ENDMDL
MODEL 3
REMARK VINA RESULT:    -9.054      1.438      5.108
REMARK INTER + INTRA:         -12.715
REMARK INTER:                 -11.971
REMARK INTRA:                  -0.744
REMARK UNBOUND:                -1.015
REMARK SMILES O=C(Nc1ccccc1)C1CCC[NH+](Cc2nc(-c3ccc(F)cc3)no2)C1
REMARK SMILES IDX 15 1 14 2 10 3 11 4 28 5 12 6 13 7 2 9 3 10 1 11 4 13 5 14
REMARK SMILES IDX 9 15 6 16 8 17 7 18 16 19 17 20 27 21 18 22 26 23 19 24
REMARK SMILES IDX 20 25 25 26 21 27 24 28 22 29 23 30
REMARK H PARENT 14 8 3 12
ROOT
ATOM      1  C   UNL     1       1.438  43.638  52.428  1.00  0.00     0.364 C 
ENDROOT
BRANCH   1   2
ATOM      2  N   UNL     1       1.601  44.741  53.487  1.00  0.00    -0.326 N 
ATOM      3  C   UNL     1       3.035  46.585  54.400  1.00  0.00     0.134 C 
ATOM      4  C   UNL     1       2.775  46.069  55.816  1.00  0.00     0.025 C 
ATOM      5  C   UNL     1       2.947  45.449  53.374  1.00  0.00     0.276 C 
ATOM      6  C   UNL     1       1.454  45.308  55.894  1.00  0.00     0.062 C 
ATOM      7  C   UNL     1       1.377  44.185  54.871  1.00  0.00     0.262 C 
ATOM      8  H   UNL     1       0.868  45.434  53.289  1.00  0.00     0.348 HD
BRANCH   3   9
ATOM      9  C   UNL     1       4.413  47.227  54.280  1.00  0.00     0.233 C 
ATOM     10  N   UNL     1       5.310  46.465  53.558  1.00  0.00    -0.326 N 
ATOM     11  O   UNL     1       4.624  48.314  54.806  1.00  0.00    -0.274 OA
ATOM     12  H   UNL     1       4.980  45.603  53.142  1.00  0.00     0.169 HD
BRANCH  10  13
ATOM     13  C   UNL     1       6.672  46.751  53.311  1.00  0.00     0.041 A 
ATOM     14  C   UNL     1       7.736  46.101  53.940  1.00  0.00     0.026 A 
ATOM     15  C   UNL     1       6.951  47.744  52.362  1.00  0.00     0.026 A 
ATOM     16  C   UNL     1       9.057  46.437  53.625  1.00  0.00     0.002 A 
ATOM     17  C   UNL     1       8.271  48.082  52.048  1.00  0.00     0.002 A 
ATOM     18  C   UNL     1       9.324  47.426  52.679  1.00  0.00     0.000 A 
ENDBRANCH  10  13
ENDBRANCH   3   9
ENDBRANCH   1   2
BRANCH   1  19
ATOM     19  C   UNL     1       2.687  43.246  51.726  1.00  0.00     0.282 A 
ATOM     20  N   UNL     1       3.675  43.995  51.294  1.00  0.00    -0.186 NA
ATOM     21  O   UNL     1       2.849  41.926  51.448  1.00  0.00    -0.333 OA
ATOM     22  C   UNL     1       4.540  43.067  50.741  1.00  0.00     0.202 A 
ATOM     23  N   UNL     1       4.069  41.809  50.793  1.00  0.00    -0.057 NA
BRANCH  22  24
ATOM     24  C   UNL     1       5.827  43.444  50.165  1.00  0.00     0.023 A 
ATOM     25  C   UNL     1       6.490  44.600  50.612  1.00  0.00     0.015 A 
ATOM     26  C   UNL     1       6.433  42.658  49.167  1.00  0.00     0.015 A 
ATOM     27  C   UNL     1       7.730  44.961  50.076  1.00  0.00     0.040 A 
ATOM     28  C   UNL     1       7.672  43.024  48.630  1.00  0.00     0.040 A 
ATOM     29  C   UNL     1       8.308  44.170  49.091  1.00  0.00     0.123 A 
ATOM     30  F   UNL     1       9.498  44.516  48.581  1.00  0.00    -0.207 F 
ENDBRANCH  22  24
ENDBRANCH   1  19
TORSDOF 5
ENDMDL
MODEL 4
REMARK VINA RESULT:    -8.971      3.568      7.726
REMARK INTER + INTRA:         -12.608
REMARK INTER:                 -12.011
REMARK INTRA:                  -0.597
REMARK UNBOUND:                -1.015
REMARK SMILES O=C(Nc1ccccc1)C1CCC[NH+](Cc2nc(-c3ccc(F)cc3)no2)C1
REMARK SMILES IDX 15 1 14 2 10 3 11 4 28 5 12 6 13 7 2 9 3 10 1 11 4 13 5 14
REMARK SMILES IDX 9 15 6 16 8 17 7 18 16 19 17 20 27 21 18 22 26 23 19 24
REMARK SMILES IDX 20 25 25 26 21 27 24 28 22 29 23 30
REMARK H PARENT 14 8 3 12
ROOT
ATOM      1  C   UNL     1       3.175  42.299  51.927  1.00  0.00     0.364 C 
ENDROOT
BRANCH   1   2
ATOM      2  N   UNL     1       2.954  43.821  51.904  1.00  0.00    -0.326 N 
ATOM      3  C   UNL     1       3.952  46.096  52.249  1.00  0.00     0.134 C 
ATOM      4  C   UNL     1       2.704  46.510  53.031  1.00  0.00     0.025 C 
ATOM      5  C   UNL     1       4.194  44.585  52.356  1.00  0.00     0.276 C 
ATOM      6  C   UNL     1       1.488  45.689  52.610  1.00  0.00     0.062 C 
ATOM      7  C   UNL     1       1.740  44.193  52.718  1.00  0.00     0.262 C 
ATOM      8  H   UNL     1       2.779  44.067  50.921  1.00  0.00     0.348 HD
BRANCH   3   9
ATOM      9  C   UNL     1       5.197  46.814  52.757  1.00  0.00     0.233 C 
ATOM     10  N   UNL     1       6.363  46.107  52.537  1.00  0.00    -0.326 N 
ATOM     11  O   UNL     1       5.089  47.907  53.301  1.00  0.00    -0.274 OA
ATOM     12  H   UNL     1       6.305  45.231  52.033  1.00  0.00     0.169 HD
BRANCH  10  13
ATOM     13  C   UNL     1       7.671  46.469  52.931  1.00  0.00     0.041 A 
ATOM     14  C   UNL     1       8.010  46.911  54.211  1.00  0.00     0.026 A 
ATOM     15  C   UNL     1       8.680  46.358  51.964  1.00  0.00     0.026 A 
ATOM     16  C   UNL     1       9.335  47.236  54.521  1.00  0.00     0.002 A 
ATOM     17  C   UNL     1      10.005  46.685  52.272  1.00  0.00     0.002 A 
ATOM     18  C   UNL     1      10.332  47.122  53.553  1.00  0.00     0.000 A 
ENDBRANCH  10  13
ENDBRANCH   3   9
ENDBRANCH   1   2
BRANCH   1  19
ATOM     19  C   UNL     1       3.665  41.712  50.653  1.00  0.00     0.282 A 
ATOM     20  N   UNL     1       2.993  41.129  49.687  1.00  0.00    -0.186 NA
ATOM     21  O   UNL     1       5.007  41.741  50.437  1.00  0.00    -0.333 OA
ATOM     22  C   UNL     1       3.987  40.806  48.780  1.00  0.00     0.202 A 
ATOM     23  N   UNL     1       5.219  41.137  49.204  1.00  0.00    -0.057 NA
BRANCH  22  24
ATOM     24  C   UNL     1       3.699  40.168  47.498  1.00  0.00     0.023 A 
ATOM     25  C   UNL     1       3.061  38.916  47.460  1.00  0.00     0.015 A 
ATOM     26  C   UNL     1       4.038  40.793  46.284  1.00  0.00     0.015 A 
ATOM     27  C   UNL     1       2.767  38.304  46.238  1.00  0.00     0.040 A 
ATOM     28  C   UNL     1       3.747  40.176  45.063  1.00  0.00     0.040 A 
ATOM     29  C   UNL     1       3.113  38.940  45.052  1.00  0.00     0.123 A 
ATOM     30  F   UNL     1       2.828  38.354  43.881  1.00  0.00    -0.207 F 
ENDBRANCH  22  24
ENDBRANCH   1  19
TORSDOF 5
ENDMDL
MODEL 5
REMARK VINA RESULT:    -8.896      3.790      7.381
REMARK INTER + INTRA:         -12.512
REMARK INTER:                 -11.812
REMARK INTRA:                  -0.700
REMARK UNBOUND:                -1.015
REMARK SMILES O=C(Nc1ccccc1)C1CCC[NH+](Cc2nc(-c3ccc(F)cc3)no2)C1
REMARK SMILES IDX 15 1 14 2 10 3 11 4 28 5 12 6 13 7 2 9 3 10 1 11 4 13 5 14
REMARK SMILES IDX 9 15 6 16 8 17 7 18 16 19 17 20 27 21 18 22 26 23 19 24
REMARK SMILES IDX 20 25 25 26 21 27 24 28 22 29 23 30
REMARK H PARENT 14 8 3 12
ROOT
ATOM      1  C   UNL     1       0.976  43.142  53.567  1.00  0.00     0.364 C 
ENDROOT
BRANCH   1   2
ATOM      2  N   UNL     1       2.028  43.796  52.655  1.00  0.00    -0.326 N 
ATOM      3  C   UNL     1       4.361  44.688  52.440  1.00  0.00     0.134 C 
ATOM      4  C   UNL     1       3.811  45.915  51.711  1.00  0.00     0.025 C 
ATOM      5  C   UNL     1       3.319  44.106  53.403  1.00  0.00     0.276 C 
ATOM      6  C   UNL     1       2.485  45.602  51.022  1.00  0.00     0.062 C 
ATOM      7  C   UNL     1       1.461  45.023  51.986  1.00  0.00     0.262 C 
ATOM      8  H   UNL     1       2.247  43.099  51.932  1.00  0.00     0.348 HD
BRANCH   3   9
ATOM      9  C   UNL     1       5.613  45.027  53.243  1.00  0.00     0.233 C 
ATOM     10  N   UNL     1       6.436  45.940  52.612  1.00  0.00    -0.326 N 
ATOM     11  O   UNL     1       5.799  44.494  54.331  1.00  0.00    -0.274 OA
ATOM     12  H   UNL     1       6.130  46.331  51.730  1.00  0.00     0.169 HD
BRANCH  10  13
ATOM     13  C   UNL     1       7.687  46.418  53.063  1.00  0.00     0.041 A 
ATOM     14  C   UNL     1       7.878  47.102  54.265  1.00  0.00     0.026 A 
ATOM     15  C   UNL     1       8.796  46.169  52.242  1.00  0.00     0.026 A 
ATOM     16  C   UNL     1       9.156  47.528  54.642  1.00  0.00     0.002 A 
ATOM     17  C   UNL     1      10.073  46.597  52.617  1.00  0.00     0.002 A 
ATOM     18  C   UNL     1      10.253  47.275  53.819  1.00  0.00     0.000 A 
ENDBRANCH  10  13
ENDBRANCH   3   9
ENDBRANCH   1   2
BRANCH   1  19
ATOM     19  C   UNL     1       0.302  44.063  54.517  1.00  0.00     0.282 A 
ATOM     20  N   UNL     1       0.781  44.662  55.583  1.00  0.00    -0.186 NA
ATOM     21  O   UNL     1      -1.013  44.323  54.296  1.00  0.00    -0.333 OA
ATOM     22  C   UNL     1      -0.309  45.385  56.039  1.00  0.00     0.202 A 
ATOM     23  N   UNL     1      -1.417  45.191  55.304  1.00  0.00    -0.057 NA
BRANCH  22  24
ATOM     24  C   UNL     1      -0.234  46.261  57.204  1.00  0.00     0.023 A 
ATOM     25  C   UNL     1       0.961  46.358  57.940  1.00  0.00     0.015 A 
ATOM     26  C   UNL     1      -1.341  47.031  57.606  1.00  0.00     0.015 A 
ATOM     27  C   UNL     1       1.046  47.205  59.048  1.00  0.00     0.040 A 
ATOM     28  C   UNL     1      -1.254  47.874  58.718  1.00  0.00     0.040 A 
ATOM     29  C   UNL     1      -0.061  47.954  59.427  1.00  0.00     0.123 A 
ATOM     30  F   UNL     1       0.024  48.769  60.488  1.00  0.00    -0.207 F 
ENDBRANCH  22  24
ENDBRANCH   1  19
TORSDOF 5
ENDMDL
MODEL 6
REMARK VINA RESULT:    -8.530      2.819      6.132
REMARK INTER + INTRA:         -12.039
REMARK INTER:                 -11.481
REMARK INTRA:                  -0.557
REMARK UNBOUND:                -1.015
REMARK SMILES O=C(Nc1ccccc1)C1CCC[NH+](Cc2nc(-c3ccc(F)cc3)no2)C1
REMARK SMILES IDX 15 1 14 2 10 3 11 4 28 5 12 6 13 7 2 9 3 10 1 11 4 13 5 14
REMARK SMILES IDX 9 15 6 16 8 17 7 18 16 19 17 20 27 21 18 22 26 23 19 24
REMARK SMILES IDX 20 25 25 26 21 27 24 28 22 29 23 30
REMARK H PARENT 14 8 3 12
ROOT
ATOM      1  C   UNL     1       3.157  46.055  50.820  1.00  0.00     0.364 C 
ENDROOT
BRANCH   1   2
ATOM      2  N   UNL     1       2.339  44.863  51.344  1.00  0.00    -0.326 N 
ATOM      3  C   UNL     1       0.320  44.095  52.618  1.00  0.00     0.134 C 
ATOM      4  C   UNL     1       1.191  43.079  53.359  1.00  0.00     0.025 C 
ATOM      5  C   UNL     1       1.145  45.311  52.180  1.00  0.00     0.276 C 
ATOM      6  C   UNL     1       2.415  42.692  52.534  1.00  0.00     0.062 C 
ATOM      7  C   UNL     1       3.224  43.905  52.102  1.00  0.00     0.262 C 
ATOM      8  H   UNL     1       1.973  44.384  50.511  1.00  0.00     0.348 HD
BRANCH   3   9
ATOM      9  C   UNL     1      -0.830  44.590  53.489  1.00  0.00     0.233 C 
ATOM     10  N   UNL     1      -0.590  44.450  54.842  1.00  0.00    -0.326 N 
ATOM     11  O   UNL     1      -1.836  45.050  52.961  1.00  0.00    -0.274 OA
ATOM     12  H   UNL     1       0.311  44.093  55.134  1.00  0.00     0.169 HD
BRANCH  10  13
ATOM     13  C   UNL     1      -1.469  44.762  55.904  1.00  0.00     0.041 A 
ATOM     14  C   UNL     1      -1.514  46.000  56.546  1.00  0.00     0.026 A 
ATOM     15  C   UNL     1      -2.354  43.754  56.313  1.00  0.00     0.026 A 
ATOM     16  C   UNL     1      -2.427  46.229  57.581  1.00  0.00     0.002 A 
ATOM     17  C   UNL     1      -3.266  43.982  57.348  1.00  0.00     0.002 A 
ATOM     18  C   UNL     1      -3.304  45.221  57.981  1.00  0.00     0.000 A 
ENDBRANCH  10  13
ENDBRANCH   3   9
ENDBRANCH   1   2
BRANCH   1  19
ATOM     19  C   UNL     1       4.617  45.986  51.085  1.00  0.00     0.282 A 
ATOM     20  N   UNL     1       5.327  46.579  52.018  1.00  0.00    -0.186 NA
ATOM     21  O   UNL     1       5.362  45.229  50.238  1.00  0.00    -0.333 OA
ATOM     22  C   UNL     1       6.608  46.123  51.758  1.00  0.00     0.202 A 
ATOM     23  N   UNL     1       6.677  45.325  50.679  1.00  0.00    -0.057 NA
BRANCH  22  24
ATOM     24  C   UNL     1       7.752  46.490  52.587  1.00  0.00     0.023 A 
ATOM     25  C   UNL     1       7.551  46.986  53.888  1.00  0.00     0.015 A 
ATOM     26  C   UNL     1       9.069  46.345  52.113  1.00  0.00     0.015 A 
ATOM     27  C   UNL     1       8.641  47.326  54.695  1.00  0.00     0.040 A 
ATOM     28  C   UNL     1      10.157  46.691  52.921  1.00  0.00     0.040 A 
ATOM     29  C   UNL     1       9.932  47.176  54.204  1.00  0.00     0.123 A 
ATOM     30  F   UNL     1      10.975  47.500  54.980  1.00  0.00    -0.207 F 
ENDBRANCH  22  24
ENDBRANCH   1  19
TORSDOF 5
ENDMDL
MODEL 7
REMARK VINA RESULT:    -8.444      3.699      7.962
REMARK INTER + INTRA:         -11.928
REMARK INTER:                 -11.266
REMARK INTRA:                  -0.662
REMARK UNBOUND:                -1.015
REMARK SMILES O=C(Nc1ccccc1)C1CCC[NH+](Cc2nc(-c3ccc(F)cc3)no2)C1
REMARK SMILES IDX 15 1 14 2 10 3 11 4 28 5 12 6 13 7 2 9 3 10 1 11 4 13 5 14
REMARK SMILES IDX 9 15 6 16 8 17 7 18 16 19 17 20 27 21 18 22 26 23 19 24
REMARK SMILES IDX 20 25 25 26 21 27 24 28 22 29 23 30
REMARK H PARENT 14 8 3 12
ROOT
ATOM      1  C   UNL     1       4.001  41.401  50.812  1.00  0.00     0.364 C 
ENDROOT
BRANCH   1   2
ATOM      2  N   UNL     1       3.463  42.832  50.983  1.00  0.00    -0.326 N 
ATOM      3  C   UNL     1       3.980  45.218  51.555  1.00  0.00     0.134 C 
ATOM      4  C   UNL     1       2.731  45.264  52.436  1.00  0.00     0.025 C 
ATOM      5  C   UNL     1       4.542  43.794  51.469  1.00  0.00     0.276 C 
ATOM      6  C   UNL     1       1.689  44.249  51.974  1.00  0.00     0.062 C 
ATOM      7  C   UNL     1       2.258  42.840  51.890  1.00  0.00     0.262 C 
ATOM      8  H   UNL     1       3.172  43.139  50.046  1.00  0.00     0.348 HD
BRANCH   3   9
ATOM      9  C   UNL     1       5.079  46.130  52.090  1.00  0.00     0.233 C 
ATOM     10  N   UNL     1       6.328  45.540  52.088  1.00  0.00    -0.326 N 
ATOM     11  O   UNL     1       4.798  47.261  52.470  1.00  0.00    -0.274 OA
ATOM     12  H   UNL     1       6.417  44.609  51.701  1.00  0.00     0.169 HD
BRANCH  10  13
ATOM     13  C   UNL     1       7.537  46.096  52.564  1.00  0.00     0.041 A 
ATOM     14  C   UNL     1       7.751  46.491  53.886  1.00  0.00     0.026 A 
ATOM     15  C   UNL     1       8.580  46.237  51.638  1.00  0.00     0.026 A 
ATOM     16  C   UNL     1       8.987  47.019  54.276  1.00  0.00     0.002 A 
ATOM     17  C   UNL     1       9.814  46.766  52.027  1.00  0.00     0.002 A 
ATOM     18  C   UNL     1      10.018  47.155  53.348  1.00  0.00     0.000 A 
ENDBRANCH  10  13
ENDBRANCH   3   9
ENDBRANCH   1   2
BRANCH   1  19
ATOM     19  C   UNL     1       3.857  40.830  49.449  1.00  0.00     0.282 A 
ATOM     20  N   UNL     1       4.372  41.237  48.312  1.00  0.00    -0.186 NA
ATOM     21  O   UNL     1       3.056  39.740  49.319  1.00  0.00    -0.333 OA
ATOM     22  C   UNL     1       3.890  40.305  47.409  1.00  0.00     0.202 A 
ATOM     23  N   UNL     1       3.074  39.397  47.972  1.00  0.00    -0.057 NA
BRANCH  22  24
ATOM     24  C   UNL     1       4.247  40.330  45.994  1.00  0.00     0.023 A 
ATOM     25  C   UNL     1       5.085  41.343  45.494  1.00  0.00     0.015 A 
ATOM     26  C   UNL     1       3.775  39.343  45.109  1.00  0.00     0.015 A 
ATOM     27  C   UNL     1       5.444  41.366  44.143  1.00  0.00     0.040 A 
ATOM     28  C   UNL     1       4.132  39.372  43.757  1.00  0.00     0.040 A 
ATOM     29  C   UNL     1       4.964  40.382  43.288  1.00  0.00     0.123 A 
ATOM     30  F   UNL     1       5.312  40.404  41.994  1.00  0.00    -0.207 F 
ENDBRANCH  22  24
ENDBRANCH   1  19
TORSDOF 5
ENDMDL
MODEL 8
REMARK VINA RESULT:    -8.392      4.153      5.979
REMARK INTER + INTRA:         -11.860
REMARK INTER:                 -11.443
REMARK INTRA:                  -0.417
REMARK UNBOUND:                -1.015
REMARK SMILES O=C(Nc1ccccc1)C1CCC[NH+](Cc2nc(-c3ccc(F)cc3)no2)C1
REMARK SMILES IDX 15 1 14 2 10 3 11 4 28 5 12 6 13 7 2 9 3 10 1 11 4 13 5 14
REMARK SMILES IDX 9 15 6 16 8 17 7 18 16 19 17 20 27 21 18 22 26 23 19 24
REMARK SMILES IDX 20 25 25 26 21 27 24 28 22 29 23 30
REMARK H PARENT 14 8 3 12
ROOT
ATOM      1  C   UNL     1       7.179  43.364  48.344  1.00  0.00     0.364 C 
ENDROOT
BRANCH   1   2
ATOM      2  N   UNL     1       6.302  42.242  48.922  1.00  0.00    -0.326 N 
ATOM      3  C   UNL     1       4.518  40.533  48.488  1.00  0.00     0.134 C 
ATOM      4  C   UNL     1       3.818  40.955  49.781  1.00  0.00     0.025 C 
ATOM      5  C   UNL     1       5.320  41.696  47.891  1.00  0.00     0.276 C 
ATOM      6  C   UNL     1       4.807  41.558  50.775  1.00  0.00     0.062 C 
ATOM      7  C   UNL     1       5.598  42.709  50.172  1.00  0.00     0.262 C 
ATOM      8  H   UNL     1       6.945  41.480  49.172  1.00  0.00     0.348 HD
BRANCH   3   9
ATOM      9  C   UNL     1       3.519  40.056  47.439  1.00  0.00     0.233 C 
ATOM     10  N   UNL     1       3.563  40.791  46.270  1.00  0.00    -0.326 N 
ATOM     11  O   UNL     1       2.783  39.109  47.688  1.00  0.00    -0.274 OA
ATOM     12  H   UNL     1       4.258  41.522  46.189  1.00  0.00     0.169 HD
BRANCH  10  13
ATOM     13  C   UNL     1       2.738  40.638  45.132  1.00  0.00     0.041 A 
ATOM     14  C   UNL     1       2.899  39.635  44.176  1.00  0.00     0.026 A 
ATOM     15  C   UNL     1       1.688  41.556  44.981  1.00  0.00     0.026 A 
ATOM     16  C   UNL     1       2.027  39.548  43.086  1.00  0.00     0.002 A 
ATOM     17  C   UNL     1       0.817  41.470  43.891  1.00  0.00     0.002 A 
ATOM     18  C   UNL     1       0.986  40.464  42.944  1.00  0.00     0.000 A 
ENDBRANCH  10  13
ENDBRANCH   3   9
ENDBRANCH   1   2
BRANCH   1  19
ATOM     19  C   UNL     1       8.022  44.083  49.335  1.00  0.00     0.282 A 
ATOM     20  N   UNL     1       7.683  44.994  50.217  1.00  0.00    -0.186 NA
ATOM     21  O   UNL     1       9.351  43.798  49.336  1.00  0.00    -0.333 OA
ATOM     22  C   UNL     1       8.885  45.270  50.845  1.00  0.00     0.202 A 
ATOM     23  N   UNL     1       9.920  44.586  50.329  1.00  0.00    -0.057 NA
BRANCH  22  24
ATOM     24  C   UNL     1       8.990  46.214  51.954  1.00  0.00     0.023 A 
ATOM     25  C   UNL     1       8.149  47.340  52.005  1.00  0.00     0.015 A 
ATOM     26  C   UNL     1       9.917  46.013  52.993  1.00  0.00     0.015 A 
ATOM     27  C   UNL     1       8.232  48.241  53.070  1.00  0.00     0.040 A 
ATOM     28  C   UNL     1      10.001  46.919  54.055  1.00  0.00     0.040 A 
ATOM     29  C   UNL     1       9.157  48.023  54.084  1.00  0.00     0.123 A 
ATOM     30  F   UNL     1       9.232  48.886  55.106  1.00  0.00    -0.207 F 
ENDBRANCH  22  24
ENDBRANCH   1  19
TORSDOF 5
ENDMDL
MODEL 9
REMARK VINA RESULT:    -8.320      2.714      5.765
REMARK INTER + INTRA:         -11.767
REMARK INTER:                 -11.801
REMARK INTRA:                   0.034
REMARK UNBOUND:                -1.015
REMARK SMILES O=C(Nc1ccccc1)C1CCC[NH+](Cc2nc(-c3ccc(F)cc3)no2)C1
REMARK SMILES IDX 15 1 14 2 10 3 11 4 28 5 12 6 13 7 2 9 3 10 1 11 4 13 5 14
REMARK SMILES IDX 9 15 6 16 8 17 7 18 16 19 17 20 27 21 18 22 26 23 19 24
REMARK SMILES IDX 20 25 25 26 21 27 24 28 22 29 23 30
REMARK H PARENT 14 8 3 12
ROOT
ATOM      1  C   UNL     1       7.434  43.521  48.742  1.00  0.00     0.364 C 
ENDROOT
BRANCH   1   2
ATOM      2  N   UNL     1       6.084  43.018  49.281  1.00  0.00    -0.326 N 
ATOM      3  C   UNL     1       4.158  43.424  50.834  1.00  0.00     0.134 C 
ATOM      4  C   UNL     1       4.220  41.960  51.273  1.00  0.00     0.025 C 
ATOM      5  C   UNL     1       5.535  43.922  50.379  1.00  0.00     0.276 C 
ATOM      6  C   UNL     1       4.833  41.081  50.185  1.00  0.00     0.062 C 
ATOM      7  C   UNL     1       6.197  41.586  49.740  1.00  0.00     0.262 C 
ATOM      8  H   UNL     1       5.430  43.059  48.488  1.00  0.00     0.348 HD
BRANCH   3   9
ATOM      9  C   UNL     1       3.675  44.328  51.963  1.00  0.00     0.233 C 
ATOM     10  N   UNL     1       2.868  43.677  52.876  1.00  0.00    -0.326 N 
ATOM     11  O   UNL     1       4.010  45.507  51.982  1.00  0.00    -0.274 OA
ATOM     12  H   UNL     1       2.712  42.685  52.756  1.00  0.00     0.169 HD
BRANCH  10  13
ATOM     13  C   UNL     1       2.222  44.240  54.000  1.00  0.00     0.041 A 
ATOM     14  C   UNL     1       2.878  44.941  55.013  1.00  0.00     0.026 A 
ATOM     15  C   UNL     1       0.830  44.085  54.077  1.00  0.00     0.026 A 
ATOM     16  C   UNL     1       2.157  45.479  56.084  1.00  0.00     0.002 A 
ATOM     17  C   UNL     1       0.109  44.621  55.149  1.00  0.00     0.002 A 
ATOM     18  C   UNL     1       0.774  45.320  56.152  1.00  0.00     0.000 A 
ENDBRANCH  10  13
ENDBRANCH   3   9
ENDBRANCH   1   2
BRANCH   1  19
ATOM     19  C   UNL     1       8.250  44.301  49.707  1.00  0.00     0.282 A 
ATOM     20  N   UNL     1       7.866  45.140  50.641  1.00  0.00    -0.186 NA
ATOM     21  O   UNL     1       9.600  44.173  49.618  1.00  0.00    -0.333 OA
ATOM     22  C   UNL     1       9.066  45.534  51.207  1.00  0.00     0.202 A 
ATOM     23  N   UNL     1      10.138  44.991  50.604  1.00  0.00    -0.057 NA
BRANCH  22  24
ATOM     24  C   UNL     1       9.133  46.450  52.342  1.00  0.00     0.023 A 
ATOM     25  C   UNL     1       8.354  47.621  52.352  1.00  0.00     0.015 A 
ATOM     26  C   UNL     1       9.960  46.177  53.447  1.00  0.00     0.015 A 
ATOM     27  C   UNL     1       8.401  48.495  53.441  1.00  0.00     0.040 A 
ATOM     28  C   UNL     1      10.008  47.056  54.533  1.00  0.00     0.040 A 
ATOM     29  C   UNL     1       9.226  48.206  54.520  1.00  0.00     0.123 A 
ATOM     30  F   UNL     1       9.266  49.043  55.565  1.00  0.00    -0.207 F 
ENDBRANCH  22  24
ENDBRANCH   1  19
TORSDOF 5
ENDMDL
MODEL 10
REMARK VINA RESULT:    -8.203      3.187      6.869
REMARK INTER + INTRA:         -11.616
REMARK INTER:                 -10.982
REMARK INTRA:                  -0.633
REMARK UNBOUND:                -1.015
REMARK SMILES O=C(Nc1ccccc1)C1CCC[NH+](Cc2nc(-c3ccc(F)cc3)no2)C1
REMARK SMILES IDX 15 1 14 2 10 3 11 4 28 5 12 6 13 7 2 9 3 10 1 11 4 13 5 14
REMARK SMILES IDX 9 15 6 16 8 17 7 18 16 19 17 20 27 21 18 22 26 23 19 24
REMARK SMILES IDX 20 25 25 26 21 27 24 28 22 29 23 30
REMARK H PARENT 14 8 3 12
ROOT
ATOM      1  C   UNL     1       2.391  43.231  52.769  1.00  0.00     0.364 C 
ENDROOT
BRANCH   1   2
ATOM      2  N   UNL     1       1.058  43.872  53.191  1.00  0.00    -0.326 N 
ATOM      3  C   UNL     1      -0.255  44.985  55.015  1.00  0.00     0.134 C 
ATOM      4  C   UNL     1      -1.456  44.102  54.671  1.00  0.00     0.025 C 
ATOM      5  C   UNL     1       1.063  44.286  54.659  1.00  0.00     0.276 C 
ATOM      6  C   UNL     1      -1.408  43.645  53.216  1.00  0.00     0.062 C 
ATOM      7  C   UNL     1      -0.096  42.956  52.873  1.00  0.00     0.262 C 
ATOM      8  H   UNL     1       0.965  44.727  52.627  1.00  0.00     0.348 HD
BRANCH   3   9
ATOM      9  C   UNL     1      -0.221  45.334  56.499  1.00  0.00     0.233 C 
ATOM     10  N   UNL     1      -0.839  46.535  56.791  1.00  0.00    -0.326 N 
ATOM     11  O   UNL     1       0.324  44.573  57.290  1.00  0.00    -0.274 OA
ATOM     12  H   UNL     1      -1.288  47.039  56.037  1.00  0.00     0.169 HD
BRANCH  10  13
ATOM     13  C   UNL     1      -0.933  47.163  58.054  1.00  0.00     0.041 A 
ATOM     14  C   UNL     1       0.167  47.539  58.827  1.00  0.00     0.026 A 
ATOM     15  C   UNL     1      -2.222  47.429  58.537  1.00  0.00     0.026 A 
ATOM     16  C   UNL     1      -0.017  48.171  60.061  1.00  0.00     0.002 A 
ATOM     17  C   UNL     1      -2.407  48.059  59.772  1.00  0.00     0.002 A 
ATOM     18  C   UNL     1      -1.303  48.432  60.533  1.00  0.00     0.000 A 
ENDBRANCH  10  13
ENDBRANCH   3   9
ENDBRANCH   1   2
BRANCH   1  19
ATOM     19  C   UNL     1       3.479  44.188  52.442  1.00  0.00     0.282 A 
ATOM     20  N   UNL     1       4.604  44.423  53.077  1.00  0.00    -0.186 NA
ATOM     21  O   UNL     1       3.302  44.971  51.346  1.00  0.00    -0.333 OA
ATOM     22  C   UNL     1       5.194  45.400  52.293  1.00  0.00     0.202 A 
ATOM     23  N   UNL     1       4.432  45.774  51.251  1.00  0.00    -0.057 NA
BRANCH  22  24
ATOM     24  C   UNL     1       6.513  45.951  52.592  1.00  0.00     0.023 A 
ATOM     25  C   UNL     1       7.454  46.128  51.562  1.00  0.00     0.015 A 
ATOM     26  C   UNL     1       6.863  46.326  53.902  1.00  0.00     0.015 A 
ATOM     27  C   UNL     1       8.714  46.669  51.837  1.00  0.00     0.040 A 
ATOM     28  C   UNL     1       8.126  46.862  54.174  1.00  0.00     0.040 A 
ATOM     29  C   UNL     1       9.038  47.029  53.139  1.00  0.00     0.123 A 
ATOM     30  F   UNL     1      10.244  47.551  53.399  1.00  0.00    -0.207 F 
ENDBRANCH  22  24
ENDBRANCH   1  19
TORSDOF 5
ENDMDL
