MODEL 1
REMARK VINA RESULT:    -9.478      0.000      0.000
REMARK INTER + INTRA:         -13.511
REMARK INTER:                 -12.249
REMARK INTRA:                  -1.263
REMARK UNBOUND:                -1.263
REMARK SMILES Cc1ccc(-c2noc(C[NH+]3CCCC(C(=O)Nc4ccccc4)C3)n2)cc1
REMARK SMILES IDX 10 1 9 2 6 3 7 4 26 5 8 6 5 7 2 8 3 9 28 10 4 11 27 12 1 13
REMARK SMILES IDX 11 14 12 15 25 16 13 17 15 18 14 19 16 21 18 22 17 23 19 25
REMARK SMILES IDX 20 26 24 27 21 28 23 29 22 30
REMARK H PARENT 11 20 18 24
ROOT
ATOM      1  C   UNL     1       2.619  46.049  55.278  1.00  0.00     0.364 C 
ENDROOT
BRANCH   1   2
ATOM      2  C   UNL     1       3.848  46.588  54.642  1.00  0.00     0.282 A 
ATOM      3  C   UNL     1       5.723  46.993  53.776  1.00  0.00     0.202 A 
ATOM      4  N   UNL     1       5.126  48.196  53.852  1.00  0.00    -0.057 NA
ATOM      5  N   UNL     1       4.939  45.964  54.264  1.00  0.00    -0.186 NA
ATOM      6  O   UNL     1       3.887  47.929  54.421  1.00  0.00    -0.333 OA
BRANCH   3   7
ATOM      7  C   UNL     1       7.062  46.764  53.246  1.00  0.00     0.023 A 
ATOM      8  C   UNL     1       9.646  46.324  52.198  1.00  0.00    -0.051 A 
ATOM      9  C   UNL     1       8.519  46.195  51.382  1.00  0.00     0.004 A 
ATOM     10  C   UNL     1       9.474  46.655  53.546  1.00  0.00     0.004 A 
ATOM     11  C   UNL     1       7.239  46.415  51.899  1.00  0.00     0.012 A 
ATOM     12  C   UNL     1       8.194  46.879  54.064  1.00  0.00     0.012 A 
ATOM     13  C   UNL     1      11.017  46.055  51.649  1.00  0.00     0.044 C 
ENDBRANCH   3   7
ENDBRANCH   1   2
BRANCH   1  14
ATOM     14  N   UNL     1       1.606  45.347  54.359  1.00  0.00    -0.326 N 
ATOM     15  C   UNL     1       1.570  43.855  54.570  1.00  0.00     0.262 C 
ATOM     16  C   UNL     1       1.800  45.706  52.891  1.00  0.00     0.276 C 
ATOM     17  C   UNL     1       0.329  43.283  53.888  1.00  0.00     0.062 C 
ATOM     18  C   UNL     1       0.939  44.836  51.957  1.00  0.00     0.134 C 
ATOM     19  C   UNL     1      -0.185  44.116  52.708  1.00  0.00     0.025 C 
ATOM     20  H   UNL     1       0.692  45.714  54.648  1.00  0.00     0.348 HD
BRANCH  18  21
ATOM     21  C   UNL     1       1.804  43.827  51.200  1.00  0.00     0.233 C 
ATOM     22  N   UNL     1       3.154  43.966  51.459  1.00  0.00    -0.326 N 
ATOM     23  O   UNL     1       1.286  43.040  50.416  1.00  0.00    -0.274 OA
ATOM     24  H   UNL     1       3.444  44.679  52.118  1.00  0.00     0.169 HD
BRANCH  22  25
ATOM     25  C   UNL     1       4.214  43.214  50.903  1.00  0.00     0.041 A 
ATOM     26  C   UNL     1       4.203  41.825  50.766  1.00  0.00     0.026 A 
ATOM     27  C   UNL     1       5.339  43.927  50.469  1.00  0.00     0.026 A 
ATOM     28  C   UNL     1       5.297  41.159  50.202  1.00  0.00     0.002 A 
ATOM     29  C   UNL     1       6.432  43.263  49.907  1.00  0.00     0.002 A 
ATOM     30  C   UNL     1       6.410  41.878  49.771  1.00  0.00     0.000 A 
ENDBRANCH  22  25
ENDBRANCH  18  21
ENDBRANCH   1  14
TORSDOF 5
ENDMDL
MODEL 2
REMARK VINA RESULT:    -9.212      3.069      7.549
REMARK INTER + INTRA:         -13.168
REMARK INTER:                 -12.453
REMARK INTRA:                  -0.715
REMARK UNBOUND:                -1.263
REMARK SMILES Cc1ccc(-c2noc(C[NH+]3CCCC(C(=O)Nc4ccccc4)C3)n2)cc1
REMARK SMILES IDX 10 1 9 2 6 3 7 4 26 5 8 6 5 7 2 8 3 9 28 10 4 11 27 12 1 13
REMARK SMILES IDX 11 14 12 15 25 16 13 17 15 18 14 19 16 21 18 22 17 23 19 25
REMARK SMILES IDX 20 26 24 27 21 28 23 29 22 30
REMARK H PARENT 11 20 18 24
ROOT
ATOM      1  C   UNL     1       3.821  42.476  52.136  1.00  0.00     0.364 C 
ENDROOT
BRANCH   1   2
ATOM      2  C   UNL     1       4.105  41.857  50.816  1.00  0.00     0.282 A 
ATOM      3  C   UNL     1       4.132  40.895  48.944  1.00  0.00     0.202 A 
ATOM      4  N   UNL     1       5.426  41.170  49.194  1.00  0.00    -0.057 NA
ATOM      5  N   UNL     1       3.282  41.319  49.948  1.00  0.00    -0.186 NA
ATOM      6  O   UNL     1       5.408  41.808  50.429  1.00  0.00    -0.333 OA
BRANCH   3   7
ATOM      7  C   UNL     1       3.646  40.213  47.750  1.00  0.00     0.023 A 
ATOM      8  C   UNL     1       2.719  38.908  45.425  1.00  0.00    -0.051 A 
ATOM      9  C   UNL     1       3.322  40.166  45.338  1.00  0.00     0.004 A 
ATOM     10  C   UNL     1       2.563  38.315  46.682  1.00  0.00     0.004 A 
ATOM     11  C   UNL     1       3.785  40.812  46.489  1.00  0.00     0.012 A 
ATOM     12  C   UNL     1       3.028  38.959  47.834  1.00  0.00     0.012 A 
ATOM     13  C   UNL     1       2.193  38.231  44.192  1.00  0.00     0.044 C 
ENDBRANCH   3   7
ENDBRANCH   1   2
BRANCH   1  14
ATOM     14  N   UNL     1       3.406  43.956  52.138  1.00  0.00    -0.326 N 
ATOM     15  C   UNL     1       3.970  44.718  50.966  1.00  0.00     0.262 C 
ATOM     16  C   UNL     1       3.711  44.648  53.462  1.00  0.00     0.276 C 
ATOM     17  C   UNL     1       3.253  46.060  50.849  1.00  0.00     0.062 C 
ATOM     18  C   UNL     1       3.506  46.172  53.386  1.00  0.00     0.134 C 
ATOM     19  C   UNL     1       2.674  46.586  52.168  1.00  0.00     0.025 C 
ATOM     20  H   UNL     1       2.386  43.943  52.026  1.00  0.00     0.348 HD
BRANCH  18  21
ATOM     21  C   UNL     1       4.848  46.905  53.387  1.00  0.00     0.233 C 
ATOM     22  N   UNL     1       5.929  46.059  53.234  1.00  0.00    -0.326 N 
ATOM     23  O   UNL     1       4.887  48.117  53.565  1.00  0.00    -0.274 OA
ATOM     24  H   UNL     1       5.749  45.068  53.117  1.00  0.00     0.169 HD
BRANCH  22  25
ATOM     25  C   UNL     1       7.298  46.412  53.220  1.00  0.00     0.041 A 
ATOM     26  C   UNL     1       8.016  46.811  54.349  1.00  0.00     0.026 A 
ATOM     27  C   UNL     1       7.957  46.353  51.986  1.00  0.00     0.026 A 
ATOM     28  C   UNL     1       9.372  47.143  54.246  1.00  0.00     0.002 A 
ATOM     29  C   UNL     1       9.311  46.685  51.882  1.00  0.00     0.002 A 
ATOM     30  C   UNL     1      10.019  47.078  53.014  1.00  0.00     0.000 A 
ENDBRANCH  22  25
ENDBRANCH  18  21
ENDBRANCH   1  14
TORSDOF 5
ENDMDL
MODEL 3
REMARK VINA RESULT:    -8.749      1.956      2.945
REMARK INTER + INTRA:         -12.568
REMARK INTER:                 -10.084
REMARK INTRA:                  -2.484
REMARK UNBOUND:                -1.263
REMARK SMILES Cc1ccc(-c2noc(C[NH+]3CCCC(C(=O)Nc4ccccc4)C3)n2)cc1
REMARK SMILES IDX 10 1 9 2 6 3 7 4 26 5 8 6 5 7 2 8 3 9 28 10 4 11 27 12 1 13
REMARK SMILES IDX 11 14 12 15 25 16 13 17 15 18 14 19 16 21 18 22 17 23 19 25
REMARK SMILES IDX 20 26 24 27 21 28 23 29 22 30
REMARK H PARENT 11 20 18 24
ROOT
ATOM      1  C   UNL     1      -0.628  44.771  55.185  1.00  0.00     0.364 C 
ENDROOT
BRANCH   1   2
ATOM      2  C   UNL     1       0.765  45.230  55.419  1.00  0.00     0.282 A 
ATOM      3  C   UNL     1       2.805  45.747  55.395  1.00  0.00     0.202 A 
ATOM      4  N   UNL     1       2.404  46.037  56.647  1.00  0.00    -0.057 NA
ATOM      5  N   UNL     1       1.792  45.241  54.603  1.00  0.00    -0.186 NA
ATOM      6  O   UNL     1       1.056  45.697  56.663  1.00  0.00    -0.333 OA
BRANCH   3   7
ATOM      7  C   UNL     1       4.164  45.930  54.897  1.00  0.00     0.023 A 
ATOM      8  C   UNL     1       6.790  46.308  53.935  1.00  0.00    -0.051 A 
ATOM      9  C   UNL     1       5.863  47.353  53.893  1.00  0.00     0.004 A 
ATOM     10  C   UNL     1       6.392  45.066  54.441  1.00  0.00     0.004 A 
ATOM     11  C   UNL     1       4.562  47.168  54.372  1.00  0.00     0.012 A 
ATOM     12  C   UNL     1       5.091  44.881  54.924  1.00  0.00     0.012 A 
ATOM     13  C   UNL     1       8.176  46.498  53.390  1.00  0.00     0.044 C 
ENDBRANCH   3   7
ENDBRANCH   1   2
BRANCH   1  14
ATOM     14  N   UNL     1      -0.907  44.024  53.871  1.00  0.00    -0.326 N 
ATOM     15  C   UNL     1      -0.272  42.656  53.837  1.00  0.00     0.262 C 
ATOM     16  C   UNL     1      -0.543  44.846  52.640  1.00  0.00     0.276 C 
ATOM     17  C   UNL     1      -0.863  41.859  52.677  1.00  0.00     0.062 C 
ATOM     18  C   UNL     1      -0.608  44.019  51.344  1.00  0.00     0.134 C 
ATOM     19  C   UNL     1      -1.395  42.718  51.524  1.00  0.00     0.025 C 
ATOM     20  H   UNL     1      -1.923  43.884  53.858  1.00  0.00     0.348 HD
BRANCH  18  21
ATOM     21  C   UNL     1       0.795  43.723  50.814  1.00  0.00     0.233 C 
ATOM     22  N   UNL     1       1.789  44.392  51.502  1.00  0.00    -0.326 N 
ATOM     23  O   UNL     1       0.943  42.996  49.837  1.00  0.00    -0.274 OA
ATOM     24  H   UNL     1       1.518  44.981  52.281  1.00  0.00     0.169 HD
BRANCH  22  25
ATOM     25  C   UNL     1       3.178  44.357  51.248  1.00  0.00     0.041 A 
ATOM     26  C   UNL     1       3.954  43.197  51.284  1.00  0.00     0.026 A 
ATOM     27  C   UNL     1       3.799  45.576  50.943  1.00  0.00     0.026 A 
ATOM     28  C   UNL     1       5.327  43.253  51.017  1.00  0.00     0.002 A 
ATOM     29  C   UNL     1       5.170  45.632  50.679  1.00  0.00     0.002 A 
ATOM     30  C   UNL     1       5.934  44.469  50.713  1.00  0.00     0.000 A 
ENDBRANCH  22  25
ENDBRANCH  18  21
ENDBRANCH   1  14
TORSDOF 5
ENDMDL
MODEL 4
REMARK VINA RESULT:    -8.695      2.791      7.163
REMARK INTER + INTRA:         -12.499
REMARK INTER:                 -12.020
REMARK INTRA:                  -0.480
REMARK UNBOUND:                -1.263
REMARK SMILES Cc1ccc(-c2noc(C[NH+]3CCCC(C(=O)Nc4ccccc4)C3)n2)cc1
REMARK SMILES IDX 10 1 9 2 6 3 7 4 26 5 8 6 5 7 2 8 3 9 28 10 4 11 27 12 1 13
REMARK SMILES IDX 11 14 12 15 25 16 13 17 15 18 14 19 16 21 18 22 17 23 19 25
REMARK SMILES IDX 20 26 24 27 21 28 23 29 22 30
REMARK H PARENT 11 20 18 24
ROOT
ATOM      1  C   UNL     1       1.575  43.015  53.362  1.00  0.00     0.364 C 
ENDROOT
BRANCH   1   2
ATOM      2  C   UNL     1       0.773  43.911  54.233  1.00  0.00     0.282 A 
ATOM      3  C   UNL     1      -0.047  45.192  55.688  1.00  0.00     0.202 A 
ATOM      4  N   UNL     1      -1.076  44.927  54.862  1.00  0.00    -0.057 NA
ATOM      5  N   UNL     1       1.128  44.567  55.313  1.00  0.00    -0.186 NA
ATOM      6  O   UNL     1      -0.534  44.083  53.899  1.00  0.00    -0.333 OA
BRANCH   3   7
ATOM      7  C   UNL     1      -0.132  46.042  56.870  1.00  0.00     0.023 A 
ATOM      8  C   UNL     1      -0.319  47.684  59.159  1.00  0.00    -0.051 A 
ATOM      9  C   UNL     1      -1.436  47.471  58.346  1.00  0.00     0.004 A 
ATOM     10  C   UNL     1       0.898  47.089  58.810  1.00  0.00     0.004 A 
ATOM     11  C   UNL     1      -1.345  46.655  57.214  1.00  0.00     0.012 A 
ATOM     12  C   UNL     1       0.990  46.270  57.679  1.00  0.00     0.012 A 
ATOM     13  C   UNL     1      -0.410  48.586  60.355  1.00  0.00     0.044 C 
ENDBRANCH   3   7
ENDBRANCH   1   2
BRANCH   1  14
ATOM     14  N   UNL     1       2.602  43.680  52.432  1.00  0.00    -0.326 N 
ATOM     15  C   UNL     1       3.872  42.877  52.305  1.00  0.00     0.262 C 
ATOM     16  C   UNL     1       2.885  45.128  52.811  1.00  0.00     0.276 C 
ATOM     17  C   UNL     1       4.686  43.410  51.127  1.00  0.00     0.062 C 
ATOM     18  C   UNL     1       4.072  45.717  52.026  1.00  0.00     0.134 C 
ATOM     19  C   UNL     1       4.423  44.883  50.792  1.00  0.00     0.025 C 
ATOM     20  H   UNL     1       2.156  43.685  51.508  1.00  0.00     0.348 HD
BRANCH  18  21
ATOM     21  C   UNL     1       5.297  45.876  52.927  1.00  0.00     0.233 C 
ATOM     22  N   UNL     1       6.387  46.415  52.272  1.00  0.00    -0.326 N 
ATOM     23  O   UNL     1       5.259  45.491  54.091  1.00  0.00    -0.274 OA
ATOM     24  H   UNL     1       6.282  46.669  51.297  1.00  0.00     0.169 HD
BRANCH  22  25
ATOM     25  C   UNL     1       7.671  46.663  52.808  1.00  0.00     0.041 A 
ATOM     26  C   UNL     1       7.902  47.233  54.061  1.00  0.00     0.026 A 
ATOM     27  C   UNL     1       8.770  46.308  52.015  1.00  0.00     0.026 A 
ATOM     28  C   UNL     1       9.209  47.443  54.516  1.00  0.00     0.002 A 
ATOM     29  C   UNL     1      10.076  46.519  52.467  1.00  0.00     0.002 A 
ATOM     30  C   UNL     1      10.294  47.084  53.720  1.00  0.00     0.000 A 
ENDBRANCH  22  25
ENDBRANCH  18  21
ENDBRANCH   1  14
TORSDOF 5
ENDMDL
MODEL 5
REMARK VINA RESULT:    -8.362      3.517      8.121
REMARK INTER + INTRA:         -12.069
REMARK INTER:                 -11.351
REMARK INTRA:                  -0.719
REMARK UNBOUND:                -1.263
REMARK SMILES Cc1ccc(-c2noc(C[NH+]3CCCC(C(=O)Nc4ccccc4)C3)n2)cc1
REMARK SMILES IDX 10 1 9 2 6 3 7 4 26 5 8 6 5 7 2 8 3 9 28 10 4 11 27 12 1 13
REMARK SMILES IDX 11 14 12 15 25 16 13 17 15 18 14 19 16 21 18 22 17 23 19 25
REMARK SMILES IDX 20 26 24 27 21 28 23 29 22 30
REMARK H PARENT 11 20 18 24
ROOT
ATOM      1  C   UNL     1       1.173  43.681  53.460  1.00  0.00     0.364 C 
ENDROOT
BRANCH   1   2
ATOM      2  C   UNL     1       0.010  43.898  54.358  1.00  0.00     0.282 A 
ATOM      3  C   UNL     1      -1.423  44.484  55.785  1.00  0.00     0.202 A 
ATOM      4  N   UNL     1      -1.965  43.402  55.195  1.00  0.00    -0.057 NA
ATOM      5  N   UNL     1      -0.182  44.817  55.274  1.00  0.00    -0.186 NA
ATOM      6  O   UNL     1      -1.020  43.016  54.251  1.00  0.00    -0.333 OA
BRANCH   3   7
ATOM      7  C   UNL     1      -2.050  45.243  56.860  1.00  0.00     0.023 A 
ATOM      8  C   UNL     1      -3.255  46.733  58.932  1.00  0.00    -0.051 A 
ATOM      9  C   UNL     1      -2.159  47.248  58.235  1.00  0.00     0.004 A 
ATOM     10  C   UNL     1      -3.734  45.461  58.602  1.00  0.00     0.004 A 
ATOM     11  C   UNL     1      -1.563  46.512  57.206  1.00  0.00     0.012 A 
ATOM     12  C   UNL     1      -3.141  44.725  57.571  1.00  0.00     0.012 A 
ATOM     13  C   UNL     1      -3.873  47.510  60.059  1.00  0.00     0.044 C 
ENDBRANCH   3   7
ENDBRANCH   1   2
BRANCH   1  14
ATOM     14  N   UNL     1       1.931  44.931  52.983  1.00  0.00    -0.326 N 
ATOM     15  C   UNL     1       2.672  44.699  51.691  1.00  0.00     0.262 C 
ATOM     16  C   UNL     1       2.840  45.512  54.060  1.00  0.00     0.276 C 
ATOM     17  C   UNL     1       3.105  46.045  51.114  1.00  0.00     0.062 C 
ATOM     18  C   UNL     1       3.761  46.618  53.513  1.00  0.00     0.134 C 
ATOM     19  C   UNL     1       3.285  47.153  52.160  1.00  0.00     0.025 C 
ATOM     20  H   UNL     1       1.199  45.624  52.791  1.00  0.00     0.348 HD
BRANCH  18  21
ATOM     21  C   UNL     1       5.205  46.125  53.413  1.00  0.00     0.233 C 
ATOM     22  N   UNL     1       6.091  47.112  53.026  1.00  0.00    -0.326 N 
ATOM     23  O   UNL     1       5.468  44.945  53.616  1.00  0.00    -0.274 OA
ATOM     24  H   UNL     1       5.728  48.046  52.869  1.00  0.00     0.169 HD
BRANCH  22  25
ATOM     25  C   UNL     1       7.482  46.980  52.815  1.00  0.00     0.041 A 
ATOM     26  C   UNL     1       8.059  46.603  51.600  1.00  0.00     0.026 A 
ATOM     27  C   UNL     1       8.318  47.247  53.906  1.00  0.00     0.026 A 
ATOM     28  C   UNL     1       9.449  46.498  51.478  1.00  0.00     0.002 A 
ATOM     29  C   UNL     1       9.707  47.140  53.785  1.00  0.00     0.002 A 
ATOM     30  C   UNL     1      10.272  46.768  52.568  1.00  0.00     0.000 A 
ENDBRANCH  22  25
ENDBRANCH  18  21
ENDBRANCH   1  14
TORSDOF 5
ENDMDL
MODEL 6
REMARK VINA RESULT:    -8.262      1.899      4.739
REMARK INTER + INTRA:         -11.940
REMARK INTER:                 -10.036
REMARK INTRA:                  -1.904
REMARK UNBOUND:                -1.263
REMARK SMILES Cc1ccc(-c2noc(C[NH+]3CCCC(C(=O)Nc4ccccc4)C3)n2)cc1
REMARK SMILES IDX 10 1 9 2 6 3 7 4 26 5 8 6 5 7 2 8 3 9 28 10 4 11 27 12 1 13
REMARK SMILES IDX 11 14 12 15 25 16 13 17 15 18 14 19 16 21 18 22 17 23 19 25
REMARK SMILES IDX 20 26 24 27 21 28 23 29 22 30
REMARK H PARENT 11 20 18 24
ROOT
ATOM      1  C   UNL     1       0.644  42.670  51.118  1.00  0.00     0.364 C 
ENDROOT
BRANCH   1   2
ATOM      2  C   UNL     1       2.111  42.791  50.920  1.00  0.00     0.282 A 
ATOM      3  C   UNL     1       4.136  43.333  50.731  1.00  0.00     0.202 A 
ATOM      4  N   UNL     1       4.096  42.051  50.323  1.00  0.00    -0.057 NA
ATOM      5  N   UNL     1       2.901  43.821  51.114  1.00  0.00    -0.186 NA
ATOM      6  O   UNL     1       2.759  41.692  50.451  1.00  0.00    -0.333 OA
BRANCH   3   7
ATOM      7  C   UNL     1       5.342  44.152  50.769  1.00  0.00     0.023 A 
ATOM      8  C   UNL     1       7.683  45.728  50.823  1.00  0.00    -0.051 A 
ATOM      9  C   UNL     1       7.648  44.536  50.095  1.00  0.00     0.004 A 
ATOM     10  C   UNL     1       6.548  46.119  51.542  1.00  0.00     0.004 A 
ATOM     11  C   UNL     1       6.488  43.756  50.065  1.00  0.00     0.012 A 
ATOM     12  C   UNL     1       5.385  45.341  51.510  1.00  0.00     0.012 A 
ATOM     13  C   UNL     1       8.940  46.548  50.882  1.00  0.00     0.044 C 
ENDBRANCH   3   7
ENDBRANCH   1   2
BRANCH   1  14
ATOM     14  N   UNL     1       0.064  43.250  52.419  1.00  0.00    -0.326 N 
ATOM     15  C   UNL     1      -0.121  44.745  52.353  1.00  0.00     0.262 C 
ATOM     16  C   UNL     1       0.856  42.832  53.652  1.00  0.00     0.276 C 
ATOM     17  C   UNL     1      -0.999  45.192  53.520  1.00  0.00     0.062 C 
ATOM     18  C   UNL     1       0.413  43.590  54.916  1.00  0.00     0.134 C 
ATOM     19  C   UNL     1      -0.950  44.265  54.741  1.00  0.00     0.025 C 
ATOM     20  H   UNL     1      -0.871  42.834  52.497  1.00  0.00     0.348 HD
BRANCH  18  21
ATOM     21  C   UNL     1       1.466  44.618  55.333  1.00  0.00     0.233 C 
ATOM     22  N   UNL     1       2.590  44.602  54.529  1.00  0.00    -0.326 N 
ATOM     23  O   UNL     1       1.286  45.315  56.326  1.00  0.00    -0.274 OA
ATOM     24  H   UNL     1       2.612  43.954  53.750  1.00  0.00     0.169 HD
BRANCH  22  25
ATOM     25  C   UNL     1       3.748  45.401  54.661  1.00  0.00     0.041 A 
ATOM     26  C   UNL     1       3.777  46.781  54.454  1.00  0.00     0.026 A 
ATOM     27  C   UNL     1       4.933  44.747  55.021  1.00  0.00     0.026 A 
ATOM     28  C   UNL     1       4.969  47.497  54.607  1.00  0.00     0.002 A 
ATOM     29  C   UNL     1       6.125  45.461  55.173  1.00  0.00     0.002 A 
ATOM     30  C   UNL     1       6.142  46.838  54.968  1.00  0.00     0.000 A 
ENDBRANCH  22  25
ENDBRANCH  18  21
ENDBRANCH   1  14
TORSDOF 5
ENDMDL
MODEL 7
REMARK VINA RESULT:    -8.179      2.635      5.889
REMARK INTER + INTRA:         -11.832
REMARK INTER:                 -11.033
REMARK INTRA:                  -0.799
REMARK UNBOUND:                -1.263
REMARK SMILES Cc1ccc(-c2noc(C[NH+]3CCCC(C(=O)Nc4ccccc4)C3)n2)cc1
REMARK SMILES IDX 10 1 9 2 6 3 7 4 26 5 8 6 5 7 2 8 3 9 28 10 4 11 27 12 1 13
REMARK SMILES IDX 11 14 12 15 25 16 13 17 15 18 14 19 16 21 18 22 17 23 19 25
REMARK SMILES IDX 20 26 24 27 21 28 23 29 22 30
REMARK H PARENT 11 20 18 24
ROOT
ATOM      1  C   UNL     1       1.584  43.791  50.887  1.00  0.00     0.364 C 
ENDROOT
BRANCH   1   2
ATOM      2  C   UNL     1       2.720  44.737  51.034  1.00  0.00     0.282 A 
ATOM      3  C   UNL     1       4.539  45.760  51.304  1.00  0.00     0.202 A 
ATOM      4  N   UNL     1       3.622  46.739  51.189  1.00  0.00    -0.057 NA
ATOM      5  N   UNL     1       3.997  44.492  51.207  1.00  0.00    -0.186 NA
ATOM      6  O   UNL     1       2.421  46.063  51.008  1.00  0.00    -0.333 OA
BRANCH   3   7
ATOM      7  C   UNL     1       5.965  45.982  51.517  1.00  0.00     0.023 A 
ATOM      8  C   UNL     1       8.728  46.404  51.907  1.00  0.00    -0.051 A 
ATOM      9  C   UNL     1       8.275  45.622  50.841  1.00  0.00     0.004 A 
ATOM     10  C   UNL     1       7.795  46.957  52.789  1.00  0.00     0.004 A 
ATOM     11  C   UNL     1       6.905  45.414  50.645  1.00  0.00     0.012 A 
ATOM     12  C   UNL     1       6.424  46.753  52.592  1.00  0.00     0.012 A 
ATOM     13  C   UNL     1      10.200  46.598  52.135  1.00  0.00     0.044 C 
ENDBRANCH   3   7
ENDBRANCH   1   2
BRANCH   1  14
ATOM     14  N   UNL     1       0.602  43.689  52.064  1.00  0.00    -0.326 N 
ATOM     15  C   UNL     1      -0.322  44.878  52.151  1.00  0.00     0.262 C 
ATOM     16  C   UNL     1       1.302  43.420  53.391  1.00  0.00     0.276 C 
ATOM     17  C   UNL     1      -1.466  44.554  53.109  1.00  0.00     0.062 C 
ATOM     18  C   UNL     1       0.348  43.544  54.592  1.00  0.00     0.134 C 
ATOM     19  C   UNL     1      -1.124  43.503  54.171  1.00  0.00     0.025 C 
ATOM     20  H   UNL     1       0.020  42.871  51.852  1.00  0.00     0.348 HD
BRANCH  18  21
ATOM     21  C   UNL     1       0.637  44.816  55.390  1.00  0.00     0.233 C 
ATOM     22  N   UNL     1      -0.196  44.976  56.480  1.00  0.00    -0.326 N 
ATOM     23  O   UNL     1       1.501  45.598  55.009  1.00  0.00    -0.274 OA
ATOM     24  H   UNL     1      -0.885  44.256  56.666  1.00  0.00     0.169 HD
BRANCH  22  25
ATOM     25  C   UNL     1      -0.209  46.050  57.399  1.00  0.00     0.041 A 
ATOM     26  C   UNL     1       0.883  46.422  58.186  1.00  0.00     0.026 A 
ATOM     27  C   UNL     1      -1.402  46.774  57.514  1.00  0.00     0.026 A 
ATOM     28  C   UNL     1       0.784  47.501  59.071  1.00  0.00     0.002 A 
ATOM     29  C   UNL     1      -1.502  47.852  58.398  1.00  0.00     0.002 A 
ATOM     30  C   UNL     1      -0.406  48.217  59.175  1.00  0.00     0.000 A 
ENDBRANCH  22  25
ENDBRANCH  18  21
ENDBRANCH   1  14
TORSDOF 5
ENDMDL
MODEL 8
REMARK VINA RESULT:    -8.144      3.763      8.256
REMARK INTER + INTRA:         -11.787
REMARK INTER:                 -11.432
REMARK INTRA:                  -0.356
REMARK UNBOUND:                -1.263
REMARK SMILES Cc1ccc(-c2noc(C[NH+]3CCCC(C(=O)Nc4ccccc4)C3)n2)cc1
REMARK SMILES IDX 10 1 9 2 6 3 7 4 26 5 8 6 5 7 2 8 3 9 28 10 4 11 27 12 1 13
REMARK SMILES IDX 11 14 12 15 25 16 13 17 15 18 14 19 16 21 18 22 17 23 19 25
REMARK SMILES IDX 20 26 24 27 21 28 23 29 22 30
REMARK H PARENT 11 20 18 24
ROOT
ATOM      1  C   UNL     1       4.279  41.431  50.794  1.00  0.00     0.364 C 
ENDROOT
BRANCH   1   2
ATOM      2  C   UNL     1       4.029  40.804  49.470  1.00  0.00     0.282 A 
ATOM      3  C   UNL     1       3.913  40.186  47.462  1.00  0.00     0.202 A 
ATOM      4  N   UNL     1       3.021  39.406  48.100  1.00  0.00    -0.057 NA
ATOM      5  N   UNL     1       4.562  41.071  48.302  1.00  0.00    -0.186 NA
ATOM      6  O   UNL     1       3.099  39.812  49.428  1.00  0.00    -0.333 OA
BRANCH   3   7
ATOM      7  C   UNL     1       4.185  40.132  46.030  1.00  0.00     0.023 A 
ATOM      8  C   UNL     1       4.732  40.039  43.263  1.00  0.00    -0.051 A 
ATOM      9  C   UNL     1       5.374  40.972  44.080  1.00  0.00     0.004 A 
ATOM     10  C   UNL     1       3.799  39.165  43.831  1.00  0.00     0.004 A 
ATOM     11  C   UNL     1       5.106  41.017  45.453  1.00  0.00     0.012 A 
ATOM     12  C   UNL     1       3.533  39.207  45.204  1.00  0.00     0.012 A 
ATOM     13  C   UNL     1       4.995  40.014  41.785  1.00  0.00     0.044 C 
ENDBRANCH   3   7
ENDBRANCH   1   2
BRANCH   1  14
ATOM     14  N   UNL     1       4.416  42.962  50.827  1.00  0.00    -0.326 N 
ATOM     15  C   UNL     1       5.764  43.432  50.342  1.00  0.00     0.262 C 
ATOM     16  C   UNL     1       4.067  43.552  52.188  1.00  0.00     0.276 C 
ATOM     17  C   UNL     1       5.706  44.936  50.083  1.00  0.00     0.062 C 
ATOM     18  C   UNL     1       4.421  45.047  52.285  1.00  0.00     0.134 C 
ATOM     19  C   UNL     1       4.650  45.680  50.909  1.00  0.00     0.025 C 
ATOM     20  H   UNL     1       3.719  43.302  50.155  1.00  0.00     0.348 HD
BRANCH  18  21
ATOM     21  C   UNL     1       5.642  45.262  53.179  1.00  0.00     0.233 C 
ATOM     22  N   UNL     1       6.526  46.198  52.677  1.00  0.00    -0.326 N 
ATOM     23  O   UNL     1       5.783  44.595  54.198  1.00  0.00    -0.274 OA
ATOM     24  H   UNL     1       6.290  46.660  51.807  1.00  0.00     0.169 HD
BRANCH  22  25
ATOM     25  C   UNL     1       7.755  46.605  53.243  1.00  0.00     0.041 A 
ATOM     26  C   UNL     1       7.872  47.317  54.438  1.00  0.00     0.026 A 
ATOM     27  C   UNL     1       8.920  46.263  52.545  1.00  0.00     0.026 A 
ATOM     28  C   UNL     1       9.132  47.679  54.928  1.00  0.00     0.002 A 
ATOM     29  C   UNL     1      10.179  46.625  53.033  1.00  0.00     0.002 A 
ATOM     30  C   UNL     1      10.284  47.332  54.227  1.00  0.00     0.000 A 
ENDBRANCH  22  25
ENDBRANCH  18  21
ENDBRANCH   1  14
TORSDOF 5
ENDMDL
MODEL 9
REMARK VINA RESULT:    -8.135      2.008      4.557
REMARK INTER + INTRA:         -11.775
REMARK INTER:                  -9.608
REMARK INTRA:                  -2.168
REMARK UNBOUND:                -1.263
REMARK SMILES Cc1ccc(-c2noc(C[NH+]3CCCC(C(=O)Nc4ccccc4)C3)n2)cc1
REMARK SMILES IDX 10 1 9 2 6 3 7 4 26 5 8 6 5 7 2 8 3 9 28 10 4 11 27 12 1 13
REMARK SMILES IDX 11 14 12 15 25 16 13 17 15 18 14 19 16 21 18 22 17 23 19 25
REMARK SMILES IDX 20 26 24 27 21 28 23 29 22 30
REMARK H PARENT 11 20 18 24
ROOT
ATOM      1  C   UNL     1       2.907  41.555  50.655  1.00  0.00     0.364 C 
ENDROOT
BRANCH   1   2
ATOM      2  C   UNL     1       4.136  42.390  50.682  1.00  0.00     0.282 A 
ATOM      3  C   UNL     1       5.698  43.762  51.004  1.00  0.00     0.202 A 
ATOM      4  N   UNL     1       6.094  43.056  49.929  1.00  0.00    -0.057 NA
ATOM      5  N   UNL     1       4.471  43.361  51.498  1.00  0.00    -0.186 NA
ATOM      6  O   UNL     1       5.063  42.147  49.717  1.00  0.00    -0.333 OA
BRANCH   3   7
ATOM      7  C   UNL     1       6.460  44.851  51.605  1.00  0.00     0.023 A 
ATOM      8  C   UNL     1       7.934  46.969  52.748  1.00  0.00    -0.051 A 
ATOM      9  C   UNL     1       7.914  46.788  51.363  1.00  0.00     0.004 A 
ATOM     10  C   UNL     1       7.231  46.074  53.561  1.00  0.00     0.004 A 
ATOM     11  C   UNL     1       7.181  45.740  50.795  1.00  0.00     0.012 A 
ATOM     12  C   UNL     1       6.495  45.028  52.994  1.00  0.00     0.012 A 
ATOM     13  C   UNL     1       8.748  48.074  53.358  1.00  0.00     0.044 C 
ENDBRANCH   3   7
ENDBRANCH   1   2
BRANCH   1  14
ATOM     14  N   UNL     1       1.665  42.116  51.367  1.00  0.00    -0.326 N 
ATOM     15  C   UNL     1       1.155  43.383  50.728  1.00  0.00     0.262 C 
ATOM     16  C   UNL     1       1.875  42.285  52.867  1.00  0.00     0.276 C 
ATOM     17  C   UNL     1      -0.244  43.684  51.261  1.00  0.00     0.062 C 
ATOM     18  C   UNL     1       0.721  43.053  53.537  1.00  0.00     0.134 C 
ATOM     19  C   UNL     1      -0.528  43.109  52.654  1.00  0.00     0.025 C 
ATOM     20  H   UNL     1       0.942  41.400  51.236  1.00  0.00     0.348 HD
BRANCH  18  21
ATOM     21  C   UNL     1       1.159  44.465  53.929  1.00  0.00     0.233 C 
ATOM     22  N   UNL     1       2.413  44.797  53.452  1.00  0.00    -0.326 N 
ATOM     23  O   UNL     1       0.440  45.155  54.642  1.00  0.00    -0.274 OA
ATOM     24  H   UNL     1       2.907  44.115  52.889  1.00  0.00     0.169 HD
BRANCH  22  25
ATOM     25  C   UNL     1       3.114  46.006  53.659  1.00  0.00     0.041 A 
ATOM     26  C   UNL     1       3.770  46.340  54.845  1.00  0.00     0.026 A 
ATOM     27  C   UNL     1       3.141  46.915  52.593  1.00  0.00     0.026 A 
ATOM     28  C   UNL     1       4.443  47.561  54.965  1.00  0.00     0.002 A 
ATOM     29  C   UNL     1       3.812  48.136  52.712  1.00  0.00     0.002 A 
ATOM     30  C   UNL     1       4.466  48.457  53.898  1.00  0.00     0.000 A 
ENDBRANCH  22  25
ENDBRANCH  18  21
ENDBRANCH   1  14
TORSDOF 5
ENDMDL
MODEL 10
REMARK VINA RESULT:    -7.206      3.809      7.721
REMARK INTER + INTRA:         -10.575
REMARK INTER:                 -10.161
REMARK INTRA:                  -0.413
REMARK UNBOUND:                -1.263
REMARK SMILES Cc1ccc(-c2noc(C[NH+]3CCCC(C(=O)Nc4ccccc4)C3)n2)cc1
REMARK SMILES IDX 10 1 9 2 6 3 7 4 26 5 8 6 5 7 2 8 3 9 28 10 4 11 27 12 1 13
REMARK SMILES IDX 11 14 12 15 25 16 13 17 15 18 14 19 16 21 18 22 17 23 19 25
REMARK SMILES IDX 20 26 24 27 21 28 23 29 22 30
REMARK H PARENT 11 20 18 24
ROOT
ATOM      1  C   UNL     1       1.338  44.393  55.052  1.00  0.00     0.364 C 
ENDROOT
BRANCH   1   2
ATOM      2  C   UNL     1       0.357  45.169  55.854  1.00  0.00     0.282 A 
ATOM      3  C   UNL     1      -0.720  46.444  57.136  1.00  0.00     0.202 A 
ATOM      4  N   UNL     1      -1.659  45.643  56.599  1.00  0.00    -0.057 NA
ATOM      5  N   UNL     1       0.556  46.167  56.682  1.00  0.00    -0.186 NA
ATOM      6  O   UNL     1      -0.948  44.803  55.749  1.00  0.00    -0.333 OA
BRANCH   3   7
ATOM      7  C   UNL     1      -0.988  47.498  58.107  1.00  0.00     0.023 A 
ATOM      8  C   UNL     1      -1.529  49.542  59.978  1.00  0.00    -0.051 A 
ATOM      9  C   UNL     1      -2.349  49.370  58.859  1.00  0.00     0.004 A 
ATOM     10  C   UNL     1      -0.424  48.700  60.146  1.00  0.00     0.004 A 
ATOM     11  C   UNL     1      -2.084  48.356  57.933  1.00  0.00     0.012 A 
ATOM     12  C   UNL     1      -0.160  47.683  59.222  1.00  0.00     0.012 A 
ATOM     13  C   UNL     1      -1.795  50.652  60.953  1.00  0.00     0.044 C 
ENDBRANCH   3   7
ENDBRANCH   1   2
BRANCH   1  14
ATOM     14  N   UNL     1       2.028  45.125  53.891  1.00  0.00    -0.326 N 
ATOM     15  C   UNL     1       2.645  44.177  52.894  1.00  0.00     0.262 C 
ATOM     16  C   UNL     1       3.027  46.172  54.369  1.00  0.00     0.276 C 
ATOM     17  C   UNL     1       3.002  44.947  51.625  1.00  0.00     0.062 C 
ATOM     18  C   UNL     1       3.876  46.740  53.217  1.00  0.00     0.134 C 
ATOM     19  C   UNL     1       3.265  46.442  51.844  1.00  0.00     0.025 C 
ATOM     20  H   UNL     1       1.272  45.621  53.406  1.00  0.00     0.348 HD
BRANCH  18  21
ATOM     21  C   UNL     1       5.311  46.216  53.285  1.00  0.00     0.233 C 
ATOM     22  N   UNL     1       6.240  47.106  52.784  1.00  0.00    -0.326 N 
ATOM     23  O   UNL     1       5.533  45.085  53.706  1.00  0.00    -0.274 OA
ATOM     24  H   UNL     1       5.909  48.003  52.447  1.00  0.00     0.169 HD
BRANCH  22  25
ATOM     25  C   UNL     1       7.636  46.918  52.678  1.00  0.00     0.041 A 
ATOM     26  C   UNL     1       8.282  46.466  51.526  1.00  0.00     0.026 A 
ATOM     27  C   UNL     1       8.404  47.208  53.814  1.00  0.00     0.026 A 
ATOM     28  C   UNL     1       9.673  46.309  51.507  1.00  0.00     0.002 A 
ATOM     29  C   UNL     1       9.793  47.049  53.796  1.00  0.00     0.002 A 
ATOM     30  C   UNL     1      10.427  46.602  52.641  1.00  0.00     0.000 A 
ENDBRANCH  22  25
ENDBRANCH  18  21
ENDBRANCH   1  14
TORSDOF 5
ENDMDL
