MODEL 1
REMARK VINA RESULT:   -10.094      0.000      0.000
REMARK INTER + INTRA:         -14.333
REMARK INTER:                 -13.045
REMARK INTRA:                  -1.288
REMARK UNBOUND:                -1.288
REMARK SMILES Cc1ccccc1-c1noc(C[NH+]2CCCC(C(=O)Nc3ccccc3)C2)n1
REMARK SMILES IDX 12 1 11 2 8 3 9 4 28 5 10 6 7 7 2 8 3 9 4 10 6 11 5 12 1 13
REMARK SMILES IDX 13 14 14 15 27 16 15 17 17 18 16 19 18 21 20 22 19 23 21 25
REMARK SMILES IDX 22 26 26 27 23 28 25 29 24 30
REMARK H PARENT 13 20 20 24
ROOT
ATOM      1  C   UNL     1       3.089  45.135  54.948  1.00  0.00     0.364 C 
ENDROOT
BRANCH   1   2
ATOM      2  C   UNL     1       4.230  45.880  54.356  1.00  0.00     0.282 A 
ATOM      3  C   UNL     1       6.063  46.635  53.642  1.00  0.00     0.202 A 
ATOM      4  N   UNL     1       5.206  47.659  53.508  1.00  0.00    -0.057 NA
ATOM      5  N   UNL     1       5.474  45.499  54.178  1.00  0.00    -0.186 NA
ATOM      6  O   UNL     1       3.998  47.166  53.982  1.00  0.00    -0.333 OA
BRANCH   3   7
ATOM      7  C   UNL     1       7.475  46.660  53.258  1.00  0.00     0.026 A 
ATOM      8  C   UNL     1       7.946  46.282  51.981  1.00  0.00    -0.040 A 
ATOM      9  C   UNL     1       9.330  46.327  51.721  1.00  0.00     0.004 A 
ATOM     10  C   UNL     1      10.234  46.754  52.694  1.00  0.00     0.000 A 
ATOM     11  C   UNL     1       8.406  47.096  54.224  1.00  0.00     0.012 A 
ATOM     12  C   UNL     1       9.773  47.143  53.944  1.00  0.00     0.001 A 
ATOM     13  C   UNL     1       7.040  45.815  50.871  1.00  0.00     0.045 C 
ENDBRANCH   3   7
ENDBRANCH   1   2
BRANCH   1  14
ATOM     14  N   UNL     1       1.996  44.721  53.968  1.00  0.00    -0.326 N 
ATOM     15  C   UNL     1       0.824  45.665  53.926  1.00  0.00     0.262 C 
ATOM     16  C   UNL     1       1.618  43.255  54.061  1.00  0.00     0.276 C 
ATOM     17  C   UNL     1      -0.490  44.926  53.682  1.00  0.00     0.062 C 
ATOM     18  C   UNL     1       0.781  42.876  52.832  1.00  0.00     0.134 C 
ATOM     19  C   UNL     1      -0.388  43.849  52.603  1.00  0.00     0.025 C 
ATOM     20  H   UNL     1       2.466  44.785  53.042  1.00  0.00     0.348 HD
BRANCH  18  21
ATOM     21  C   UNL     1       1.690  42.883  51.609  1.00  0.00     0.233 C 
ATOM     22  N   UNL     1       2.864  42.186  51.790  1.00  0.00    -0.326 N 
ATOM     23  O   UNL     1       1.286  43.420  50.577  1.00  0.00    -0.274 OA
ATOM     24  H   UNL     1       3.023  41.746  52.690  1.00  0.00     0.169 HD
BRANCH  22  25
ATOM     25  C   UNL     1       3.894  41.985  50.843  1.00  0.00     0.041 A 
ATOM     26  C   UNL     1       5.118  42.656  50.862  1.00  0.00     0.026 A 
ATOM     27  C   UNL     1       3.652  41.048  49.830  1.00  0.00     0.026 A 
ATOM     28  C   UNL     1       6.081  42.399  49.881  1.00  0.00     0.002 A 
ATOM     29  C   UNL     1       4.613  40.792  48.850  1.00  0.00     0.002 A 
ATOM     30  C   UNL     1       5.829  41.470  48.874  1.00  0.00     0.000 A 
ENDBRANCH  22  25
ENDBRANCH  18  21
ENDBRANCH   1  14
TORSDOF 5
ENDMDL
MODEL 2
REMARK VINA RESULT:    -9.802      0.699      1.699
REMARK INTER + INTRA:         -13.956
REMARK INTER:                 -12.735
REMARK INTRA:                  -1.221
REMARK UNBOUND:                -1.288
REMARK SMILES Cc1ccccc1-c1noc(C[NH+]2CCCC(C(=O)Nc3ccccc3)C2)n1
REMARK SMILES IDX 12 1 11 2 8 3 9 4 28 5 10 6 7 7 2 8 3 9 4 10 6 11 5 12 1 13
REMARK SMILES IDX 13 14 14 15 27 16 15 17 17 18 16 19 18 21 20 22 19 23 21 25
REMARK SMILES IDX 22 26 26 27 23 28 25 29 24 30
REMARK H PARENT 13 20 20 24
ROOT
ATOM      1  C   UNL     1       3.246  45.492  54.877  1.00  0.00     0.364 C 
ENDROOT
BRANCH   1   2
ATOM      2  C   UNL     1       4.417  46.149  54.240  1.00  0.00     0.282 A 
ATOM      3  C   UNL     1       6.265  46.748  53.423  1.00  0.00     0.202 A 
ATOM      4  N   UNL     1       5.524  47.868  53.431  1.00  0.00    -0.057 NA
ATOM      5  N   UNL     1       5.591  45.648  53.932  1.00  0.00    -0.186 NA
ATOM      6  O   UNL     1       4.307  47.476  53.971  1.00  0.00    -0.333 OA
BRANCH   3   7
ATOM      7  C   UNL     1       7.636  46.647  52.924  1.00  0.00     0.026 A 
ATOM      8  C   UNL     1       8.763  47.133  53.625  1.00  0.00    -0.040 A 
ATOM      9  C   UNL     1      10.039  47.000  53.044  1.00  0.00     0.004 A 
ATOM     10  C   UNL     1      10.208  46.383  51.805  1.00  0.00     0.000 A 
ATOM     11  C   UNL     1       7.832  46.020  51.676  1.00  0.00     0.012 A 
ATOM     12  C   UNL     1       9.105  45.889  51.121  1.00  0.00     0.001 A 
ATOM     13  C   UNL     1       8.672  47.806  54.970  1.00  0.00     0.045 C 
ENDBRANCH   3   7
ENDBRANCH   1   2
BRANCH   1  14
ATOM     14  N   UNL     1       2.214  44.912  53.914  1.00  0.00    -0.326 N 
ATOM     15  C   UNL     1       0.953  45.729  53.807  1.00  0.00     0.262 C 
ATOM     16  C   UNL     1       1.985  43.424  54.091  1.00  0.00     0.276 C 
ATOM     17  C   UNL     1      -0.275  44.847  53.597  1.00  0.00     0.062 C 
ATOM     18  C   UNL     1       1.207  42.891  52.881  1.00  0.00     0.134 C 
ATOM     19  C   UNL     1      -0.050  43.725  52.585  1.00  0.00     0.025 C 
ATOM     20  H   UNL     1       2.689  44.969  52.990  1.00  0.00     0.348 HD
BRANCH  18  21
ATOM     21  C   UNL     1       2.128  42.918  51.666  1.00  0.00     0.233 C 
ATOM     22  N   UNL     1       3.442  42.627  51.963  1.00  0.00    -0.326 N 
ATOM     23  O   UNL     1       1.634  43.112  50.556  1.00  0.00    -0.274 OA
ATOM     24  H   UNL     1       3.680  42.431  52.929  1.00  0.00     0.169 HD
BRANCH  22  25
ATOM     25  C   UNL     1       4.524  42.546  51.058  1.00  0.00     0.041 A 
ATOM     26  C   UNL     1       4.937  41.368  50.434  1.00  0.00     0.026 A 
ATOM     27  C   UNL     1       5.212  43.736  50.782  1.00  0.00     0.026 A 
ATOM     28  C   UNL     1       6.024  41.378  49.553  1.00  0.00     0.002 A 
ATOM     29  C   UNL     1       6.298  43.745  49.903  1.00  0.00     0.002 A 
ATOM     30  C   UNL     1       6.706  42.563  49.289  1.00  0.00     0.000 A 
ENDBRANCH  22  25
ENDBRANCH  18  21
ENDBRANCH   1  14
TORSDOF 5
ENDMDL
MODEL 3
REMARK VINA RESULT:    -9.616      1.863      6.109
REMARK INTER + INTRA:         -13.715
REMARK INTER:                 -12.270
REMARK INTRA:                  -1.444
REMARK UNBOUND:                -1.288
REMARK SMILES Cc1ccccc1-c1noc(C[NH+]2CCCC(C(=O)Nc3ccccc3)C2)n1
REMARK SMILES IDX 12 1 11 2 8 3 9 4 28 5 10 6 7 7 2 8 3 9 4 10 6 11 5 12 1 13
REMARK SMILES IDX 13 14 14 15 27 16 15 17 17 18 16 19 18 21 20 22 19 23 21 25
REMARK SMILES IDX 22 26 26 27 23 28 25 29 24 30
REMARK H PARENT 13 20 20 24
ROOT
ATOM      1  C   UNL     1       6.592  45.792  54.938  1.00  0.00     0.364 C 
ENDROOT
BRANCH   1   2
ATOM      2  C   UNL     1       5.156  45.580  54.619  1.00  0.00     0.282 A 
ATOM      3  C   UNL     1       3.255  45.068  53.868  1.00  0.00     0.202 A 
ATOM      4  N   UNL     1       3.006  46.007  54.794  1.00  0.00    -0.057 NA
ATOM      5  N   UNL     1       4.605  44.781  53.734  1.00  0.00    -0.186 NA
ATOM      6  O   UNL     1       4.257  46.348  55.289  1.00  0.00    -0.333 OA
BRANCH   3   7
ATOM      7  C   UNL     1       2.240  44.378  53.071  1.00  0.00     0.026 A 
ATOM      8  C   UNL     1       1.954  44.694  51.723  1.00  0.00    -0.040 A 
ATOM      9  C   UNL     1       0.943  43.979  51.053  1.00  0.00     0.004 A 
ATOM     10  C   UNL     1       0.238  42.957  51.689  1.00  0.00     0.000 A 
ATOM     11  C   UNL     1       1.520  43.337  53.691  1.00  0.00     0.012 A 
ATOM     12  C   UNL     1       0.528  42.632  53.007  1.00  0.00     0.001 A 
ATOM     13  C   UNL     1       2.670  45.777  50.959  1.00  0.00     0.045 C 
ENDBRANCH   3   7
ENDBRANCH   1   2
BRANCH   1  14
ATOM     14  N   UNL     1       7.495  46.070  53.740  1.00  0.00    -0.326 N 
ATOM     15  C   UNL     1       8.879  46.533  54.115  1.00  0.00     0.262 C 
ATOM     16  C   UNL     1       6.831  46.893  52.654  1.00  0.00     0.276 C 
ATOM     17  C   UNL     1       9.429  47.543  53.110  1.00  0.00     0.062 C 
ATOM     18  C   UNL     1       7.686  46.825  51.382  1.00  0.00     0.134 C 
ATOM     19  C   UNL     1       9.162  47.157  51.656  1.00  0.00     0.025 C 
ATOM     20  H   UNL     1       7.602  45.135  53.296  1.00  0.00     0.348 HD
BRANCH  18  21
ATOM     21  C   UNL     1       7.584  45.417  50.808  1.00  0.00     0.233 C 
ATOM     22  N   UNL     1       6.304  44.906  50.823  1.00  0.00    -0.326 N 
ATOM     23  O   UNL     1       8.593  44.902  50.326  1.00  0.00    -0.274 OA
ATOM     24  H   UNL     1       5.565  45.486  51.205  1.00  0.00     0.169 HD
BRANCH  22  25
ATOM     25  C   UNL     1       5.881  43.648  50.339  1.00  0.00     0.041 A 
ATOM     26  C   UNL     1       6.398  43.033  49.197  1.00  0.00     0.026 A 
ATOM     27  C   UNL     1       4.881  42.991  51.068  1.00  0.00     0.026 A 
ATOM     28  C   UNL     1       5.917  41.785  48.787  1.00  0.00     0.002 A 
ATOM     29  C   UNL     1       4.400  41.745  50.657  1.00  0.00     0.002 A 
ATOM     30  C   UNL     1       4.917  41.142  49.513  1.00  0.00     0.000 A 
ENDBRANCH  22  25
ENDBRANCH  18  21
ENDBRANCH   1  14
TORSDOF 5
ENDMDL
MODEL 4
REMARK VINA RESULT:    -9.288      2.510      7.549
REMARK INTER + INTRA:         -13.291
REMARK INTER:                 -12.523
REMARK INTRA:                  -0.768
REMARK UNBOUND:                -1.288
REMARK SMILES Cc1ccccc1-c1noc(C[NH+]2CCCC(C(=O)Nc3ccccc3)C2)n1
REMARK SMILES IDX 12 1 11 2 8 3 9 4 28 5 10 6 7 7 2 8 3 9 4 10 6 11 5 12 1 13
REMARK SMILES IDX 13 14 14 15 27 16 15 17 17 18 16 19 18 21 20 22 19 23 21 25
REMARK SMILES IDX 22 26 26 27 23 28 25 29 24 30
REMARK H PARENT 13 20 20 24
ROOT
ATOM      1  C   UNL     1       3.482  42.295  51.980  1.00  0.00     0.364 C 
ENDROOT
BRANCH   1   2
ATOM      2  C   UNL     1       3.913  41.735  50.672  1.00  0.00     0.282 A 
ATOM      3  C   UNL     1       4.152  40.820  48.789  1.00  0.00     0.202 A 
ATOM      4  N   UNL     1       5.403  41.108  49.181  1.00  0.00    -0.057 NA
ATOM      5  N   UNL     1       3.191  41.203  49.712  1.00  0.00    -0.186 NA
ATOM      6  O   UNL     1       5.248  41.708  50.424  1.00  0.00    -0.333 OA
BRANCH   3   7
ATOM      7  C   UNL     1       3.790  40.187  47.520  1.00  0.00     0.026 A 
ATOM      8  C   UNL     1       4.208  40.667  46.259  1.00  0.00    -0.040 A 
ATOM      9  C   UNL     1       3.787  39.993  45.096  1.00  0.00     0.004 A 
ATOM     10  C   UNL     1       2.985  38.854  45.172  1.00  0.00     0.000 A 
ATOM     11  C   UNL     1       2.985  39.030  47.574  1.00  0.00     0.012 A 
ATOM     12  C   UNL     1       2.587  38.370  46.411  1.00  0.00     0.001 A 
ATOM     13  C   UNL     1       5.079  41.885  46.085  1.00  0.00     0.045 C 
ENDBRANCH   3   7
ENDBRANCH   1   2
BRANCH   1  14
ATOM     14  N   UNL     1       3.725  43.790  52.165  1.00  0.00    -0.326 N 
ATOM     15  C   UNL     1       2.996  44.384  53.342  1.00  0.00     0.262 C 
ATOM     16  C   UNL     1       3.606  44.590  50.883  1.00  0.00     0.276 C 
ATOM     17  C   UNL     1       2.548  45.817  53.064  1.00  0.00     0.062 C 
ATOM     18  C   UNL     1       4.191  45.990  51.112  1.00  0.00     0.134 C 
ATOM     19  C   UNL     1       3.615  46.662  52.370  1.00  0.00     0.025 C 
ATOM     20  H   UNL     1       4.741  43.843  52.383  1.00  0.00     0.348 HD
BRANCH  18  21
ATOM     21  C   UNL     1       5.704  45.862  51.256  1.00  0.00     0.233 C 
ATOM     22  N   UNL     1       6.242  46.717  52.193  1.00  0.00    -0.326 N 
ATOM     23  O   UNL     1       6.286  44.991  50.610  1.00  0.00    -0.274 OA
ATOM     24  H   UNL     1       5.613  47.340  52.687  1.00  0.00     0.169 HD
BRANCH  22  25
ATOM     25  C   UNL     1       7.599  46.820  52.575  1.00  0.00     0.041 A 
ATOM     26  C   UNL     1       8.674  46.642  51.703  1.00  0.00     0.026 A 
ATOM     27  C   UNL     1       7.860  47.124  53.918  1.00  0.00     0.026 A 
ATOM     28  C   UNL     1       9.989  46.758  52.167  1.00  0.00     0.002 A 
ATOM     29  C   UNL     1       9.173  47.239  54.381  1.00  0.00     0.002 A 
ATOM     30  C   UNL     1      10.239  47.054  53.505  1.00  0.00     0.000 A 
ENDBRANCH  22  25
ENDBRANCH  18  21
ENDBRANCH   1  14
TORSDOF 5
ENDMDL
MODEL 5
REMARK VINA RESULT:    -9.141      2.680      5.793
REMARK INTER + INTRA:         -13.101
REMARK INTER:                 -12.953
REMARK INTRA:                  -0.149
REMARK UNBOUND:                -1.288
REMARK SMILES Cc1ccccc1-c1noc(C[NH+]2CCCC(C(=O)Nc3ccccc3)C2)n1
REMARK SMILES IDX 12 1 11 2 8 3 9 4 28 5 10 6 7 7 2 8 3 9 4 10 6 11 5 12 1 13
REMARK SMILES IDX 13 14 14 15 27 16 15 17 17 18 16 19 18 21 20 22 19 23 21 25
REMARK SMILES IDX 22 26 26 27 23 28 25 29 24 30
REMARK H PARENT 13 20 20 24
ROOT
ATOM      1  C   UNL     1       2.745  45.977  51.725  1.00  0.00     0.364 C 
ENDROOT
BRANCH   1   2
ATOM      2  C   UNL     1       4.023  46.526  52.250  1.00  0.00     0.282 A 
ATOM      3  C   UNL     1       5.992  46.980  52.846  1.00  0.00     0.202 A 
ATOM      4  N   UNL     1       5.234  47.891  53.477  1.00  0.00    -0.057 NA
ATOM      5  N   UNL     1       5.252  46.103  52.067  1.00  0.00    -0.186 NA
ATOM      6  O   UNL     1       3.935  47.592  53.088  1.00  0.00    -0.333 OA
BRANCH   3   7
ATOM      7  C   UNL     1       7.450  46.894  52.927  1.00  0.00     0.026 A 
ATOM      8  C   UNL     1       8.263  46.385  51.889  1.00  0.00    -0.040 A 
ATOM      9  C   UNL     1       9.658  46.330  52.078  1.00  0.00     0.004 A 
ATOM     10  C   UNL     1      10.246  46.784  53.258  1.00  0.00     0.000 A 
ATOM     11  C   UNL     1       8.067  47.354  54.109  1.00  0.00     0.012 A 
ATOM     12  C   UNL     1       9.452  47.300  54.273  1.00  0.00     0.001 A 
ATOM     13  C   UNL     1       7.713  45.879  50.581  1.00  0.00     0.045 C 
ENDBRANCH   3   7
ENDBRANCH   1   2
BRANCH   1  14
ATOM     14  N   UNL     1       2.017  45.009  52.653  1.00  0.00    -0.326 N 
ATOM     15  C   UNL     1       2.341  43.560  52.399  1.00  0.00     0.262 C 
ATOM     16  C   UNL     1       0.537  45.304  52.800  1.00  0.00     0.276 C 
ATOM     17  C   UNL     1       1.134  42.659  52.646  1.00  0.00     0.062 C 
ATOM     18  C   UNL     1      -0.015  44.507  53.989  1.00  0.00     0.134 C 
ATOM     19  C   UNL     1       0.359  43.017  53.914  1.00  0.00     0.025 C 
ATOM     20  H   UNL     1       2.399  45.242  53.592  1.00  0.00     0.348 HD
BRANCH  18  21
ATOM     21  C   UNL     1       0.548  45.104  55.273  1.00  0.00     0.233 C 
ATOM     22  N   UNL     1      -0.360  45.871  55.969  1.00  0.00    -0.326 N 
ATOM     23  O   UNL     1       1.692  44.803  55.611  1.00  0.00    -0.274 OA
ATOM     24  H   UNL     1      -1.292  45.976  55.582  1.00  0.00     0.169 HD
BRANCH  22  25
ATOM     25  C   UNL     1      -0.154  46.533  57.201  1.00  0.00     0.041 A 
ATOM     26  C   UNL     1       1.017  46.436  57.956  1.00  0.00     0.026 A 
ATOM     27  C   UNL     1      -1.201  47.333  57.676  1.00  0.00     0.026 A 
ATOM     28  C   UNL     1       1.135  47.123  59.169  1.00  0.00     0.002 A 
ATOM     29  C   UNL     1      -1.083  48.018  58.888  1.00  0.00     0.002 A 
ATOM     30  C   UNL     1       0.086  47.911  59.636  1.00  0.00     0.000 A 
ENDBRANCH  22  25
ENDBRANCH  18  21
ENDBRANCH   1  14
TORSDOF 5
ENDMDL
MODEL 6
REMARK VINA RESULT:    -8.760      1.799      6.452
REMARK INTER + INTRA:         -12.608
REMARK INTER:                 -12.593
REMARK INTRA:                  -0.015
REMARK UNBOUND:                -1.288
REMARK SMILES Cc1ccccc1-c1noc(C[NH+]2CCCC(C(=O)Nc3ccccc3)C2)n1
REMARK SMILES IDX 12 1 11 2 8 3 9 4 28 5 10 6 7 7 2 8 3 9 4 10 6 11 5 12 1 13
REMARK SMILES IDX 13 14 14 15 27 16 15 17 17 18 16 19 18 21 20 22 19 23 21 25
REMARK SMILES IDX 22 26 26 27 23 28 25 29 24 30
REMARK H PARENT 13 20 20 24
ROOT
ATOM      1  C   UNL     1       6.068  46.104  54.957  1.00  0.00     0.364 C 
ENDROOT
BRANCH   1   2
ATOM      2  C   UNL     1       4.674  45.828  54.521  1.00  0.00     0.282 A 
ATOM      3  C   UNL     1       2.664  45.258  54.249  1.00  0.00     0.202 A 
ATOM      4  N   UNL     1       3.054  45.694  53.041  1.00  0.00    -0.057 NA
ATOM      5  N   UNL     1       3.669  45.328  55.202  1.00  0.00    -0.186 NA
ATOM      6  O   UNL     1       4.379  46.067  53.216  1.00  0.00    -0.333 OA
BRANCH   3   7
ATOM      7  C   UNL     1       1.325  44.768  54.579  1.00  0.00     0.026 A 
ATOM      8  C   UNL     1       0.717  43.663  53.942  1.00  0.00    -0.040 A 
ATOM      9  C   UNL     1      -0.586  43.286  54.323  1.00  0.00     0.004 A 
ATOM     10  C   UNL     1      -1.271  43.970  55.327  1.00  0.00     0.000 A 
ATOM     11  C   UNL     1       0.616  45.441  55.595  1.00  0.00     0.012 A 
ATOM     12  C   UNL     1      -0.670  45.046  55.966  1.00  0.00     0.001 A 
ATOM     13  C   UNL     1       1.387  42.865  52.854  1.00  0.00     0.045 C 
ENDBRANCH   3   7
ENDBRANCH   1   2
BRANCH   1  14
ATOM     14  N   UNL     1       7.071  46.351  53.834  1.00  0.00    -0.326 N 
ATOM     15  C   UNL     1       8.421  46.814  54.313  1.00  0.00     0.262 C 
ATOM     16  C   UNL     1       6.506  47.152  52.678  1.00  0.00     0.276 C 
ATOM     17  C   UNL     1       9.061  47.797  53.336  1.00  0.00     0.062 C 
ATOM     18  C   UNL     1       7.463  47.051  51.484  1.00  0.00     0.134 C 
ATOM     19  C   UNL     1       8.914  47.380  51.873  1.00  0.00     0.025 C 
ATOM     20  H   UNL     1       7.206  45.405  53.420  1.00  0.00     0.348 HD
BRANCH  18  21
ATOM     21  C   UNL     1       7.399  45.631  50.934  1.00  0.00     0.233 C 
ATOM     22  N   UNL     1       6.142  45.070  51.001  1.00  0.00    -0.326 N 
ATOM     23  O   UNL     1       8.411  45.149  50.425  1.00  0.00    -0.274 OA
ATOM     24  H   UNL     1       5.393  45.625  51.400  1.00  0.00     0.169 HD
BRANCH  22  25
ATOM     25  C   UNL     1       5.754  43.788  50.551  1.00  0.00     0.041 A 
ATOM     26  C   UNL     1       6.374  43.103  49.504  1.00  0.00     0.026 A 
ATOM     27  C   UNL     1       4.677  43.181  51.212  1.00  0.00     0.026 A 
ATOM     28  C   UNL     1       5.922  41.837  49.120  1.00  0.00     0.002 A 
ATOM     29  C   UNL     1       4.225  41.917  50.828  1.00  0.00     0.002 A 
ATOM     30  C   UNL     1       4.847  41.244  49.779  1.00  0.00     0.000 A 
ENDBRANCH  22  25
ENDBRANCH  18  21
ENDBRANCH   1  14
TORSDOF 5
ENDMDL
MODEL 7
REMARK VINA RESULT:    -8.636      2.951      8.294
REMARK INTER + INTRA:         -12.448
REMARK INTER:                 -11.843
REMARK INTRA:                  -0.605
REMARK UNBOUND:                -1.288
REMARK SMILES Cc1ccccc1-c1noc(C[NH+]2CCCC(C(=O)Nc3ccccc3)C2)n1
REMARK SMILES IDX 12 1 11 2 8 3 9 4 28 5 10 6 7 7 2 8 3 9 4 10 6 11 5 12 1 13
REMARK SMILES IDX 13 14 14 15 27 16 15 17 17 18 16 19 18 21 20 22 19 23 21 25
REMARK SMILES IDX 22 26 26 27 23 28 25 29 24 30
REMARK H PARENT 13 20 20 24
ROOT
ATOM      1  C   UNL     1       4.633  41.586  51.051  1.00  0.00     0.364 C 
ENDROOT
BRANCH   1   2
ATOM      2  C   UNL     1       4.423  41.151  49.646  1.00  0.00     0.282 A 
ATOM      3  C   UNL     1       3.831  40.322  47.801  1.00  0.00     0.202 A 
ATOM      4  N   UNL     1       5.005  40.918  47.538  1.00  0.00    -0.057 NA
ATOM      5  N   UNL     1       3.441  40.452  49.125  1.00  0.00    -0.186 NA
ATOM      6  O   UNL     1       5.399  41.462  48.753  1.00  0.00    -0.333 OA
BRANCH   3   7
ATOM      7  C   UNL     1       3.004  39.616  46.821  1.00  0.00     0.026 A 
ATOM      8  C   UNL     1       2.518  40.210  45.635  1.00  0.00    -0.040 A 
ATOM      9  C   UNL     1       1.714  39.445  44.768  1.00  0.00     0.004 A 
ATOM     10  C   UNL     1       1.410  38.113  45.051  1.00  0.00     0.000 A 
ATOM     11  C   UNL     1       2.690  38.267  47.084  1.00  0.00     0.012 A 
ATOM     12  C   UNL     1       1.900  37.522  46.207  1.00  0.00     0.001 A 
ATOM     13  C   UNL     1       2.803  41.638  45.249  1.00  0.00     0.045 C 
ENDBRANCH   3   7
ENDBRANCH   1   2
BRANCH   1  14
ATOM     14  N   UNL     1       4.249  43.031  51.355  1.00  0.00    -0.326 N 
ATOM     15  C   UNL     1       2.798  43.213  51.715  1.00  0.00     0.262 C 
ATOM     16  C   UNL     1       4.774  44.028  50.340  1.00  0.00     0.276 C 
ATOM     17  C   UNL     1       2.252  44.546  51.207  1.00  0.00     0.062 C 
ATOM     18  C   UNL     1       4.628  45.445  50.909  1.00  0.00     0.134 C 
ATOM     19  C   UNL     1       3.208  45.717  51.433  1.00  0.00     0.025 C 
ATOM     20  H   UNL     1       4.800  43.253  52.209  1.00  0.00     0.348 HD
BRANCH  18  21
ATOM     21  C   UNL     1       5.626  45.611  52.049  1.00  0.00     0.233 C 
ATOM     22  N   UNL     1       6.755  46.317  51.696  1.00  0.00    -0.326 N 
ATOM     23  O   UNL     1       5.323  45.189  53.165  1.00  0.00    -0.274 OA
ATOM     24  H   UNL     1       6.828  46.651  50.741  1.00  0.00     0.169 HD
BRANCH  22  25
ATOM     25  C   UNL     1       7.844  46.661  52.528  1.00  0.00     0.041 A 
ATOM     26  C   UNL     1       7.716  47.304  53.760  1.00  0.00     0.026 A 
ATOM     27  C   UNL     1       9.125  46.322  52.071  1.00  0.00     0.026 A 
ATOM     28  C   UNL     1       8.850  47.611  54.519  1.00  0.00     0.002 A 
ATOM     29  C   UNL     1      10.257  46.630  52.829  1.00  0.00     0.002 A 
ATOM     30  C   UNL     1      10.120  47.277  54.054  1.00  0.00     0.000 A 
ENDBRANCH  22  25
ENDBRANCH  18  21
ENDBRANCH   1  14
TORSDOF 5
ENDMDL
MODEL 8
REMARK VINA RESULT:    -8.571      2.002      4.839
REMARK INTER + INTRA:         -12.365
REMARK INTER:                 -10.863
REMARK INTRA:                  -1.502
REMARK UNBOUND:                -1.288
REMARK SMILES Cc1ccccc1-c1noc(C[NH+]2CCCC(C(=O)Nc3ccccc3)C2)n1
REMARK SMILES IDX 12 1 11 2 8 3 9 4 28 5 10 6 7 7 2 8 3 9 4 10 6 11 5 12 1 13
REMARK SMILES IDX 13 14 14 15 27 16 15 17 17 18 16 19 18 21 20 22 19 23 21 25
REMARK SMILES IDX 22 26 26 27 23 28 25 29 24 30
REMARK H PARENT 13 20 20 24
ROOT
ATOM      1  C   UNL     1       1.018  42.907  51.483  1.00  0.00     0.364 C 
ENDROOT
BRANCH   1   2
ATOM      2  C   UNL     1       2.487  42.849  51.261  1.00  0.00     0.282 A 
ATOM      3  C   UNL     1       4.533  43.144  50.857  1.00  0.00     0.202 A 
ATOM      4  N   UNL     1       4.404  41.813  50.969  1.00  0.00    -0.057 NA
ATOM      5  N   UNL     1       3.337  43.823  51.034  1.00  0.00    -0.186 NA
ATOM      6  O   UNL     1       3.056  41.615  51.233  1.00  0.00    -0.333 OA
BRANCH   3   7
ATOM      7  C   UNL     1       5.787  43.852  50.595  1.00  0.00     0.026 A 
ATOM      8  C   UNL     1       6.737  43.432  49.636  1.00  0.00    -0.040 A 
ATOM      9  C   UNL     1       7.922  44.177  49.476  1.00  0.00     0.004 A 
ATOM     10  C   UNL     1       8.160  45.326  50.231  1.00  0.00     0.000 A 
ATOM     11  C   UNL     1       6.046  45.020  51.341  1.00  0.00     0.012 A 
ATOM     12  C   UNL     1       7.221  45.750  51.161  1.00  0.00     0.001 A 
ATOM     13  C   UNL     1       6.557  42.209  48.775  1.00  0.00     0.045 C 
ENDBRANCH   3   7
ENDBRANCH   1   2
BRANCH   1  14
ATOM     14  N   UNL     1       0.580  43.423  52.850  1.00  0.00    -0.326 N 
ATOM     15  C   UNL     1      -0.430  42.544  53.539  1.00  0.00     0.262 C 
ATOM     16  C   UNL     1       0.239  44.901  52.863  1.00  0.00     0.276 C 
ATOM     17  C   UNL     1      -1.423  43.361  54.361  1.00  0.00     0.062 C 
ATOM     18  C   UNL     1       0.146  45.379  54.317  1.00  0.00     0.134 C 
ATOM     19  C   UNL     1      -0.766  44.480  55.168  1.00  0.00     0.025 C 
ATOM     20  H   UNL     1       1.453  43.378  53.415  1.00  0.00     0.348 HD
BRANCH  18  21
ATOM     21  C   UNL     1       1.549  45.382  54.914  1.00  0.00     0.233 C 
ATOM     22  N   UNL     1       2.522  45.807  54.035  1.00  0.00    -0.326 N 
ATOM     23  O   UNL     1       1.685  45.094  56.103  1.00  0.00    -0.274 OA
ATOM     24  H   UNL     1       2.235  46.067  53.098  1.00  0.00     0.169 HD
BRANCH  22  25
ATOM     25  C   UNL     1       3.904  45.946  54.293  1.00  0.00     0.041 A 
ATOM     26  C   UNL     1       4.709  44.935  54.821  1.00  0.00     0.026 A 
ATOM     27  C   UNL     1       4.485  47.185  53.990  1.00  0.00     0.026 A 
ATOM     28  C   UNL     1       6.070  45.161  55.049  1.00  0.00     0.002 A 
ATOM     29  C   UNL     1       5.845  47.411  54.219  1.00  0.00     0.002 A 
ATOM     30  C   UNL     1       6.638  46.397  54.751  1.00  0.00     0.000 A 
ENDBRANCH  22  25
ENDBRANCH  18  21
ENDBRANCH   1  14
TORSDOF 5
ENDMDL
MODEL 9
REMARK VINA RESULT:    -8.560      2.277      5.512
REMARK INTER + INTRA:         -12.350
REMARK INTER:                 -11.802
REMARK INTRA:                  -0.548
REMARK UNBOUND:                -1.288
REMARK SMILES Cc1ccccc1-c1noc(C[NH+]2CCCC(C(=O)Nc3ccccc3)C2)n1
REMARK SMILES IDX 12 1 11 2 8 3 9 4 28 5 10 6 7 7 2 8 3 9 4 10 6 11 5 12 1 13
REMARK SMILES IDX 13 14 14 15 27 16 15 17 17 18 16 19 18 21 20 22 19 23 21 25
REMARK SMILES IDX 22 26 26 27 23 28 25 29 24 30
REMARK H PARENT 13 20 20 24
ROOT
ATOM      1  C   UNL     1       3.144  45.328  54.982  1.00  0.00     0.364 C 
ENDROOT
BRANCH   1   2
ATOM      2  C   UNL     1       4.296  46.036  54.365  1.00  0.00     0.282 A 
ATOM      3  C   UNL     1       6.135  46.730  53.606  1.00  0.00     0.202 A 
ATOM      4  N   UNL     1       5.314  47.788  53.509  1.00  0.00    -0.057 NA
ATOM      5  N   UNL     1       5.518  45.611  54.146  1.00  0.00    -0.186 NA
ATOM      6  O   UNL     1       4.102  47.334  54.012  1.00  0.00    -0.333 OA
BRANCH   3   7
ATOM      7  C   UNL     1       7.535  46.706  53.182  1.00  0.00     0.026 A 
ATOM      8  C   UNL     1       7.963  46.234  51.921  1.00  0.00    -0.040 A 
ATOM      9  C   UNL     1       9.339  46.239  51.620  1.00  0.00     0.004 A 
ATOM     10  C   UNL     1      10.277  46.718  52.535  1.00  0.00     0.000 A 
ATOM     11  C   UNL     1       8.500  47.192  54.088  1.00  0.00     0.012 A 
ATOM     12  C   UNL     1       9.858  47.198  53.768  1.00  0.00     0.001 A 
ATOM     13  C   UNL     1       7.019  45.706  50.872  1.00  0.00     0.045 C 
ENDBRANCH   3   7
ENDBRANCH   1   2
BRANCH   1  14
ATOM     14  N   UNL     1       2.158  44.699  54.001  1.00  0.00    -0.326 N 
ATOM     15  C   UNL     1       2.795  43.750  53.021  1.00  0.00     0.262 C 
ATOM     16  C   UNL     1       1.200  45.695  53.378  1.00  0.00     0.276 C 
ATOM     17  C   UNL     1       2.109  43.799  51.658  1.00  0.00     0.062 C 
ATOM     18  C   UNL     1       0.061  44.930  52.691  1.00  0.00     0.134 C 
ATOM     19  C   UNL     1       0.584  43.833  51.748  1.00  0.00     0.025 C 
ATOM     20  H   UNL     1       1.540  44.129  54.614  1.00  0.00     0.348 HD
BRANCH  18  21
ATOM     21  C   UNL     1      -0.811  44.295  53.768  1.00  0.00     0.233 C 
ATOM     22  N   UNL     1      -1.142  45.158  54.790  1.00  0.00    -0.326 N 
ATOM     23  O   UNL     1      -1.199  43.138  53.606  1.00  0.00    -0.274 OA
ATOM     24  H   UNL     1      -0.787  46.107  54.745  1.00  0.00     0.169 HD
BRANCH  22  25
ATOM     25  C   UNL     1      -1.954  44.881  55.912  1.00  0.00     0.041 A 
ATOM     26  C   UNL     1      -2.215  43.597  56.393  1.00  0.00     0.026 A 
ATOM     27  C   UNL     1      -2.522  45.979  56.573  1.00  0.00     0.026 A 
ATOM     28  C   UNL     1      -3.036  43.413  57.511  1.00  0.00     0.002 A 
ATOM     29  C   UNL     1      -3.342  45.795  57.688  1.00  0.00     0.002 A 
ATOM     30  C   UNL     1      -3.601  44.510  58.157  1.00  0.00     0.000 A 
ENDBRANCH  22  25
ENDBRANCH  18  21
ENDBRANCH   1  14
TORSDOF 5
ENDMDL
