MODEL 1
REMARK VINA RESULT:    -8.245      0.000      0.000
REMARK INTER + INTRA:         -15.284
REMARK INTER:                 -11.859
REMARK INTRA:                  -3.424
REMARK UNBOUND:                -3.424
REMARK SMILES CC(SC(C)c1nc(N)nc(Nc2ccccc2)n1)C(=O)Nc1ccc2c(c1)CCC2
REMARK SMILES IDX 3 1 2 2 1 3 20 4 22 5 21 6 23 8 24 9 28 10 25 11 27 12 26 13
REMARK SMILES IDX 29 14 31 15 30 16 4 17 5 18 6 19 7 20 19 21 8 22 11 23 10 24
REMARK SMILES IDX 9 25 12 28 13 30 14 31 18 32 15 33 17 34 16 35
REMARK H PARENT 22 7 9 26 9 27 12 29
ROOT
ATOM      1  S   UNL     1      -1.523  43.740  54.236  1.00  0.00    -0.138 SA
ENDROOT
BRANCH   1   2
ATOM      2  C   UNL     1      -1.509  44.937  52.837  1.00  0.00     0.133 C 
ATOM      3  C   UNL     1      -2.830  44.837  52.086  1.00  0.00     0.030 C 
BRANCH   2   4
ATOM      4  C   UNL     1      -0.297  44.668  51.928  1.00  0.00     0.237 C 
ATOM      5  N   UNL     1       0.892  45.116  52.492  1.00  0.00    -0.325 N 
ATOM      6  O   UNL     1      -0.424  44.179  50.810  1.00  0.00    -0.273 OA
ATOM      7  H   UNL     1       0.844  45.380  53.468  1.00  0.00     0.169 HD
BRANCH   5   8
ATOM      8  C   UNL     1       2.166  45.184  51.895  1.00  0.00     0.041 A 
ATOM      9  C   UNL     1       2.753  46.373  51.436  1.00  0.00     0.026 A 
ATOM     10  C   UNL     1       2.882  43.981  51.797  1.00  0.00     0.030 A 
ATOM     11  C   UNL     1       4.043  46.380  50.890  1.00  0.00     0.006 A 
ATOM     12  C   UNL     1       4.155  43.996  51.249  1.00  0.00    -0.043 A 
ATOM     13  C   UNL     1       4.731  45.185  50.802  1.00  0.00    -0.045 A 
ATOM     14  C   UNL     1       5.107  42.851  51.105  1.00  0.00     0.036 C 
ATOM     15  C   UNL     1       6.126  44.952  50.315  1.00  0.00     0.036 C 
ATOM     16  C   UNL     1       6.120  43.430  50.107  1.00  0.00     0.010 C 
ENDBRANCH   5   8
ENDBRANCH   2   4
ENDBRANCH   1   2
BRANCH   1  17
ATOM     17  C   UNL     1      -1.675  44.920  55.641  1.00  0.00     0.113 C 
ATOM     18  C   UNL     1      -2.557  44.298  56.723  1.00  0.00     0.028 C 
BRANCH  17  19
ATOM     19  C   UNL     1      -0.324  45.308  56.213  1.00  0.00     0.149 A 
ATOM     20  N   UNL     1      -0.318  46.066  57.307  1.00  0.00    -0.197 NA
ATOM     21  N   UNL     1       0.778  44.914  55.569  1.00  0.00    -0.196 NA
ATOM     22  C   UNL     1       0.883  46.389  57.757  1.00  0.00     0.225 A 
ATOM     23  C   UNL     1       1.937  45.285  56.105  1.00  0.00     0.232 A 
ATOM     24  N   UNL     1       2.025  46.044  57.190  1.00  0.00    -0.177 NA
BRANCH  22  25
ATOM     25  N   UNL     1       0.946  47.185  58.882  1.00  0.00    -0.368 N 
ATOM     26  H   UNL     1       1.680  47.870  58.801  1.00  0.00     0.159 HD
ATOM     27  H   UNL     1       0.941  46.614  59.719  1.00  0.00     0.159 HD
ENDBRANCH  22  25
BRANCH  23  28
ATOM     28  N   UNL     1       3.062  44.849  55.409  1.00  0.00    -0.324 N 
ATOM     29  H   UNL     1       3.078  43.838  55.403  1.00  0.00     0.170 HD
BRANCH  28  30
ATOM     30  C   UNL     1       4.196  45.488  54.894  1.00  0.00     0.041 A 
ATOM     31  C   UNL     1       4.262  46.854  54.609  1.00  0.00     0.026 A 
ATOM     32  C   UNL     1       5.324  44.704  54.595  1.00  0.00     0.026 A 
ATOM     33  C   UNL     1       5.420  47.426  54.070  1.00  0.00     0.002 A 
ATOM     34  C   UNL     1       6.482  45.269  54.055  1.00  0.00     0.002 A 
ATOM     35  C   UNL     1       6.531  46.635  53.796  1.00  0.00     0.000 A 
ENDBRANCH  28  30
ENDBRANCH  23  28
ENDBRANCH  17  19
ENDBRANCH   1  17
TORSDOF 8
ENDMDL
MODEL 2
REMARK VINA RESULT:    -8.171      2.355      3.937
REMARK INTER + INTRA:         -15.177
REMARK INTER:                 -13.572
REMARK INTRA:                  -1.606
REMARK UNBOUND:                -3.424
REMARK SMILES CC(SC(C)c1nc(N)nc(Nc2ccccc2)n1)C(=O)Nc1ccc2c(c1)CCC2
REMARK SMILES IDX 3 1 2 2 1 3 20 4 22 5 21 6 23 8 24 9 28 10 25 11 27 12 26 13
REMARK SMILES IDX 29 14 31 15 30 16 4 17 5 18 6 19 7 20 19 21 8 22 11 23 10 24
REMARK SMILES IDX 9 25 12 28 13 30 14 31 18 32 15 33 17 34 16 35
REMARK H PARENT 22 7 9 26 9 27 12 29
ROOT
ATOM      1  S   UNL     1       1.275  43.284  54.205  1.00  0.00    -0.138 SA
ENDROOT
BRANCH   1   2
ATOM      2  C   UNL     1       0.455  43.294  52.557  1.00  0.00     0.133 C 
ATOM      3  C   UNL     1      -0.679  42.277  52.561  1.00  0.00     0.030 C 
BRANCH   2   4
ATOM      4  C   UNL     1       1.489  43.013  51.454  1.00  0.00     0.237 C 
ATOM      5  N   UNL     1       2.773  42.857  51.964  1.00  0.00    -0.325 N 
ATOM      6  O   UNL     1       1.182  43.010  50.265  1.00  0.00    -0.273 OA
ATOM      7  H   UNL     1       2.837  42.763  52.970  1.00  0.00     0.169 HD
BRANCH   5   8
ATOM      8  C   UNL     1       3.984  42.747  51.253  1.00  0.00     0.041 A 
ATOM      9  C   UNL     1       4.442  41.557  50.668  1.00  0.00     0.026 A 
ATOM     10  C   UNL     1       4.739  43.920  51.107  1.00  0.00     0.030 A 
ATOM     11  C   UNL     1       5.636  41.522  49.936  1.00  0.00     0.006 A 
ATOM     12  C   UNL     1       5.922  43.876  50.387  1.00  0.00    -0.043 A 
ATOM     13  C   UNL     1       6.365  42.689  49.805  1.00  0.00    -0.045 A 
ATOM     14  C   UNL     1       6.843  45.009  50.061  1.00  0.00     0.036 C 
ATOM     15  C   UNL     1       7.626  42.911  49.031  1.00  0.00     0.036 C 
ATOM     16  C   UNL     1       8.101  44.251  49.612  1.00  0.00     0.010 C 
ENDBRANCH   5   8
ENDBRANCH   2   4
ENDBRANCH   1   2
BRANCH   1  17
ATOM     17  C   UNL     1       1.322  45.096  54.530  1.00  0.00     0.113 C 
ATOM     18  C   UNL     1       1.411  45.332  56.037  1.00  0.00     0.028 C 
BRANCH  17  19
ATOM     19  C   UNL     1       2.475  45.777  53.816  1.00  0.00     0.149 A 
ATOM     20  N   UNL     1       2.273  46.162  52.558  1.00  0.00    -0.197 NA
ATOM     21  N   UNL     1       3.636  45.911  54.462  1.00  0.00    -0.196 NA
ATOM     22  C   UNL     1       3.312  46.736  51.975  1.00  0.00     0.225 A 
ATOM     23  C   UNL     1       4.618  46.507  53.792  1.00  0.00     0.232 A 
ATOM     24  N   UNL     1       4.495  46.913  52.535  1.00  0.00    -0.177 NA
BRANCH  22  25
ATOM     25  N   UNL     1       3.160  47.142  50.665  1.00  0.00    -0.368 N 
ATOM     26  H   UNL     1       4.022  47.046  50.153  1.00  0.00     0.159 HD
ATOM     27  H   UNL     1       2.701  48.044  50.626  1.00  0.00     0.159 HD
ENDBRANCH  22  25
BRANCH  23  28
ATOM     28  N   UNL     1       5.809  46.635  54.503  1.00  0.00    -0.324 N 
ATOM     29  H   UNL     1       5.599  46.765  55.482  1.00  0.00     0.170 HD
BRANCH  28  30
ATOM     30  C   UNL     1       7.151  46.781  54.133  1.00  0.00     0.041 A 
ATOM     31  C   UNL     1       7.776  46.020  53.142  1.00  0.00     0.026 A 
ATOM     32  C   UNL     1       7.938  47.712  54.833  1.00  0.00     0.026 A 
ATOM     33  C   UNL     1       9.130  46.198  52.838  1.00  0.00     0.002 A 
ATOM     34  C   UNL     1       9.291  47.893  54.536  1.00  0.00     0.002 A 
ATOM     35  C   UNL     1       9.888  47.136  53.533  1.00  0.00     0.000 A 
ENDBRANCH  28  30
ENDBRANCH  23  28
ENDBRANCH  17  19
ENDBRANCH   1  17
TORSDOF 8
ENDMDL
MODEL 3
REMARK VINA RESULT:    -8.155      0.626      1.336
REMARK INTER + INTRA:         -15.155
REMARK INTER:                 -11.725
REMARK INTRA:                  -3.430
REMARK UNBOUND:                -3.424
REMARK SMILES CC(SC(C)c1nc(N)nc(Nc2ccccc2)n1)C(=O)Nc1ccc2c(c1)CCC2
REMARK SMILES IDX 3 1 2 2 1 3 20 4 22 5 21 6 23 8 24 9 28 10 25 11 27 12 26 13
REMARK SMILES IDX 29 14 31 15 30 16 4 17 5 18 6 19 7 20 19 21 8 22 11 23 10 24
REMARK SMILES IDX 9 25 12 28 13 30 14 31 18 32 15 33 17 34 16 35
REMARK H PARENT 22 7 9 26 9 27 12 29
ROOT
ATOM      1  S   UNL     1      -1.839  43.909  54.409  1.00  0.00    -0.138 SA
ENDROOT
BRANCH   1   2
ATOM      2  C   UNL     1      -1.594  44.861  52.852  1.00  0.00     0.133 C 
ATOM      3  C   UNL     1      -2.896  44.863  52.062  1.00  0.00     0.030 C 
BRANCH   2   4
ATOM      4  C   UNL     1      -0.425  44.264  52.050  1.00  0.00     0.237 C 
ATOM      5  N   UNL     1       0.771  44.301  52.758  1.00  0.00    -0.325 N 
ATOM      6  O   UNL     1      -0.564  43.881  50.892  1.00  0.00    -0.273 OA
ATOM      7  H   UNL     1       0.693  44.530  53.741  1.00  0.00     0.169 HD
BRANCH   5   8
ATOM      8  C   UNL     1       2.065  43.993  52.295  1.00  0.00     0.041 A 
ATOM      9  C   UNL     1       2.638  42.714  52.365  1.00  0.00     0.026 A 
ATOM     10  C   UNL     1       2.789  45.039  51.703  1.00  0.00     0.030 A 
ATOM     11  C   UNL     1       3.915  42.462  51.847  1.00  0.00     0.006 A 
ATOM     12  C   UNL     1       4.054  44.783  51.200  1.00  0.00    -0.043 A 
ATOM     13  C   UNL     1       4.611  43.507  51.269  1.00  0.00    -0.045 A 
ATOM     14  C   UNL     1       4.967  45.728  50.482  1.00  0.00     0.036 C 
ATOM     15  C   UNL     1       5.951  43.472  50.603  1.00  0.00     0.036 C 
ATOM     16  C   UNL     1       6.298  44.967  50.551  1.00  0.00     0.010 C 
ENDBRANCH   5   8
ENDBRANCH   2   4
ENDBRANCH   1   2
BRANCH   1  17
ATOM     17  C   UNL     1      -1.964  45.308  55.601  1.00  0.00     0.113 C 
ATOM     18  C   UNL     1      -3.042  44.987  56.636  1.00  0.00     0.028 C 
BRANCH  17  19
ATOM     19  C   UNL     1      -0.640  45.600  56.283  1.00  0.00     0.149 A 
ATOM     20  N   UNL     1      -0.671  46.350  57.381  1.00  0.00    -0.197 NA
ATOM     21  N   UNL     1       0.481  45.135  55.725  1.00  0.00    -0.196 NA
ATOM     22  C   UNL     1       0.509  46.589  57.930  1.00  0.00     0.225 A 
ATOM     23  C   UNL     1       1.615  45.424  56.356  1.00  0.00     0.232 A 
ATOM     24  N   UNL     1       1.667  46.169  57.452  1.00  0.00    -0.177 NA
BRANCH  22  25
ATOM     25  N   UNL     1       0.534  47.372  59.064  1.00  0.00    -0.368 N 
ATOM     26  H   UNL     1       1.453  47.385  59.476  1.00  0.00     0.159 HD
ATOM     27  H   UNL     1      -0.239  47.135  59.675  1.00  0.00     0.159 HD
ENDBRANCH  22  25
BRANCH  23  28
ATOM     28  N   UNL     1       2.761  44.915  55.748  1.00  0.00    -0.324 N 
ATOM     29  H   UNL     1       2.817  43.921  55.923  1.00  0.00     0.170 HD
BRANCH  28  30
ATOM     30  C   UNL     1       3.871  45.496  55.125  1.00  0.00     0.041 A 
ATOM     31  C   UNL     1       3.901  46.806  54.643  1.00  0.00     0.026 A 
ATOM     32  C   UNL     1       5.014  44.701  54.923  1.00  0.00     0.026 A 
ATOM     33  C   UNL     1       5.036  47.319  54.006  1.00  0.00     0.002 A 
ATOM     34  C   UNL     1       6.150  45.207  54.286  1.00  0.00     0.002 A 
ATOM     35  C   UNL     1       6.162  46.521  53.830  1.00  0.00     0.000 A 
ENDBRANCH  28  30
ENDBRANCH  23  28
ENDBRANCH  17  19
ENDBRANCH   1  17
TORSDOF 8
ENDMDL
MODEL 4
REMARK VINA RESULT:    -7.743      1.414      2.118
REMARK INTER + INTRA:         -14.562
REMARK INTER:                 -12.081
REMARK INTRA:                  -2.482
REMARK UNBOUND:                -3.424
REMARK SMILES CC(SC(C)c1nc(N)nc(Nc2ccccc2)n1)C(=O)Nc1ccc2c(c1)CCC2
REMARK SMILES IDX 3 1 2 2 1 3 20 4 22 5 21 6 23 8 24 9 28 10 25 11 27 12 26 13
REMARK SMILES IDX 29 14 31 15 30 16 4 17 5 18 6 19 7 20 19 21 8 22 11 23 10 24
REMARK SMILES IDX 9 25 12 28 13 30 14 31 18 32 15 33 17 34 16 35
REMARK H PARENT 22 7 9 26 9 27 12 29
ROOT
ATOM      1  S   UNL     1      -1.647  43.142  52.703  1.00  0.00    -0.138 SA
ENDROOT
BRANCH   1   2
ATOM      2  C   UNL     1      -0.259  41.958  52.458  1.00  0.00     0.133 C 
ATOM      3  C   UNL     1       0.336  41.604  53.815  1.00  0.00     0.030 C 
BRANCH   2   4
ATOM      4  C   UNL     1       0.784  42.563  51.502  1.00  0.00     0.237 C 
ATOM      5  N   UNL     1       2.059  42.576  52.056  1.00  0.00    -0.325 N 
ATOM      6  O   UNL     1       0.466  43.035  50.415  1.00  0.00    -0.273 OA
ATOM      7  H   UNL     1       2.175  42.038  52.905  1.00  0.00     0.169 HD
BRANCH   5   8
ATOM      8  C   UNL     1       3.222  43.187  51.547  1.00  0.00     0.041 A 
ATOM      9  C   UNL     1       3.446  44.572  51.557  1.00  0.00     0.026 A 
ATOM     10  C   UNL     1       4.212  42.334  51.037  1.00  0.00     0.030 A 
ATOM     11  C   UNL     1       4.644  45.115  51.074  1.00  0.00     0.006 A 
ATOM     12  C   UNL     1       5.390  42.879  50.555  1.00  0.00    -0.043 A 
ATOM     13  C   UNL     1       5.605  44.257  50.576  1.00  0.00    -0.045 A 
ATOM     14  C   UNL     1       6.590  42.157  50.027  1.00  0.00     0.036 C 
ATOM     15  C   UNL     1       6.971  44.592  50.064  1.00  0.00     0.036 C 
ATOM     16  C   UNL     1       7.339  43.298  49.323  1.00  0.00     0.010 C 
ENDBRANCH   5   8
ENDBRANCH   2   4
ENDBRANCH   1   2
BRANCH   1  17
ATOM     17  C   UNL     1      -0.690  44.712  52.806  1.00  0.00     0.113 C 
ATOM     18  C   UNL     1      -1.597  45.877  52.412  1.00  0.00     0.028 C 
BRANCH  17  19
ATOM     19  C   UNL     1      -0.105  44.937  54.189  1.00  0.00     0.149 A 
ATOM     20  N   UNL     1      -0.944  45.301  55.156  1.00  0.00    -0.197 NA
ATOM     21  N   UNL     1       1.214  44.806  54.352  1.00  0.00    -0.196 NA
ATOM     22  C   UNL     1      -0.384  45.499  56.337  1.00  0.00     0.225 A 
ATOM     23  C   UNL     1       1.679  45.020  55.579  1.00  0.00     0.232 A 
ATOM     24  N   UNL     1       0.908  45.391  56.593  1.00  0.00    -0.177 NA
BRANCH  22  25
ATOM     25  N   UNL     1      -1.208  45.890  57.372  1.00  0.00    -0.368 N 
ATOM     26  H   UNL     1      -2.077  45.381  57.356  1.00  0.00     0.159 HD
ATOM     27  H   UNL     1      -1.269  46.900  57.412  1.00  0.00     0.159 HD
ENDBRANCH  22  25
BRANCH  23  28
ATOM     28  N   UNL     1       3.057  44.866  55.711  1.00  0.00    -0.324 N 
ATOM     29  H   UNL     1       3.252  44.284  56.513  1.00  0.00     0.170 HD
BRANCH  28  30
ATOM     30  C   UNL     1       4.165  45.459  55.094  1.00  0.00     0.041 A 
ATOM     31  C   UNL     1       4.193  46.779  54.637  1.00  0.00     0.026 A 
ATOM     32  C   UNL     1       5.306  44.668  54.871  1.00  0.00     0.026 A 
ATOM     33  C   UNL     1       5.325  47.303  54.005  1.00  0.00     0.002 A 
ATOM     34  C   UNL     1       6.439  45.185  54.238  1.00  0.00     0.002 A 
ATOM     35  C   UNL     1       6.450  46.508  53.808  1.00  0.00     0.000 A 
ENDBRANCH  28  30
ENDBRANCH  23  28
ENDBRANCH  17  19
ENDBRANCH   1  17
TORSDOF 8
ENDMDL
MODEL 5
REMARK VINA RESULT:    -7.641      2.506      5.303
REMARK INTER + INTRA:         -14.416
REMARK INTER:                 -13.204
REMARK INTRA:                  -1.212
REMARK UNBOUND:                -3.424
REMARK SMILES CC(SC(C)c1nc(N)nc(Nc2ccccc2)n1)C(=O)Nc1ccc2c(c1)CCC2
REMARK SMILES IDX 3 1 2 2 1 3 20 4 22 5 21 6 23 8 24 9 28 10 25 11 27 12 26 13
REMARK SMILES IDX 29 14 31 15 30 16 4 17 5 18 6 19 7 20 19 21 8 22 11 23 10 24
REMARK SMILES IDX 9 25 12 28 13 30 14 31 18 32 15 33 17 34 16 35
REMARK H PARENT 22 7 9 26 9 27 12 29
ROOT
ATOM      1  S   UNL     1       0.265  45.456  55.053  1.00  0.00    -0.138 SA
ENDROOT
BRANCH   1   2
ATOM      2  C   UNL     1       2.036  45.322  55.538  1.00  0.00     0.133 C 
ATOM      3  C   UNL     1       2.254  46.090  56.835  1.00  0.00     0.030 C 
BRANCH   2   4
ATOM      4  C   UNL     1       2.932  45.834  54.397  1.00  0.00     0.237 C 
ATOM      5  N   UNL     1       4.278  45.582  54.633  1.00  0.00    -0.325 N 
ATOM      6  O   UNL     1       2.472  46.455  53.443  1.00  0.00    -0.273 OA
ATOM      7  H   UNL     1       4.480  44.953  55.400  1.00  0.00     0.169 HD
BRANCH   5   8
ATOM      8  C   UNL     1       5.390  46.037  53.898  1.00  0.00     0.041 A 
ATOM      9  C   UNL     1       5.372  46.271  52.515  1.00  0.00     0.026 A 
ATOM     10  C   UNL     1       6.563  46.297  54.623  1.00  0.00     0.030 A 
ATOM     11  C   UNL     1       6.500  46.766  51.848  1.00  0.00     0.006 A 
ATOM     12  C   UNL     1       7.677  46.780  53.955  1.00  0.00    -0.043 A 
ATOM     13  C   UNL     1       7.645  47.014  52.581  1.00  0.00    -0.045 A 
ATOM     14  C   UNL     1       8.997  47.177  54.536  1.00  0.00     0.036 C 
ATOM     15  C   UNL     1       8.941  47.592  52.108  1.00  0.00     0.036 C 
ATOM     16  C   UNL     1       9.872  47.235  53.276  1.00  0.00     0.010 C 
ENDBRANCH   5   8
ENDBRANCH   2   4
ENDBRANCH   1   2
BRANCH   1  17
ATOM     17  C   UNL     1      -0.058  43.698  54.605  1.00  0.00     0.113 C 
ATOM     18  C   UNL     1      -1.552  43.411  54.753  1.00  0.00     0.028 C 
BRANCH  17  19
ATOM     19  C   UNL     1       0.411  43.370  53.199  1.00  0.00     0.149 A 
ATOM     20  N   UNL     1      -0.438  43.603  52.201  1.00  0.00    -0.197 NA
ATOM     21  N   UNL     1       1.620  42.825  53.042  1.00  0.00    -0.196 NA
ATOM     22  C   UNL     1       0.012  43.287  50.999  1.00  0.00     0.225 A 
ATOM     23  C   UNL     1       1.982  42.548  51.792  1.00  0.00     0.232 A 
ATOM     24  N   UNL     1       1.191  42.747  50.746  1.00  0.00    -0.177 NA
BRANCH  22  25
ATOM     25  N   UNL     1      -0.835  43.497  49.930  1.00  0.00    -0.368 N 
ATOM     26  H   UNL     1      -1.799  43.440  50.215  1.00  0.00     0.159 HD
ATOM     27  H   UNL     1      -0.555  42.928  49.141  1.00  0.00     0.159 HD
ENDBRANCH  22  25
BRANCH  23  28
ATOM     28  N   UNL     1       3.252  41.989  51.669  1.00  0.00    -0.324 N 
ATOM     29  H   UNL     1       3.446  41.421  52.481  1.00  0.00     0.170 HD
BRANCH  28  30
ATOM     30  C   UNL     1       4.316  42.179  50.780  1.00  0.00     0.041 A 
ATOM     31  C   UNL     1       4.703  41.250  49.811  1.00  0.00     0.026 A 
ATOM     32  C   UNL     1       5.080  43.354  50.897  1.00  0.00     0.026 A 
ATOM     33  C   UNL     1       5.794  41.491  48.970  1.00  0.00     0.002 A 
ATOM     34  C   UNL     1       6.173  43.600  50.061  1.00  0.00     0.002 A 
ATOM     35  C   UNL     1       6.528  42.667  49.092  1.00  0.00     0.000 A 
ENDBRANCH  28  30
ENDBRANCH  23  28
ENDBRANCH  17  19
ENDBRANCH   1  17
TORSDOF 8
ENDMDL
MODEL 6
REMARK VINA RESULT:    -7.587      2.283      3.798
REMARK INTER + INTRA:         -14.338
REMARK INTER:                 -13.127
REMARK INTRA:                  -1.211
REMARK UNBOUND:                -3.424
REMARK SMILES CC(SC(C)c1nc(N)nc(Nc2ccccc2)n1)C(=O)Nc1ccc2c(c1)CCC2
REMARK SMILES IDX 3 1 2 2 1 3 20 4 22 5 21 6 23 8 24 9 28 10 25 11 27 12 26 13
REMARK SMILES IDX 29 14 31 15 30 16 4 17 5 18 6 19 7 20 19 21 8 22 11 23 10 24
REMARK SMILES IDX 9 25 12 28 13 30 14 31 18 32 15 33 17 34 16 35
REMARK H PARENT 22 7 9 26 9 27 12 29
ROOT
ATOM      1  S   UNL     1       0.627  44.820  52.461  1.00  0.00    -0.138 SA
ENDROOT
BRANCH   1   2
ATOM      2  C   UNL     1       0.787  43.014  52.143  1.00  0.00     0.133 C 
ATOM      3  C   UNL     1       1.080  42.303  53.458  1.00  0.00     0.030 C 
BRANCH   2   4
ATOM      4  C   UNL     1       1.876  42.761  51.086  1.00  0.00     0.237 C 
ATOM      5  N   UNL     1       3.149  42.721  51.643  1.00  0.00    -0.325 N 
ATOM      6  O   UNL     1       1.610  42.684  49.890  1.00  0.00    -0.273 OA
ATOM      7  H   UNL     1       3.186  42.676  52.653  1.00  0.00     0.169 HD
BRANCH   5   8
ATOM      8  C   UNL     1       4.388  42.668  50.975  1.00  0.00     0.041 A 
ATOM      9  C   UNL     1       4.885  41.521  50.338  1.00  0.00     0.026 A 
ATOM     10  C   UNL     1       5.132  43.857  50.930  1.00  0.00     0.030 A 
ATOM     11  C   UNL     1       6.107  41.545  49.653  1.00  0.00     0.006 A 
ATOM     12  C   UNL     1       6.343  43.870  50.257  1.00  0.00    -0.043 A 
ATOM     13  C   UNL     1       6.825  42.725  49.623  1.00  0.00    -0.045 A 
ATOM     14  C   UNL     1       7.261  45.031  50.037  1.00  0.00     0.036 C 
ATOM     15  C   UNL     1       8.112  43.009  48.914  1.00  0.00     0.036 C 
ATOM     16  C   UNL     1       8.545  44.317  49.594  1.00  0.00     0.010 C 
ENDBRANCH   5   8
ENDBRANCH   2   4
ENDBRANCH   1   2
BRANCH   1  17
ATOM     17  C   UNL     1       2.384  45.324  52.227  1.00  0.00     0.113 C 
ATOM     18  C   UNL     1       2.433  46.573  51.349  1.00  0.00     0.028 C 
BRANCH  17  19
ATOM     19  C   UNL     1       3.089  45.573  53.547  1.00  0.00     0.149 A 
ATOM     20  N   UNL     1       2.329  45.704  54.632  1.00  0.00    -0.197 NA
ATOM     21  N   UNL     1       4.419  45.694  53.547  1.00  0.00    -0.196 NA
ATOM     22  C   UNL     1       2.989  45.935  55.754  1.00  0.00     0.225 A 
ATOM     23  C   UNL     1       4.990  45.919  54.727  1.00  0.00     0.232 A 
ATOM     24  N   UNL     1       4.300  46.067  55.850  1.00  0.00    -0.177 NA
BRANCH  22  25
ATOM     25  N   UNL     1       2.246  46.092  56.906  1.00  0.00    -0.368 N 
ATOM     26  H   UNL     1       2.525  46.920  57.407  1.00  0.00     0.159 HD
ATOM     27  H   UNL     1       2.221  45.226  57.430  1.00  0.00     0.159 HD
ENDBRANCH  22  25
BRANCH  23  28
ATOM     28  N   UNL     1       6.378  46.031  54.686  1.00  0.00    -0.324 N 
ATOM     29  H   UNL     1       6.759  45.772  55.585  1.00  0.00     0.170 HD
BRANCH  28  30
ATOM     30  C   UNL     1       7.284  46.561  53.760  1.00  0.00     0.041 A 
ATOM     31  C   UNL     1       6.976  47.585  52.862  1.00  0.00     0.026 A 
ATOM     32  C   UNL     1       8.570  45.997  53.689  1.00  0.00     0.026 A 
ATOM     33  C   UNL     1       7.921  48.052  51.943  1.00  0.00     0.002 A 
ATOM     34  C   UNL     1       9.518  46.457  52.772  1.00  0.00     0.002 A 
ATOM     35  C   UNL     1       9.194  47.491  51.899  1.00  0.00     0.000 A 
ENDBRANCH  28  30
ENDBRANCH  23  28
ENDBRANCH  17  19
ENDBRANCH   1  17
TORSDOF 8
ENDMDL
MODEL 7
REMARK VINA RESULT:    -7.501      3.725      7.862
REMARK INTER + INTRA:         -14.214
REMARK INTER:                 -11.113
REMARK INTRA:                  -3.101
REMARK UNBOUND:                -3.424
REMARK SMILES CC(SC(C)c1nc(N)nc(Nc2ccccc2)n1)C(=O)Nc1ccc2c(c1)CCC2
REMARK SMILES IDX 3 1 2 2 1 3 20 4 22 5 21 6 23 8 24 9 28 10 25 11 27 12 26 13
REMARK SMILES IDX 29 14 31 15 30 16 4 17 5 18 6 19 7 20 19 21 8 22 11 23 10 24
REMARK SMILES IDX 9 25 12 28 13 30 14 31 18 32 15 33 17 34 16 35
REMARK H PARENT 22 7 9 26 9 27 12 29
ROOT
ATOM      1  S   UNL     1       7.859  45.411  51.921  1.00  0.00    -0.138 SA
ENDROOT
BRANCH   1   2
ATOM      2  C   UNL     1       7.178  47.121  51.869  1.00  0.00     0.133 C 
ATOM      3  C   UNL     1       8.263  48.100  52.296  1.00  0.00     0.030 C 
BRANCH   2   4
ATOM      4  C   UNL     1       5.924  47.213  52.756  1.00  0.00     0.237 C 
ATOM      5  N   UNL     1       5.012  46.200  52.484  1.00  0.00    -0.325 N 
ATOM      6  O   UNL     1       5.759  48.137  53.547  1.00  0.00    -0.273 OA
ATOM      7  H   UNL     1       5.352  45.449  51.896  1.00  0.00     0.169 HD
BRANCH   5   8
ATOM      8  C   UNL     1       3.701  46.054  52.978  1.00  0.00     0.041 A 
ATOM      9  C   UNL     1       2.547  46.290  52.216  1.00  0.00     0.026 A 
ATOM     10  C   UNL     1       3.572  45.612  54.303  1.00  0.00     0.030 A 
ATOM     11  C   UNL     1       1.270  46.086  52.753  1.00  0.00     0.006 A 
ATOM     12  C   UNL     1       2.305  45.419  54.829  1.00  0.00    -0.043 A 
ATOM     13  C   UNL     1       1.164  45.652  54.061  1.00  0.00    -0.045 A 
ATOM     14  C   UNL     1       1.941  44.902  56.186  1.00  0.00     0.036 C 
ATOM     15  C   UNL     1      -0.075  45.311  54.828  1.00  0.00     0.036 C 
ATOM     16  C   UNL     1       0.459  45.296  56.267  1.00  0.00     0.010 C 
ENDBRANCH   5   8
ENDBRANCH   2   4
ENDBRANCH   1   2
BRANCH   1  17
ATOM     17  C   UNL     1       7.513  44.896  50.186  1.00  0.00     0.113 C 
ATOM     18  C   UNL     1       8.830  44.534  49.500  1.00  0.00     0.028 C 
BRANCH  17  19
ATOM     19  C   UNL     1       6.539  43.735  50.117  1.00  0.00     0.149 A 
ATOM     20  N   UNL     1       6.625  42.927  49.063  1.00  0.00    -0.197 NA
ATOM     21  N   UNL     1       5.624  43.612  51.082  1.00  0.00    -0.196 NA
ATOM     22  C   UNL     1       5.745  41.940  49.042  1.00  0.00     0.225 A 
ATOM     23  C   UNL     1       4.788  42.583  50.973  1.00  0.00     0.232 A 
ATOM     24  N   UNL     1       4.808  41.738  49.950  1.00  0.00    -0.177 NA
BRANCH  22  25
ATOM     25  N   UNL     1       5.783  41.080  47.963  1.00  0.00    -0.368 N 
ATOM     26  H   UNL     1       5.968  41.580  47.108  1.00  0.00     0.159 HD
ATOM     27  H   UNL     1       4.977  40.467  47.972  1.00  0.00     0.159 HD
ENDBRANCH  22  25
BRANCH  23  28
ATOM     28  N   UNL     1       3.855  42.484  52.002  1.00  0.00    -0.324 N 
ATOM     29  H   UNL     1       4.313  42.146  52.836  1.00  0.00     0.170 HD
BRANCH  28  30
ATOM     30  C   UNL     1       2.460  42.591  52.063  1.00  0.00     0.041 A 
ATOM     31  C   UNL     1       1.699  42.253  53.185  1.00  0.00     0.026 A 
ATOM     32  C   UNL     1       1.773  43.016  50.913  1.00  0.00     0.026 A 
ATOM     33  C   UNL     1       0.304  42.358  53.172  1.00  0.00     0.002 A 
ATOM     34  C   UNL     1       0.380  43.122  50.893  1.00  0.00     0.002 A 
ATOM     35  C   UNL     1      -0.356  42.796  52.028  1.00  0.00     0.000 A 
ENDBRANCH  28  30
ENDBRANCH  23  28
ENDBRANCH  17  19
ENDBRANCH   1  17
TORSDOF 8
ENDMDL
MODEL 8
REMARK VINA RESULT:    -7.452      3.297      7.294
REMARK INTER + INTRA:         -14.144
REMARK INTER:                 -13.351
REMARK INTRA:                  -0.793
REMARK UNBOUND:                -3.424
REMARK SMILES CC(SC(C)c1nc(N)nc(Nc2ccccc2)n1)C(=O)Nc1ccc2c(c1)CCC2
REMARK SMILES IDX 3 1 2 2 1 3 20 4 22 5 21 6 23 8 24 9 28 10 25 11 27 12 26 13
REMARK SMILES IDX 29 14 31 15 30 16 4 17 5 18 6 19 7 20 19 21 8 22 11 23 10 24
REMARK SMILES IDX 9 25 12 28 13 30 14 31 18 32 15 33 17 34 16 35
REMARK H PARENT 22 7 9 26 9 27 12 29
ROOT
ATOM      1  S   UNL     1       3.925  44.502  53.225  1.00  0.00    -0.138 SA
ENDROOT
BRANCH   1   2
ATOM      2  C   UNL     1       2.751  45.440  52.162  1.00  0.00     0.133 C 
ATOM      3  C   UNL     1       3.378  46.778  51.792  1.00  0.00     0.030 C 
BRANCH   2   4
ATOM      4  C   UNL     1       1.404  45.606  52.886  1.00  0.00     0.237 C 
ATOM      5  N   UNL     1       1.485  45.264  54.231  1.00  0.00    -0.325 N 
ATOM      6  O   UNL     1       0.384  45.933  52.287  1.00  0.00    -0.273 OA
ATOM      7  H   UNL     1       2.421  45.136  54.597  1.00  0.00     0.169 HD
BRANCH   5   8
ATOM      8  C   UNL     1       0.435  45.141  55.162  1.00  0.00     0.041 A 
ATOM      9  C   UNL     1       0.462  45.696  56.450  1.00  0.00     0.026 A 
ATOM     10  C   UNL     1      -0.707  44.446  54.736  1.00  0.00     0.030 A 
ATOM     11  C   UNL     1      -0.634  45.574  57.314  1.00  0.00     0.006 A 
ATOM     12  C   UNL     1      -1.784  44.324  55.599  1.00  0.00    -0.043 A 
ATOM     13  C   UNL     1      -1.749  44.884  56.875  1.00  0.00    -0.045 A 
ATOM     14  C   UNL     1      -3.109  43.682  55.332  1.00  0.00     0.036 C 
ATOM     15  C   UNL     1      -3.048  44.674  57.587  1.00  0.00     0.036 C 
ATOM     16  C   UNL     1      -3.664  43.539  56.756  1.00  0.00     0.010 C 
ENDBRANCH   5   8
ENDBRANCH   2   4
ENDBRANCH   1   2
BRANCH   1  17
ATOM     17  C   UNL     1       4.068  42.959  52.228  1.00  0.00     0.113 C 
ATOM     18  C   UNL     1       2.696  42.604  51.657  1.00  0.00     0.028 C 
BRANCH  17  19
ATOM     19  C   UNL     1       5.091  43.089  51.115  1.00  0.00     0.149 A 
ATOM     20  N   UNL     1       5.134  42.118  50.207  1.00  0.00    -0.197 NA
ATOM     21  N   UNL     1       5.920  44.136  51.130  1.00  0.00    -0.196 NA
ATOM     22  C   UNL     1       6.051  42.269  49.267  1.00  0.00     0.225 A 
ATOM     23  C   UNL     1       6.803  44.202  50.138  1.00  0.00     0.232 A 
ATOM     24  N   UNL     1       6.911  43.270  49.199  1.00  0.00    -0.177 NA
BRANCH  22  25
ATOM     25  N   UNL     1       6.145  41.282  48.308  1.00  0.00    -0.368 N 
ATOM     26  H   UNL     1       6.745  40.534  48.616  1.00  0.00     0.159 HD
ATOM     27  H   UNL     1       6.346  41.688  47.402  1.00  0.00     0.159 HD
ENDBRANCH  22  25
BRANCH  23  28
ATOM     28  N   UNL     1       7.644  45.311  50.183  1.00  0.00    -0.324 N 
ATOM     29  H   UNL     1       7.950  45.536  49.247  1.00  0.00     0.170 HD
BRANCH  28  30
ATOM     30  C   UNL     1       8.248  46.031  51.220  1.00  0.00     0.041 A 
ATOM     31  C   UNL     1       7.632  47.080  51.907  1.00  0.00     0.026 A 
ATOM     32  C   UNL     1       9.576  45.720  51.562  1.00  0.00     0.026 A 
ATOM     33  C   UNL     1       8.302  47.777  52.918  1.00  0.00     0.002 A 
ATOM     34  C   UNL     1      10.252  46.413  52.570  1.00  0.00     0.002 A 
ATOM     35  C   UNL     1       9.611  47.442  53.253  1.00  0.00     0.000 A 
ENDBRANCH  28  30
ENDBRANCH  23  28
ENDBRANCH  17  19
ENDBRANCH   1  17
TORSDOF 8
ENDMDL
MODEL 9
REMARK VINA RESULT:    -7.174      2.672      5.378
REMARK INTER + INTRA:         -13.744
REMARK INTER:                 -12.911
REMARK INTRA:                  -0.833
REMARK UNBOUND:                -3.424
REMARK SMILES CC(SC(C)c1nc(N)nc(Nc2ccccc2)n1)C(=O)Nc1ccc2c(c1)CCC2
REMARK SMILES IDX 3 1 2 2 1 3 20 4 22 5 21 6 23 8 24 9 28 10 25 11 27 12 26 13
REMARK SMILES IDX 29 14 31 15 30 16 4 17 5 18 6 19 7 20 19 21 8 22 11 23 10 24
REMARK SMILES IDX 9 25 12 28 13 30 14 31 18 32 15 33 17 34 16 35
REMARK H PARENT 22 7 9 26 9 27 12 29
ROOT
ATOM      1  S   UNL     1       1.361  43.428  53.443  1.00  0.00    -0.138 SA
ENDROOT
BRANCH   1   2
ATOM      2  C   UNL     1       2.138  44.915  52.688  1.00  0.00     0.133 C 
ATOM      3  C   UNL     1       1.828  44.933  51.196  1.00  0.00     0.030 C 
BRANCH   2   4
ATOM      4  C   UNL     1       3.650  44.920  52.971  1.00  0.00     0.237 C 
ATOM      5  N   UNL     1       4.339  45.789  52.134  1.00  0.00    -0.325 N 
ATOM      6  O   UNL     1       4.153  44.169  53.802  1.00  0.00    -0.273 OA
ATOM      7  H   UNL     1       3.767  46.424  51.593  1.00  0.00     0.169 HD
BRANCH   5   8
ATOM      8  C   UNL     1       5.733  45.940  51.995  1.00  0.00     0.041 A 
ATOM      9  C   UNL     1       6.462  45.488  50.885  1.00  0.00     0.026 A 
ATOM     10  C   UNL     1       6.400  46.617  53.027  1.00  0.00     0.030 A 
ATOM     11  C   UNL     1       7.843  45.708  50.787  1.00  0.00     0.006 A 
ATOM     12  C   UNL     1       7.766  46.824  52.926  1.00  0.00    -0.043 A 
ATOM     13  C   UNL     1       8.480  46.376  51.815  1.00  0.00    -0.045 A 
ATOM     14  C   UNL     1       8.657  47.566  53.872  1.00  0.00     0.036 C 
ATOM     15  C   UNL     1       9.919  46.775  51.909  1.00  0.00     0.036 C 
ATOM     16  C   UNL     1      10.043  47.099  53.405  1.00  0.00     0.010 C 
ENDBRANCH   5   8
ENDBRANCH   2   4
ENDBRANCH   1   2
BRANCH   1  17
ATOM     17  C   UNL     1      -0.384  44.010  53.530  1.00  0.00     0.113 C 
ATOM     18  C   UNL     1      -1.291  42.973  52.868  1.00  0.00     0.028 C 
BRANCH  17  19
ATOM     19  C   UNL     1      -0.830  44.274  54.956  1.00  0.00     0.149 A 
ATOM     20  N   UNL     1      -1.778  43.485  55.456  1.00  0.00    -0.197 NA
ATOM     21  N   UNL     1      -0.289  45.303  55.613  1.00  0.00    -0.196 NA
ATOM     22  C   UNL     1      -2.143  43.765  56.697  1.00  0.00     0.225 A 
ATOM     23  C   UNL     1      -0.718  45.498  56.857  1.00  0.00     0.232 A 
ATOM     24  N   UNL     1      -1.663  44.758  57.423  1.00  0.00    -0.177 NA
BRANCH  22  25
ATOM     25  N   UNL     1      -3.132  42.985  57.258  1.00  0.00    -0.368 N 
ATOM     26  H   UNL     1      -2.810  42.546  58.106  1.00  0.00     0.159 HD
ATOM     27  H   UNL     1      -3.545  42.381  56.558  1.00  0.00     0.159 HD
ENDBRANCH  22  25
BRANCH  23  28
ATOM     28  N   UNL     1      -0.125  46.575  57.511  1.00  0.00    -0.324 N 
ATOM     29  H   UNL     1       0.864  46.588  57.302  1.00  0.00     0.170 HD
BRANCH  28  30
ATOM     30  C   UNL     1      -0.564  47.488  58.477  1.00  0.00     0.041 A 
ATOM     31  C   UNL     1      -1.687  48.304  58.329  1.00  0.00     0.026 A 
ATOM     32  C   UNL     1       0.198  47.635  59.650  1.00  0.00     0.026 A 
ATOM     33  C   UNL     1      -2.058  49.216  59.323  1.00  0.00     0.002 A 
ATOM     34  C   UNL     1      -0.165  48.545  60.646  1.00  0.00     0.002 A 
ATOM     35  C   UNL     1      -1.299  49.335  60.484  1.00  0.00     0.000 A 
ENDBRANCH  28  30
ENDBRANCH  23  28
ENDBRANCH  17  19
ENDBRANCH   1  17
TORSDOF 8
ENDMDL
MODEL 10
REMARK VINA RESULT:    -7.166      2.305      5.978
REMARK INTER + INTRA:         -13.732
REMARK INTER:                 -12.588
REMARK INTRA:                  -1.144
REMARK UNBOUND:                -3.424
REMARK SMILES CC(SC(C)c1nc(N)nc(Nc2ccccc2)n1)C(=O)Nc1ccc2c(c1)CCC2
REMARK SMILES IDX 3 1 2 2 1 3 20 4 22 5 21 6 23 8 24 9 28 10 25 11 27 12 26 13
REMARK SMILES IDX 29 14 31 15 30 16 4 17 5 18 6 19 7 20 19 21 8 22 11 23 10 24
REMARK SMILES IDX 9 25 12 28 13 30 14 31 18 32 15 33 17 34 16 35
REMARK H PARENT 22 7 9 26 9 27 12 29
ROOT
ATOM      1  S   UNL     1       1.690  43.729  51.049  1.00  0.00    -0.138 SA
ENDROOT
BRANCH   1   2
ATOM      2  C   UNL     1       0.100  43.392  51.914  1.00  0.00     0.133 C 
ATOM      3  C   UNL     1      -0.969  43.069  50.878  1.00  0.00     0.030 C 
BRANCH   2   4
ATOM      4  C   UNL     1      -0.283  44.594  52.794  1.00  0.00     0.237 C 
ATOM      5  N   UNL     1      -0.391  44.248  54.136  1.00  0.00    -0.325 N 
ATOM      6  O   UNL     1      -0.528  45.696  52.313  1.00  0.00    -0.273 OA
ATOM      7  H   UNL     1      -0.036  43.334  54.385  1.00  0.00     0.169 HD
BRANCH   5   8
ATOM      8  C   UNL     1      -0.871  45.036  55.201  1.00  0.00     0.041 A 
ATOM      9  C   UNL     1      -2.228  45.320  55.415  1.00  0.00     0.026 A 
ATOM     10  C   UNL     1       0.085  45.523  56.105  1.00  0.00     0.030 A 
ATOM     11  C   UNL     1      -2.644  46.076  56.519  1.00  0.00     0.006 A 
ATOM     12  C   UNL     1      -0.334  46.276  57.190  1.00  0.00    -0.043 A 
ATOM     13  C   UNL     1      -1.687  46.547  57.397  1.00  0.00    -0.045 A 
ATOM     14  C   UNL     1       0.501  46.838  58.298  1.00  0.00     0.036 C 
ATOM     15  C   UNL     1      -1.889  47.317  58.664  1.00  0.00     0.036 C 
ATOM     16  C   UNL     1      -0.472  47.850  58.920  1.00  0.00     0.010 C 
ENDBRANCH   5   8
ENDBRANCH   2   4
ENDBRANCH   1   2
BRANCH   1  17
ATOM     17  C   UNL     1       2.866  43.161  52.348  1.00  0.00     0.113 C 
ATOM     18  C   UNL     1       3.904  42.237  51.714  1.00  0.00     0.028 C 
BRANCH  17  19
ATOM     19  C   UNL     1       3.545  44.322  53.052  1.00  0.00     0.149 A 
ATOM     20  N   UNL     1       3.105  44.642  54.267  1.00  0.00    -0.197 NA
ATOM     21  N   UNL     1       4.506  44.986  52.406  1.00  0.00    -0.196 NA
ATOM     22  C   UNL     1       3.718  45.668  54.832  1.00  0.00     0.225 A 
ATOM     23  C   UNL     1       5.065  45.999  53.062  1.00  0.00     0.232 A 
ATOM     24  N   UNL     1       4.678  46.382  54.272  1.00  0.00    -0.177 NA
BRANCH  22  25
ATOM     25  N   UNL     1       3.291  46.049  56.087  1.00  0.00    -0.368 N 
ATOM     26  H   UNL     1       2.846  45.283  56.567  1.00  0.00     0.159 HD
ATOM     27  H   UNL     1       2.775  46.919  56.036  1.00  0.00     0.159 HD
ENDBRANCH  22  25
BRANCH  23  28
ATOM     28  N   UNL     1       6.068  46.661  52.358  1.00  0.00    -0.324 N 
ATOM     29  H   UNL     1       5.667  47.100  51.541  1.00  0.00     0.170 HD
BRANCH  28  30
ATOM     30  C   UNL     1       7.464  46.696  52.455  1.00  0.00     0.041 A 
ATOM     31  C   UNL     1       8.329  46.219  51.467  1.00  0.00     0.026 A 
ATOM     32  C   UNL     1       8.037  47.192  53.639  1.00  0.00     0.026 A 
ATOM     33  C   UNL     1       9.717  46.260  51.638  1.00  0.00     0.002 A 
ATOM     34  C   UNL     1       9.423  47.234  53.817  1.00  0.00     0.002 A 
ATOM     35  C   UNL     1      10.265  46.770  52.811  1.00  0.00     0.000 A 
ENDBRANCH  28  30
ENDBRANCH  23  28
ENDBRANCH  17  19
ENDBRANCH   1  17
TORSDOF 8
ENDMDL
