MODEL 1
REMARK VINA RESULT:   -10.252      0.000      0.000
REMARK INTER + INTRA:         -14.196
REMARK INTER:                 -13.549
REMARK INTRA:                  -0.647
REMARK UNBOUND:                -0.647
REMARK SMILES Nc1nc(Cn2nnn(-c3ccccc3Cl)c2=O)nc(Nc2ccccc2)n1
REMARK SMILES IDX 5 1 4 2 2 3 3 4 28 5 20 6 19 7 1 8 21 11 22 13 23 14 27 15
REMARK SMILES IDX 24 16 26 17 25 18 6 19 7 20 17 21 8 22 9 23 18 24 10 25
REMARK SMILES IDX 11 26 15 27 12 28 14 29 13 30 16 31
REMARK H PARENT 1 9 1 10 21 12
ROOT
ATOM      1  C   UNL     1       3.122  45.893  55.132  1.00  0.00     0.229 C 
ENDROOT
BRANCH   1   2
ATOM      2  C   UNL     1       2.204  44.981  54.352  1.00  0.00     0.158 A 
ATOM      3  C   UNL     1       0.145  44.293  53.815  1.00  0.00     0.225 A 
ATOM      4  N   UNL     1       0.890  45.130  54.516  1.00  0.00    -0.196 NA
ATOM      5  N   UNL     1       0.605  43.342  53.022  1.00  0.00    -0.177 NA
ATOM      6  C   UNL     1       1.926  43.258  52.914  1.00  0.00     0.232 A 
ATOM      7  N   UNL     1       2.763  44.061  53.565  1.00  0.00    -0.195 NA
BRANCH   3   8
ATOM      8  N   UNL     1      -1.225  44.396  53.956  1.00  0.00    -0.368 N 
ATOM      9  H   UNL     1      -1.553  43.774  54.682  1.00  0.00     0.159 HD
ATOM     10  H   UNL     1      -1.673  44.331  53.053  1.00  0.00     0.159 HD
ENDBRANCH   3   8
BRANCH   6  11
ATOM     11  N   UNL     1       2.546  42.299  52.118  1.00  0.00    -0.324 N 
ATOM     12  H   UNL     1       2.067  41.417  52.230  1.00  0.00     0.170 HD
BRANCH  11  13
ATOM     13  C   UNL     1       3.689  42.295  51.309  1.00  0.00     0.041 A 
ATOM     14  C   UNL     1       4.650  43.309  51.309  1.00  0.00     0.026 A 
ATOM     15  C   UNL     1       3.869  41.227  50.413  1.00  0.00     0.026 A 
ATOM     16  C   UNL     1       5.761  43.255  50.458  1.00  0.00     0.002 A 
ATOM     17  C   UNL     1       4.977  41.169  49.560  1.00  0.00     0.002 A 
ATOM     18  C   UNL     1       5.925  42.185  49.585  1.00  0.00     0.000 A 
ENDBRANCH  11  13
ENDBRANCH   6  11
ENDBRANCH   1   2
BRANCH   1  19
ATOM     19  N   UNL     1       4.237  46.355  54.343  1.00  0.00    -0.185 N 
ATOM     20  N   UNL     1       4.298  47.621  53.836  1.00  0.00    -0.043 NA
ATOM     21  C   UNL     1       5.498  45.779  54.327  1.00  0.00     0.368 C 
ATOM     22  N   UNL     1       5.477  47.843  53.427  1.00  0.00    -0.039 NA
ATOM     23  N   UNL     1       6.255  46.730  53.647  1.00  0.00    -0.159 N 
ATOM     24  O   UNL     1       5.817  44.730  54.860  1.00  0.00    -0.244 OA
BRANCH  23  25
ATOM     25  C   UNL     1       7.636  46.767  53.359  1.00  0.00     0.091 A 
ATOM     26  C   UNL     1       8.513  47.208  54.372  1.00  0.00     0.030 A 
ATOM     27  C   UNL     1       8.199  46.403  52.123  1.00  0.00     0.067 A 
ATOM     28  C   UNL     1       9.898  47.223  54.187  1.00  0.00     0.002 A 
ATOM     29  C   UNL     1       9.593  46.415  51.944  1.00  0.00     0.023 A 
ATOM     30  C   UNL     1      10.440  46.813  52.976  1.00  0.00     0.002 A 
ATOM     31  Cl  UNL     1       7.274  46.108  50.691  1.00  0.00    -0.082 Cl
ENDBRANCH  23  25
ENDBRANCH   1  19
TORSDOF 6
ENDMDL
MODEL 2
REMARK VINA RESULT:    -9.948      1.131      1.457
REMARK INTER + INTRA:         -13.794
REMARK INTER:                 -13.246
REMARK INTRA:                  -0.549
REMARK UNBOUND:                -0.647
REMARK SMILES Nc1nc(Cn2nnn(-c3ccccc3Cl)c2=O)nc(Nc2ccccc2)n1
REMARK SMILES IDX 5 1 4 2 2 3 3 4 28 5 20 6 19 7 1 8 21 11 22 13 23 14 27 15
REMARK SMILES IDX 24 16 26 17 25 18 6 19 7 20 17 21 8 22 9 23 18 24 10 25
REMARK SMILES IDX 11 26 15 27 12 28 14 29 13 30 16 31
REMARK H PARENT 1 9 1 10 21 12
ROOT
ATOM      1  C   UNL     1       3.471  46.093  55.331  1.00  0.00     0.229 C 
ENDROOT
BRANCH   1   2
ATOM      2  C   UNL     1       2.494  45.127  54.704  1.00  0.00     0.158 A 
ATOM      3  C   UNL     1       0.458  44.204  54.616  1.00  0.00     0.225 A 
ATOM      4  N   UNL     1       1.259  45.079  55.202  1.00  0.00    -0.196 NA
ATOM      5  N   UNL     1       0.803  43.392  53.633  1.00  0.00    -0.177 NA
ATOM      6  C   UNL     1       2.051  43.502  53.194  1.00  0.00     0.232 A 
ATOM      7  N   UNL     1       2.932  44.359  53.705  1.00  0.00    -0.195 NA
BRANCH   3   8
ATOM      8  N   UNL     1      -0.831  44.104  55.101  1.00  0.00    -0.368 N 
ATOM      9  H   UNL     1      -0.852  44.300  56.092  1.00  0.00     0.159 HD
ATOM     10  H   UNL     1      -1.253  43.240  54.791  1.00  0.00     0.159 HD
ENDBRANCH   3   8
BRANCH   6  11
ATOM     11  N   UNL     1       2.551  42.705  52.168  1.00  0.00    -0.324 N 
ATOM     12  H   UNL     1       1.900  41.953  51.987  1.00  0.00     0.170 HD
BRANCH  11  13
ATOM     13  C   UNL     1       3.746  42.689  51.440  1.00  0.00     0.041 A 
ATOM     14  C   UNL     1       4.528  43.821  51.196  1.00  0.00     0.026 A 
ATOM     15  C   UNL     1       4.175  41.470  50.886  1.00  0.00     0.026 A 
ATOM     16  C   UNL     1       5.704  43.742  50.440  1.00  0.00     0.002 A 
ATOM     17  C   UNL     1       5.349  41.385  50.130  1.00  0.00     0.002 A 
ATOM     18  C   UNL     1       6.115  42.524  49.908  1.00  0.00     0.000 A 
ENDBRANCH  11  13
ENDBRANCH   6  11
ENDBRANCH   1   2
BRANCH   1  19
ATOM     19  N   UNL     1       4.507  46.499  54.415  1.00  0.00    -0.185 N 
ATOM     20  N   UNL     1       4.648  47.791  53.998  1.00  0.00    -0.043 NA
ATOM     21  C   UNL     1       5.672  45.791  54.160  1.00  0.00     0.368 C 
ATOM     22  N   UNL     1       5.773  47.917  53.427  1.00  0.00    -0.039 NA
ATOM     23  N   UNL     1       6.433  46.710  53.442  1.00  0.00    -0.159 N 
ATOM     24  O   UNL     1       5.934  44.669  54.559  1.00  0.00    -0.244 OA
BRANCH  23  25
ATOM     25  C   UNL     1       7.751  46.621  52.946  1.00  0.00     0.091 A 
ATOM     26  C   UNL     1       7.965  45.884  51.763  1.00  0.00     0.030 A 
ATOM     27  C   UNL     1       8.871  47.212  53.559  1.00  0.00     0.067 A 
ATOM     28  C   UNL     1       9.231  45.793  51.176  1.00  0.00     0.002 A 
ATOM     29  C   UNL     1      10.139  47.121  52.961  1.00  0.00     0.023 A 
ATOM     30  C   UNL     1      10.317  46.423  51.768  1.00  0.00     0.002 A 
ATOM     31  Cl  UNL     1       8.848  47.909  55.142  1.00  0.00    -0.082 Cl
ENDBRANCH  23  25
ENDBRANCH   1  19
TORSDOF 6
ENDMDL
MODEL 3
REMARK VINA RESULT:    -9.545      2.413      6.360
REMARK INTER + INTRA:         -13.261
REMARK INTER:                 -12.310
REMARK INTRA:                  -0.951
REMARK UNBOUND:                -0.647
REMARK SMILES Nc1nc(Cn2nnn(-c3ccccc3Cl)c2=O)nc(Nc2ccccc2)n1
REMARK SMILES IDX 5 1 4 2 2 3 3 4 28 5 20 6 19 7 1 8 21 11 22 13 23 14 27 15
REMARK SMILES IDX 24 16 26 17 25 18 6 19 7 20 17 21 8 22 9 23 18 24 10 25
REMARK SMILES IDX 11 26 15 27 12 28 14 29 13 30 16 31
REMARK H PARENT 1 9 1 10 21 12
ROOT
ATOM      1  C   UNL     1       4.912  47.549  54.263  1.00  0.00     0.229 C 
ENDROOT
BRANCH   1   2
ATOM      2  C   UNL     1       6.055  47.087  53.390  1.00  0.00     0.158 A 
ATOM      3  C   UNL     1       8.230  47.096  52.870  1.00  0.00     0.225 A 
ATOM      4  N   UNL     1       7.278  47.527  53.681  1.00  0.00    -0.196 NA
ATOM      5  N   UNL     1       8.043  46.316  51.821  1.00  0.00    -0.177 NA
ATOM      6  C   UNL     1       6.795  45.922  51.599  1.00  0.00     0.232 A 
ATOM      7  N   UNL     1       5.768  46.287  52.361  1.00  0.00    -0.195 NA
BRANCH   3   8
ATOM      8  N   UNL     1       9.517  47.531  53.119  1.00  0.00    -0.368 N 
ATOM      9  H   UNL     1       9.590  47.903  54.056  1.00  0.00     0.159 HD
ATOM     10  H   UNL     1       9.837  48.118  52.361  1.00  0.00     0.159 HD
ENDBRANCH   3   8
BRANCH   6  11
ATOM     11  N   UNL     1       6.454  45.104  50.525  1.00  0.00    -0.324 N 
ATOM     12  H   UNL     1       6.637  45.598  49.662  1.00  0.00     0.170 HD
BRANCH  11  13
ATOM     13  C   UNL     1       5.862  43.840  50.412  1.00  0.00     0.041 A 
ATOM     14  C   UNL     1       4.704  43.457  51.094  1.00  0.00     0.026 A 
ATOM     15  C   UNL     1       6.483  42.882  49.592  1.00  0.00     0.026 A 
ATOM     16  C   UNL     1       4.173  42.168  50.954  1.00  0.00     0.002 A 
ATOM     17  C   UNL     1       5.957  41.594  49.449  1.00  0.00     0.002 A 
ATOM     18  C   UNL     1       4.799  41.238  50.131  1.00  0.00     0.000 A 
ENDBRANCH  11  13
ENDBRANCH   6  11
ENDBRANCH   1   2
BRANCH   1  19
ATOM     19  N   UNL     1       3.636  47.058  53.804  1.00  0.00    -0.185 N 
ATOM     20  N   UNL     1       2.995  47.591  52.724  1.00  0.00    -0.043 NA
ATOM     21  C   UNL     1       3.104  45.813  54.102  1.00  0.00     0.368 C 
ATOM     22  N   UNL     1       2.052  46.815  52.383  1.00  0.00    -0.039 NA
ATOM     23  N   UNL     1       2.027  45.727  53.224  1.00  0.00    -0.159 N 
ATOM     24  O   UNL     1       3.560  45.006  54.895  1.00  0.00    -0.244 OA
BRANCH  23  25
ATOM     25  C   UNL     1       1.119  44.673  52.986  1.00  0.00     0.091 A 
ATOM     26  C   UNL     1       1.060  44.130  51.686  1.00  0.00     0.030 A 
ATOM     27  C   UNL     1       0.258  44.132  53.959  1.00  0.00     0.067 A 
ATOM     28  C   UNL     1       0.228  43.049  51.381  1.00  0.00     0.002 A 
ATOM     29  C   UNL     1      -0.572  43.042  53.647  1.00  0.00     0.023 A 
ATOM     30  C   UNL     1      -0.579  42.496  52.366  1.00  0.00     0.002 A 
ATOM     31  Cl  UNL     1      -0.008  44.843  55.514  1.00  0.00    -0.082 Cl
ENDBRANCH  23  25
ENDBRANCH   1  19
TORSDOF 6
ENDMDL
MODEL 4
REMARK VINA RESULT:    -9.526      2.371      6.515
REMARK INTER + INTRA:         -13.236
REMARK INTER:                 -12.303
REMARK INTRA:                  -0.933
REMARK UNBOUND:                -0.647
REMARK SMILES Nc1nc(Cn2nnn(-c3ccccc3Cl)c2=O)nc(Nc2ccccc2)n1
REMARK SMILES IDX 5 1 4 2 2 3 3 4 28 5 20 6 19 7 1 8 21 11 22 13 23 14 27 15
REMARK SMILES IDX 24 16 26 17 25 18 6 19 7 20 17 21 8 22 9 23 18 24 10 25
REMARK SMILES IDX 11 26 15 27 12 28 14 29 13 30 16 31
REMARK H PARENT 1 9 1 10 21 12
ROOT
ATOM      1  C   UNL     1       4.739  47.680  53.534  1.00  0.00     0.229 C 
ENDROOT
BRANCH   1   2
ATOM      2  C   UNL     1       6.007  47.136  52.921  1.00  0.00     0.158 A 
ATOM      3  C   UNL     1       8.239  47.102  52.780  1.00  0.00     0.225 A 
ATOM      4  N   UNL     1       7.169  47.611  53.367  1.00  0.00    -0.196 NA
ATOM      5  N   UNL     1       8.223  46.215  51.801  1.00  0.00    -0.177 NA
ATOM      6  C   UNL     1       7.026  45.793  51.413  1.00  0.00     0.232 A 
ATOM      7  N   UNL     1       5.890  46.230  51.948  1.00  0.00    -0.195 NA
BRANCH   3   8
ATOM      8  N   UNL     1       9.470  47.568  53.197  1.00  0.00    -0.368 N 
ATOM      9  H   UNL     1       9.973  47.981  52.423  1.00  0.00     0.159 HD
ATOM     10  H   UNL     1       9.948  46.857  53.733  1.00  0.00     0.159 HD
ENDBRANCH   3   8
BRANCH   6  11
ATOM     11  N   UNL     1       6.862  44.864  50.389  1.00  0.00    -0.324 N 
ATOM     12  H   UNL     1       7.355  45.188  49.568  1.00  0.00     0.170 HD
BRANCH  11  13
ATOM     13  C   UNL     1       6.122  43.684  50.252  1.00  0.00     0.041 A 
ATOM     14  C   UNL     1       5.031  43.348  51.060  1.00  0.00     0.026 A 
ATOM     15  C   UNL     1       6.513  42.760  49.269  1.00  0.00     0.026 A 
ATOM     16  C   UNL     1       4.345  42.140  50.885  1.00  0.00     0.002 A 
ATOM     17  C   UNL     1       5.831  41.551  49.091  1.00  0.00     0.002 A 
ATOM     18  C   UNL     1       4.744  41.243  49.900  1.00  0.00     0.000 A 
ENDBRANCH  11  13
ENDBRANCH   6  11
ENDBRANCH   1   2
BRANCH   1  19
ATOM     19  N   UNL     1       3.910  46.642  54.095  1.00  0.00    -0.185 N 
ATOM     20  N   UNL     1       4.133  46.121  55.337  1.00  0.00    -0.043 NA
ATOM     21  C   UNL     1       2.626  46.329  53.675  1.00  0.00     0.368 C 
ATOM     22  N   UNL     1       3.122  45.438  55.682  1.00  0.00    -0.039 NA
ATOM     23  N   UNL     1       2.179  45.477  54.682  1.00  0.00    -0.159 N 
ATOM     24  O   UNL     1       2.059  46.780  52.695  1.00  0.00    -0.244 OA
BRANCH  23  25
ATOM     25  C   UNL     1       0.922  44.865  54.874  1.00  0.00     0.091 A 
ATOM     26  C   UNL     1       0.147  45.275  55.979  1.00  0.00     0.030 A 
ATOM     27  C   UNL     1       0.391  43.864  54.041  1.00  0.00     0.067 A 
ATOM     28  C   UNL     1      -1.131  44.759  56.209  1.00  0.00     0.002 A 
ATOM     29  C   UNL     1      -0.897  43.353  54.275  1.00  0.00     0.023 A 
ATOM     30  C   UNL     1      -1.659  43.806  55.348  1.00  0.00     0.002 A 
ATOM     31  Cl  UNL     1       1.300  43.046  52.816  1.00  0.00    -0.082 Cl
ENDBRANCH  23  25
ENDBRANCH   1  19
TORSDOF 6
ENDMDL
MODEL 5
REMARK VINA RESULT:    -9.267      2.258      6.588
REMARK INTER + INTRA:         -12.893
REMARK INTER:                 -11.931
REMARK INTRA:                  -0.962
REMARK UNBOUND:                -0.647
REMARK SMILES Nc1nc(Cn2nnn(-c3ccccc3Cl)c2=O)nc(Nc2ccccc2)n1
REMARK SMILES IDX 5 1 4 2 2 3 3 4 28 5 20 6 19 7 1 8 21 11 22 13 23 14 27 15
REMARK SMILES IDX 24 16 26 17 25 18 6 19 7 20 17 21 8 22 9 23 18 24 10 25
REMARK SMILES IDX 11 26 15 27 12 28 14 29 13 30 16 31
REMARK H PARENT 1 9 1 10 21 12
ROOT
ATOM      1  C   UNL     1       5.484  47.565  54.678  1.00  0.00     0.229 C 
ENDROOT
BRANCH   1   2
ATOM      2  C   UNL     1       6.815  47.224  54.051  1.00  0.00     0.158 A 
ATOM      3  C   UNL     1       9.045  47.104  54.169  1.00  0.00     0.225 A 
ATOM      4  N   UNL     1       7.914  47.411  54.781  1.00  0.00    -0.196 NA
ATOM      5  N   UNL     1       9.147  46.673  52.925  1.00  0.00    -0.177 NA
ATOM      6  C   UNL     1       8.007  46.515  52.265  1.00  0.00     0.232 A 
ATOM      7  N   UNL     1       6.815  46.781  52.793  1.00  0.00    -0.195 NA
BRANCH   3   8
ATOM      8  N   UNL     1      10.216  47.290  54.877  1.00  0.00    -0.368 N 
ATOM      9  H   UNL     1      10.846  47.894  54.367  1.00  0.00     0.159 HD
ATOM     10  H   UNL     1      10.580  46.400  55.188  1.00  0.00     0.159 HD
ENDBRANCH   3   8
BRANCH   6  11
ATOM     11  N   UNL     1       7.967  46.074  50.945  1.00  0.00    -0.324 N 
ATOM     12  H   UNL     1       8.328  46.801  50.343  1.00  0.00     0.170 HD
BRANCH  11  13
ATOM     13  C   UNL     1       7.475  44.925  50.315  1.00  0.00     0.041 A 
ATOM     14  C   UNL     1       8.162  44.224  49.320  1.00  0.00     0.026 A 
ATOM     15  C   UNL     1       6.198  44.461  50.675  1.00  0.00     0.026 A 
ATOM     16  C   UNL     1       7.604  43.091  48.714  1.00  0.00     0.002 A 
ATOM     17  C   UNL     1       5.636  43.331  50.072  1.00  0.00     0.002 A 
ATOM     18  C   UNL     1       6.342  42.645  49.090  1.00  0.00     0.000 A 
ENDBRANCH  11  13
ENDBRANCH   6  11
ENDBRANCH   1   2
BRANCH   1  19
ATOM     19  N   UNL     1       4.488  46.550  54.440  1.00  0.00    -0.185 N 
ATOM     20  N   UNL     1       4.315  45.486  55.278  1.00  0.00    -0.043 NA
ATOM     21  C   UNL     1       3.373  46.697  53.629  1.00  0.00     0.368 C 
ATOM     22  N   UNL     1       3.223  44.911  54.991  1.00  0.00    -0.039 NA
ATOM     23  N   UNL     1       2.617  45.572  53.947  1.00  0.00    -0.159 N 
ATOM     24  O   UNL     1       3.137  47.642  52.895  1.00  0.00    -0.244 OA
BRANCH  23  25
ATOM     25  C   UNL     1       1.337  45.173  53.508  1.00  0.00     0.091 A 
ATOM     26  C   UNL     1       0.338  44.964  54.482  1.00  0.00     0.030 A 
ATOM     27  C   UNL     1       0.990  44.960  52.162  1.00  0.00     0.067 A 
ATOM     28  C   UNL     1      -0.970  44.621  54.127  1.00  0.00     0.002 A 
ATOM     29  C   UNL     1      -0.327  44.621  51.812  1.00  0.00     0.023 A 
ATOM     30  C   UNL     1      -1.306  44.463  52.790  1.00  0.00     0.002 A 
ATOM     31  Cl  UNL     1       2.138  44.897  50.869  1.00  0.00    -0.082 Cl
ENDBRANCH  23  25
ENDBRANCH   1  19
TORSDOF 6
ENDMDL
MODEL 6
REMARK VINA RESULT:    -9.208      2.442      4.574
REMARK INTER + INTRA:         -12.815
REMARK INTER:                 -11.627
REMARK INTRA:                  -1.188
REMARK UNBOUND:                -0.647
REMARK SMILES Nc1nc(Cn2nnn(-c3ccccc3Cl)c2=O)nc(Nc2ccccc2)n1
REMARK SMILES IDX 5 1 4 2 2 3 3 4 28 5 20 6 19 7 1 8 21 11 22 13 23 14 27 15
REMARK SMILES IDX 24 16 26 17 25 18 6 19 7 20 17 21 8 22 9 23 18 24 10 25
REMARK SMILES IDX 11 26 15 27 12 28 14 29 13 30 16 31
REMARK H PARENT 1 9 1 10 21 12
ROOT
ATOM      1  C   UNL     1       0.738  43.192  52.986  1.00  0.00     0.229 C 
ENDROOT
BRANCH   1   2
ATOM      2  C   UNL     1       0.772  44.018  54.250  1.00  0.00     0.158 A 
ATOM      3  C   UNL     1      -0.265  44.899  56.026  1.00  0.00     0.225 A 
ATOM      4  N   UNL     1      -0.362  44.154  54.937  1.00  0.00    -0.196 NA
ATOM      5  N   UNL     1       0.830  45.513  56.436  1.00  0.00    -0.177 NA
ATOM      6  C   UNL     1       1.916  45.328  55.696  1.00  0.00     0.232 A 
ATOM      7  N   UNL     1       1.929  44.587  54.591  1.00  0.00    -0.195 NA
BRANCH   3   8
ATOM      8  N   UNL     1      -1.414  45.083  56.769  1.00  0.00    -0.368 N 
ATOM      9  H   UNL     1      -1.207  45.582  57.623  1.00  0.00     0.159 HD
ATOM     10  H   UNL     1      -1.917  44.210  56.853  1.00  0.00     0.159 HD
ENDBRANCH   3   8
BRANCH   6  11
ATOM     11  N   UNL     1       3.137  45.920  56.008  1.00  0.00    -0.324 N 
ATOM     12  H   UNL     1       3.063  46.377  56.907  1.00  0.00     0.170 HD
BRANCH  11  13
ATOM     13  C   UNL     1       4.349  46.074  55.325  1.00  0.00     0.041 A 
ATOM     14  C   UNL     1       4.699  47.218  54.602  1.00  0.00     0.026 A 
ATOM     15  C   UNL     1       5.260  45.004  55.331  1.00  0.00     0.026 A 
ATOM     16  C   UNL     1       5.920  47.300  53.921  1.00  0.00     0.002 A 
ATOM     17  C   UNL     1       6.481  45.081  54.652  1.00  0.00     0.002 A 
ATOM     18  C   UNL     1       6.811  46.232  53.947  1.00  0.00     0.000 A 
ENDBRANCH  11  13
ENDBRANCH   6  11
ENDBRANCH   1   2
BRANCH   1  19
ATOM     19  N   UNL     1       1.728  43.613  52.027  1.00  0.00    -0.185 N 
ATOM     20  N   UNL     1       1.629  44.791  51.345  1.00  0.00    -0.043 NA
ATOM     21  C   UNL     1       3.028  43.135  51.957  1.00  0.00     0.368 C 
ATOM     22  N   UNL     1       2.740  45.036  50.786  1.00  0.00    -0.039 NA
ATOM     23  N   UNL     1       3.631  44.028  51.075  1.00  0.00    -0.159 N 
ATOM     24  O   UNL     1       3.487  42.202  52.594  1.00  0.00    -0.244 OA
BRANCH  23  25
ATOM     25  C   UNL     1       4.969  44.124  50.639  1.00  0.00     0.091 A 
ATOM     26  C   UNL     1       5.618  45.370  50.760  1.00  0.00     0.030 A 
ATOM     27  C   UNL     1       5.700  43.059  50.081  1.00  0.00     0.067 A 
ATOM     28  C   UNL     1       6.959  45.535  50.403  1.00  0.00     0.002 A 
ATOM     29  C   UNL     1       7.050  43.231  49.730  1.00  0.00     0.023 A 
ATOM     30  C   UNL     1       7.680  44.461  49.900  1.00  0.00     0.002 A 
ATOM     31  Cl  UNL     1       4.997  41.553  49.603  1.00  0.00    -0.082 Cl
ENDBRANCH  23  25
ENDBRANCH   1  19
TORSDOF 6
ENDMDL
MODEL 7
REMARK VINA RESULT:    -9.151      2.321      5.271
REMARK INTER + INTRA:         -12.741
REMARK INTER:                 -11.900
REMARK INTRA:                  -0.841
REMARK UNBOUND:                -0.647
REMARK SMILES Nc1nc(Cn2nnn(-c3ccccc3Cl)c2=O)nc(Nc2ccccc2)n1
REMARK SMILES IDX 5 1 4 2 2 3 3 4 28 5 20 6 19 7 1 8 21 11 22 13 23 14 27 15
REMARK SMILES IDX 24 16 26 17 25 18 6 19 7 20 17 21 8 22 9 23 18 24 10 25
REMARK SMILES IDX 11 26 15 27 12 28 14 29 13 30 16 31
REMARK H PARENT 1 9 1 10 21 12
ROOT
ATOM      1  C   UNL     1       3.291  46.053  55.605  1.00  0.00     0.229 C 
ENDROOT
BRANCH   1   2
ATOM      2  C   UNL     1       2.200  45.203  54.998  1.00  0.00     0.158 A 
ATOM      3  C   UNL     1       1.560  43.496  53.702  1.00  0.00     0.225 A 
ATOM      4  N   UNL     1       2.563  44.192  54.210  1.00  0.00    -0.196 NA
ATOM      5  N   UNL     1       0.278  43.751  53.896  1.00  0.00    -0.177 NA
ATOM      6  C   UNL     1      -0.000  44.776  54.693  1.00  0.00     0.232 A 
ATOM      7  N   UNL     1       0.934  45.530  55.264  1.00  0.00    -0.195 NA
BRANCH   3   8
ATOM      8  N   UNL     1       1.880  42.443  52.868  1.00  0.00    -0.368 N 
ATOM      9  H   UNL     1       2.852  42.488  52.598  1.00  0.00     0.159 HD
ATOM     10  H   UNL     1       1.196  42.367  52.127  1.00  0.00     0.159 HD
ENDBRANCH   3   8
BRANCH   6  11
ATOM     11  N   UNL     1      -1.307  45.161  54.978  1.00  0.00    -0.324 N 
ATOM     12  H   UNL     1      -1.670  45.700  54.204  1.00  0.00     0.170 HD
BRANCH  11  13
ATOM     13  C   UNL     1      -2.139  45.030  56.096  1.00  0.00     0.041 A 
ATOM     14  C   UNL     1      -2.670  46.111  56.806  1.00  0.00     0.026 A 
ATOM     15  C   UNL     1      -2.436  43.738  56.561  1.00  0.00     0.026 A 
ATOM     16  C   UNL     1      -3.480  45.913  57.931  1.00  0.00     0.002 A 
ATOM     17  C   UNL     1      -3.244  43.534  57.685  1.00  0.00     0.002 A 
ATOM     18  C   UNL     1      -3.767  44.624  58.370  1.00  0.00     0.000 A 
ENDBRANCH  11  13
ENDBRANCH   6  11
ENDBRANCH   1   2
BRANCH   1  19
ATOM     19  N   UNL     1       4.296  46.427  54.642  1.00  0.00    -0.185 N 
ATOM     20  N   UNL     1       4.300  47.646  54.027  1.00  0.00    -0.043 NA
ATOM     21  C   UNL     1       5.539  45.828  54.509  1.00  0.00     0.368 C 
ATOM     22  N   UNL     1       5.417  47.810  53.450  1.00  0.00    -0.039 NA
ATOM     23  N   UNL     1       6.208  46.704  53.660  1.00  0.00    -0.159 N 
ATOM     24  O   UNL     1       5.917  44.819  55.082  1.00  0.00    -0.244 OA
BRANCH  23  25
ATOM     25  C   UNL     1       7.539  46.692  53.191  1.00  0.00     0.091 A 
ATOM     26  C   UNL     1       8.539  47.242  54.021  1.00  0.00     0.030 A 
ATOM     27  C   UNL     1       7.937  46.175  51.945  1.00  0.00     0.067 A 
ATOM     28  C   UNL     1       9.888  47.219  53.655  1.00  0.00     0.002 A 
ATOM     29  C   UNL     1       9.296  46.150  51.586  1.00  0.00     0.023 A 
ATOM     30  C   UNL     1      10.268  46.660  52.443  1.00  0.00     0.002 A 
ATOM     31  Cl  UNL     1       6.834  45.719  50.693  1.00  0.00    -0.082 Cl
ENDBRANCH  23  25
ENDBRANCH   1  19
TORSDOF 6
ENDMDL
MODEL 8
REMARK VINA RESULT:    -9.082      2.784      5.455
REMARK INTER + INTRA:         -12.650
REMARK INTER:                 -11.836
REMARK INTRA:                  -0.813
REMARK UNBOUND:                -0.647
REMARK SMILES Nc1nc(Cn2nnn(-c3ccccc3Cl)c2=O)nc(Nc2ccccc2)n1
REMARK SMILES IDX 5 1 4 2 2 3 3 4 28 5 20 6 19 7 1 8 21 11 22 13 23 14 27 15
REMARK SMILES IDX 24 16 26 17 25 18 6 19 7 20 17 21 8 22 9 23 18 24 10 25
REMARK SMILES IDX 11 26 15 27 12 28 14 29 13 30 16 31
REMARK H PARENT 1 9 1 10 21 12
ROOT
ATOM      1  C   UNL     1       2.609  46.329  52.618  1.00  0.00     0.229 C 
ENDROOT
BRANCH   1   2
ATOM      2  C   UNL     1       1.651  45.533  53.472  1.00  0.00     0.158 A 
ATOM      3  C   UNL     1      -0.014  44.051  53.661  1.00  0.00     0.225 A 
ATOM      4  N   UNL     1       0.805  44.708  52.856  1.00  0.00    -0.196 NA
ATOM      5  N   UNL     1      -0.061  44.181  54.974  1.00  0.00    -0.177 NA
ATOM      6  C   UNL     1       0.815  45.023  55.511  1.00  0.00     0.232 A 
ATOM      7  N   UNL     1       1.689  45.721  54.792  1.00  0.00    -0.195 NA
BRANCH   3   8
ATOM      8  N   UNL     1      -0.921  43.191  53.073  1.00  0.00    -0.368 N 
ATOM      9  H   UNL     1      -0.554  42.250  53.052  1.00  0.00     0.159 HD
ATOM     10  H   UNL     1      -1.253  43.579  52.201  1.00  0.00     0.159 HD
ENDBRANCH   3   8
BRANCH   6  11
ATOM     11  N   UNL     1       0.872  45.261  56.881  1.00  0.00    -0.324 N 
ATOM     12  H   UNL     1       1.307  44.469  57.336  1.00  0.00     0.170 HD
BRANCH  11  13
ATOM     13  C   UNL     1       0.397  46.280  57.714  1.00  0.00     0.041 A 
ATOM     14  C   UNL     1       1.118  46.812  58.787  1.00  0.00     0.026 A 
ATOM     15  C   UNL     1      -0.897  46.780  57.487  1.00  0.00     0.026 A 
ATOM     16  C   UNL     1       0.576  47.818  59.598  1.00  0.00     0.002 A 
ATOM     17  C   UNL     1      -1.443  47.784  58.294  1.00  0.00     0.002 A 
ATOM     18  C   UNL     1      -0.704  48.304  59.350  1.00  0.00     0.000 A 
ENDBRANCH  11  13
ENDBRANCH   6  11
ENDBRANCH   1   2
BRANCH   1  19
ATOM     19  N   UNL     1       3.986  45.987  52.872  1.00  0.00    -0.185 N 
ATOM     20  N   UNL     1       4.510  44.771  52.537  1.00  0.00    -0.043 NA
ATOM     21  C   UNL     1       5.010  46.896  53.092  1.00  0.00     0.368 C 
ATOM     22  N   UNL     1       5.773  44.832  52.619  1.00  0.00    -0.039 NA
ATOM     23  N   UNL     1       6.147  46.097  53.010  1.00  0.00    -0.159 N 
ATOM     24  O   UNL     1       4.883  48.099  53.241  1.00  0.00    -0.244 OA
BRANCH  23  25
ATOM     25  C   UNL     1       7.514  46.438  53.080  1.00  0.00     0.091 A 
ATOM     26  C   UNL     1       7.998  46.991  54.284  1.00  0.00     0.030 A 
ATOM     27  C   UNL     1       8.429  46.272  52.024  1.00  0.00     0.067 A 
ATOM     28  C   UNL     1       9.350  47.305  54.454  1.00  0.00     0.002 A 
ATOM     29  C   UNL     1       9.787  46.584  52.204  1.00  0.00     0.023 A 
ATOM     30  C   UNL     1      10.248  47.088  53.417  1.00  0.00     0.002 A 
ATOM     31  Cl  UNL     1       7.969  45.875  50.404  1.00  0.00    -0.082 Cl
ENDBRANCH  23  25
ENDBRANCH   1  19
TORSDOF 6
ENDMDL
MODEL 9
REMARK VINA RESULT:    -9.065      4.470      8.682
REMARK INTER + INTRA:         -12.627
REMARK INTER:                 -11.745
REMARK INTRA:                  -0.882
REMARK UNBOUND:                -0.647
REMARK SMILES Nc1nc(Cn2nnn(-c3ccccc3Cl)c2=O)nc(Nc2ccccc2)n1
REMARK SMILES IDX 5 1 4 2 2 3 3 4 28 5 20 6 19 7 1 8 21 11 22 13 23 14 27 15
REMARK SMILES IDX 24 16 26 17 25 18 6 19 7 20 17 21 8 22 9 23 18 24 10 25
REMARK SMILES IDX 11 26 15 27 12 28 14 29 13 30 16 31
REMARK H PARENT 1 9 1 10 21 12
ROOT
ATOM      1  C   UNL     1       5.886  41.271  49.314  1.00  0.00     0.229 C 
ENDROOT
BRANCH   1   2
ATOM      2  C   UNL     1       5.346  42.252  50.328  1.00  0.00     0.158 A 
ATOM      3  C   UNL     1       3.875  42.784  51.926  1.00  0.00     0.225 A 
ATOM      4  N   UNL     1       4.305  41.874  51.068  1.00  0.00    -0.196 NA
ATOM      5  N   UNL     1       4.374  43.999  52.065  1.00  0.00    -0.177 NA
ATOM      6  C   UNL     1       5.410  44.298  51.290  1.00  0.00     0.232 A 
ATOM      7  N   UNL     1       5.927  43.451  50.405  1.00  0.00    -0.195 NA
BRANCH   3   8
ATOM      8  N   UNL     1       2.789  42.448  52.710  1.00  0.00    -0.368 N 
ATOM      9  H   UNL     1       2.241  43.270  52.926  1.00  0.00     0.159 HD
ATOM     10  H   UNL     1       3.085  41.872  53.486  1.00  0.00     0.159 HD
ENDBRANCH   3   8
BRANCH   6  11
ATOM     11  N   UNL     1       6.030  45.544  51.328  1.00  0.00    -0.324 N 
ATOM     12  H   UNL     1       5.515  46.187  50.742  1.00  0.00     0.170 HD
BRANCH  11  13
ATOM     13  C   UNL     1       7.205  46.031  51.912  1.00  0.00     0.041 A 
ATOM     14  C   UNL     1       8.410  46.193  51.224  1.00  0.00     0.026 A 
ATOM     15  C   UNL     1       7.189  46.345  53.282  1.00  0.00     0.026 A 
ATOM     16  C   UNL     1       9.558  46.665  51.873  1.00  0.00     0.002 A 
ATOM     17  C   UNL     1       8.333  46.817  53.935  1.00  0.00     0.002 A 
ATOM     18  C   UNL     1       9.519  46.978  53.228  1.00  0.00     0.000 A 
ENDBRANCH  11  13
ENDBRANCH   6  11
ENDBRANCH   1   2
BRANCH   1  19
ATOM     19  N   UNL     1       5.180  41.333  48.059  1.00  0.00    -0.185 N 
ATOM     20  N   UNL     1       5.756  41.822  46.921  1.00  0.00    -0.043 NA
ATOM     21  C   UNL     1       4.054  40.593  47.737  1.00  0.00     0.368 C 
ATOM     22  N   UNL     1       5.027  41.517  45.930  1.00  0.00    -0.039 NA
ATOM     23  N   UNL     1       3.933  40.807  46.366  1.00  0.00    -0.159 N 
ATOM     24  O   UNL     1       3.414  39.888  48.499  1.00  0.00    -0.244 OA
BRANCH  23  25
ATOM     25  C   UNL     1       3.021  40.273  45.432  1.00  0.00     0.091 A 
ATOM     26  C   UNL     1       3.130  38.905  45.105  1.00  0.00     0.030 A 
ATOM     27  C   UNL     1       2.012  41.017  44.793  1.00  0.00     0.067 A 
ATOM     28  C   UNL     1       2.231  38.287  44.231  1.00  0.00     0.002 A 
ATOM     29  C   UNL     1       1.109  40.389  43.919  1.00  0.00     0.023 A 
ATOM     30  C   UNL     1       1.212  39.027  43.648  1.00  0.00     0.002 A 
ATOM     31  Cl  UNL     1       1.902  42.743  44.853  1.00  0.00    -0.082 Cl
ENDBRANCH  23  25
ENDBRANCH   1  19
TORSDOF 6
ENDMDL
MODEL 10
REMARK VINA RESULT:    -8.848      3.077      7.203
REMARK INTER + INTRA:         -12.340
REMARK INTER:                 -11.779
REMARK INTRA:                  -0.562
REMARK UNBOUND:                -0.647
REMARK SMILES Nc1nc(Cn2nnn(-c3ccccc3Cl)c2=O)nc(Nc2ccccc2)n1
REMARK SMILES IDX 5 1 4 2 2 3 3 4 28 5 20 6 19 7 1 8 21 11 22 13 23 14 27 15
REMARK SMILES IDX 24 16 26 17 25 18 6 19 7 20 17 21 8 22 9 23 18 24 10 25
REMARK SMILES IDX 11 26 15 27 12 28 14 29 13 30 16 31
REMARK H PARENT 1 9 1 10 21 12
ROOT
ATOM      1  C   UNL     1       2.687  42.856  51.145  1.00  0.00     0.229 C 
ENDROOT
BRANCH   1   2
ATOM      2  C   UNL     1       4.158  43.033  50.854  1.00  0.00     0.158 A 
ATOM      3  C   UNL     1       6.128  42.192  50.211  1.00  0.00     0.225 A 
ATOM      4  N   UNL     1       4.844  41.970  50.436  1.00  0.00    -0.196 NA
ATOM      5  N   UNL     1       6.748  43.343  50.398  1.00  0.00    -0.177 NA
ATOM      6  C   UNL     1       5.995  44.352  50.817  1.00  0.00     0.232 A 
ATOM      7  N   UNL     1       4.692  44.239  51.059  1.00  0.00    -0.195 NA
BRANCH   3   8
ATOM      8  N   UNL     1       6.889  41.120  49.786  1.00  0.00    -0.368 N 
ATOM      9  H   UNL     1       7.419  40.736  50.556  1.00  0.00     0.159 HD
ATOM     10  H   UNL     1       7.400  41.367  48.950  1.00  0.00     0.159 HD
ENDBRANCH   3   8
BRANCH   6  11
ATOM     11  N   UNL     1       6.519  45.619  51.061  1.00  0.00    -0.324 N 
ATOM     12  H   UNL     1       6.084  46.282  50.435  1.00  0.00     0.170 HD
BRANCH  11  13
ATOM     13  C   UNL     1       7.532  46.111  51.892  1.00  0.00     0.041 A 
ATOM     14  C   UNL     1       7.319  46.572  53.194  1.00  0.00     0.026 A 
ATOM     15  C   UNL     1       8.840  46.182  51.382  1.00  0.00     0.026 A 
ATOM     16  C   UNL     1       8.374  47.074  53.968  1.00  0.00     0.002 A 
ATOM     17  C   UNL     1       9.897  46.682  52.150  1.00  0.00     0.002 A 
ATOM     18  C   UNL     1       9.662  47.127  53.446  1.00  0.00     0.000 A 
ENDBRANCH  11  13
ENDBRANCH   6  11
ENDBRANCH   1   2
BRANCH   1  19
ATOM     19  N   UNL     1       2.203  43.794  52.126  1.00  0.00    -0.185 N 
ATOM     20  N   UNL     1       1.987  45.110  51.833  1.00  0.00    -0.043 NA
ATOM     21  C   UNL     1       1.545  43.459  53.299  1.00  0.00     0.368 C 
ATOM     22  N   UNL     1       1.321  45.636  52.775  1.00  0.00    -0.039 NA
ATOM     23  N   UNL     1       1.062  44.688  53.738  1.00  0.00    -0.159 N 
ATOM     24  O   UNL     1       1.396  42.333  53.744  1.00  0.00    -0.244 OA
BRANCH  23  25
ATOM     25  C   UNL     1       0.251  45.013  54.846  1.00  0.00     0.091 A 
ATOM     26  C   UNL     1       0.884  45.485  56.015  1.00  0.00     0.030 A 
ATOM     27  C   UNL     1      -1.150  44.888  54.868  1.00  0.00     0.067 A 
ATOM     28  C   UNL     1       0.149  45.881  57.137  1.00  0.00     0.002 A 
ATOM     29  C   UNL     1      -1.883  45.292  55.997  1.00  0.00     0.023 A 
ATOM     30  C   UNL     1      -1.236  45.797  57.123  1.00  0.00     0.002 A 
ATOM     31  Cl  UNL     1      -2.065  44.075  53.645  1.00  0.00    -0.082 Cl
ENDBRANCH  23  25
ENDBRANCH   1  19
TORSDOF 6
ENDMDL
