MODEL 1
REMARK VINA RESULT:    -9.155      0.000      0.000
REMARK INTER + INTRA:         -15.191
REMARK INTER:                 -13.437
REMARK INTRA:                  -1.754
REMARK UNBOUND:                -1.754
REMARK SMILES COc1ccc(OCc2noc(C[NH+]3CCCC(C(=O)Nc4ccccc4)C3)n2)cc1
REMARK SMILES IDX 9 1 10 2 11 3 12 4 29 5 8 6 7 7 6 8 3 9 4 10 31 11 5 12
REMARK SMILES IDX 30 13 2 14 1 15 13 16 14 17 15 18 28 19 16 20 18 21 17 22
REMARK SMILES IDX 19 24 21 25 20 26 22 28 23 29 27 30 24 31 26 32 25 33
REMARK H PARENT 14 23 21 27
ROOT
ATOM      1  C   UNL     1       3.447  46.593  54.212  1.00  0.00     0.209 A 
ATOM      2  N   UNL     1       2.728  46.916  53.127  1.00  0.00    -0.058 NA
ATOM      3  O   UNL     1       1.658  46.031  53.163  1.00  0.00    -0.333 OA
ATOM      4  C   UNL     1       1.834  45.254  54.266  1.00  0.00     0.281 A 
ATOM      5  N   UNL     1       2.921  45.547  54.947  1.00  0.00    -0.187 NA
ENDROOT
BRANCH   1   6
ATOM      6  C   UNL     1       4.707  47.306  54.577  1.00  0.00     0.310 C 
BRANCH   6   7
ATOM      7  O   UNL     1       5.337  47.960  53.462  1.00  0.00    -0.485 OA
BRANCH   7   8
ATOM      8  C   UNL     1       6.644  47.650  53.208  1.00  0.00     0.120 A 
ATOM      9  C   UNL     1       9.316  46.848  52.900  1.00  0.00     0.119 A 
ATOM     10  C   UNL     1       8.493  46.191  53.813  1.00  0.00     0.050 A 
ATOM     11  C   UNL     1       8.800  47.908  52.148  1.00  0.00     0.050 A 
ATOM     12  C   UNL     1       7.164  46.602  53.972  1.00  0.00     0.050 A 
ATOM     13  C   UNL     1       7.471  48.316  52.305  1.00  0.00     0.050 A 
BRANCH   9  14
ATOM     14  O   UNL     1      10.614  46.517  52.629  1.00  0.00    -0.497 OA
ATOM     15  C   UNL     1      10.802  45.656  51.510  1.00  0.00     0.278 C 
ENDBRANCH   9  14
ENDBRANCH   7   8
ENDBRANCH   6   7
ENDBRANCH   1   6
BRANCH   4  16
ATOM     16  C   UNL     1       0.782  44.233  54.513  1.00  0.00     0.364 C 
BRANCH  16  17
ATOM     17  N   UNL     1       0.808  42.958  53.654  1.00  0.00    -0.326 N 
ATOM     18  C   UNL     1      -0.361  42.804  52.722  1.00  0.00     0.262 C 
ATOM     19  C   UNL     1       2.179  42.658  53.061  1.00  0.00     0.276 C 
ATOM     20  C   UNL     1      -0.137  43.438  51.360  1.00  0.00     0.062 C 
ATOM     21  C   UNL     1       2.114  42.283  51.578  1.00  0.00     0.134 C 
ATOM     22  C   UNL     1       1.284  43.317  50.824  1.00  0.00     0.025 C 
ATOM     23  H   UNL     1       0.663  42.217  54.353  1.00  0.00     0.348 HD
BRANCH  21  24
ATOM     24  C   UNL     1       3.544  42.205  51.048  1.00  0.00     0.233 C 
ATOM     25  N   UNL     1       4.125  43.437  50.829  1.00  0.00    -0.326 N 
ATOM     26  O   UNL     1       4.049  41.108  50.826  1.00  0.00    -0.274 OA
ATOM     27  H   UNL     1       3.561  44.267  50.979  1.00  0.00     0.169 HD
BRANCH  25  28
ATOM     28  C   UNL     1       5.443  43.695  50.392  1.00  0.00     0.041 A 
ATOM     29  C   UNL     1       6.220  42.788  49.670  1.00  0.00     0.026 A 
ATOM     30  C   UNL     1       5.995  44.943  50.723  1.00  0.00     0.026 A 
ATOM     31  C   UNL     1       7.521  43.122  49.281  1.00  0.00     0.002 A 
ATOM     32  C   UNL     1       7.295  45.273  50.333  1.00  0.00     0.002 A 
ATOM     33  C   UNL     1       8.056  44.364  49.606  1.00  0.00     0.000 A 
ENDBRANCH  25  28
ENDBRANCH  21  24
ENDBRANCH  16  17
ENDBRANCH   4  16
TORSDOF 8
ENDMDL
MODEL 2
REMARK VINA RESULT:    -9.037      0.201      1.237
REMARK INTER + INTRA:         -15.018
REMARK INTER:                 -13.437
REMARK INTRA:                  -1.581
REMARK UNBOUND:                -1.754
REMARK SMILES COc1ccc(OCc2noc(C[NH+]3CCCC(C(=O)Nc4ccccc4)C3)n2)cc1
REMARK SMILES IDX 9 1 10 2 11 3 12 4 29 5 8 6 7 7 6 8 3 9 4 10 31 11 5 12
REMARK SMILES IDX 30 13 2 14 1 15 13 16 14 17 15 18 28 19 16 20 18 21 17 22
REMARK SMILES IDX 19 24 21 25 20 26 22 28 23 29 27 30 24 31 26 32 25 33
REMARK H PARENT 14 23 21 27
ROOT
ATOM      1  C   UNL     1       3.495  46.664  54.208  1.00  0.00     0.209 A 
ATOM      2  N   UNL     1       2.781  46.932  53.105  1.00  0.00    -0.058 NA
ATOM      3  O   UNL     1       1.741  46.013  53.153  1.00  0.00    -0.333 OA
ATOM      4  C   UNL     1       1.928  45.273  54.279  1.00  0.00     0.281 A 
ATOM      5  N   UNL     1       2.995  45.622  54.966  1.00  0.00    -0.187 NA
ENDROOT
BRANCH   1   6
ATOM      6  C   UNL     1       4.725  47.431  54.569  1.00  0.00     0.310 C 
BRANCH   6   7
ATOM      7  O   UNL     1       5.417  47.970  53.430  1.00  0.00    -0.485 OA
BRANCH   7   8
ATOM      8  C   UNL     1       6.699  47.548  53.216  1.00  0.00     0.120 A 
ATOM      9  C   UNL     1       9.343  46.860  52.575  1.00  0.00     0.119 A 
ATOM     10  C   UNL     1       8.748  47.969  51.975  1.00  0.00     0.050 A 
ATOM     11  C   UNL     1       8.612  46.097  53.489  1.00  0.00     0.050 A 
ATOM     12  C   UNL     1       7.425  48.302  52.289  1.00  0.00     0.050 A 
ATOM     13  C   UNL     1       7.291  46.432  53.805  1.00  0.00     0.050 A 
BRANCH   9  14
ATOM     14  O   UNL     1      10.635  46.458  52.378  1.00  0.00    -0.497 OA
ATOM     15  C   UNL     1      10.798  45.332  51.522  1.00  0.00     0.278 C 
ENDBRANCH   9  14
ENDBRANCH   7   8
ENDBRANCH   6   7
ENDBRANCH   1   6
BRANCH   4  16
ATOM     16  C   UNL     1       0.907  44.224  54.541  1.00  0.00     0.364 C 
BRANCH  16  17
ATOM     17  N   UNL     1       0.961  42.946  53.688  1.00  0.00    -0.326 N 
ATOM     18  C   UNL     1      -0.201  42.767  52.752  1.00  0.00     0.262 C 
ATOM     19  C   UNL     1       2.339  42.669  53.102  1.00  0.00     0.276 C 
ATOM     20  C   UNL     1       0.016  43.400  51.389  1.00  0.00     0.062 C 
ATOM     21  C   UNL     1       2.287  42.288  51.619  1.00  0.00     0.134 C 
ATOM     22  C   UNL     1       1.442  43.303  50.858  1.00  0.00     0.025 C 
ATOM     23  H   UNL     1       0.826  42.205  54.389  1.00  0.00     0.348 HD
BRANCH  21  24
ATOM     24  C   UNL     1       3.721  42.234  51.095  1.00  0.00     0.233 C 
ATOM     25  N   UNL     1       4.255  43.473  50.806  1.00  0.00    -0.326 N 
ATOM     26  O   UNL     1       4.268  41.147  50.937  1.00  0.00    -0.274 OA
ATOM     27  H   UNL     1       3.659  44.288  50.909  1.00  0.00     0.169 HD
BRANCH  25  28
ATOM     28  C   UNL     1       5.563  43.756  50.356  1.00  0.00     0.041 A 
ATOM     29  C   UNL     1       6.220  44.968  50.573  1.00  0.00     0.026 A 
ATOM     30  C   UNL     1       6.225  42.749  49.635  1.00  0.00     0.026 A 
ATOM     31  C   UNL     1       7.516  45.169  50.086  1.00  0.00     0.002 A 
ATOM     32  C   UNL     1       7.519  42.953  49.149  1.00  0.00     0.002 A 
ATOM     33  C   UNL     1       8.167  44.162  49.380  1.00  0.00     0.000 A 
ENDBRANCH  25  28
ENDBRANCH  21  24
ENDBRANCH  16  17
ENDBRANCH   4  16
TORSDOF 8
ENDMDL
MODEL 3
REMARK VINA RESULT:    -8.941      1.282      1.563
REMARK INTER + INTRA:         -14.877
REMARK INTER:                 -13.281
REMARK INTRA:                  -1.596
REMARK UNBOUND:                -1.754
REMARK SMILES COc1ccc(OCc2noc(C[NH+]3CCCC(C(=O)Nc4ccccc4)C3)n2)cc1
REMARK SMILES IDX 9 1 10 2 11 3 12 4 29 5 8 6 7 7 6 8 3 9 4 10 31 11 5 12
REMARK SMILES IDX 30 13 2 14 1 15 13 16 14 17 15 18 28 19 16 20 18 21 17 22
REMARK SMILES IDX 19 24 21 25 20 26 22 28 23 29 27 30 24 31 26 32 25 33
REMARK H PARENT 14 23 21 27
ROOT
ATOM      1  C   UNL     1       4.084  46.451  54.712  1.00  0.00     0.209 A 
ATOM      2  N   UNL     1       3.392  46.914  53.661  1.00  0.00    -0.058 NA
ATOM      3  O   UNL     1       2.121  46.386  53.842  1.00  0.00    -0.333 OA
ATOM      4  C   UNL     1       2.165  45.651  54.986  1.00  0.00     0.281 A 
ATOM      5  N   UNL     1       3.349  45.646  55.562  1.00  0.00    -0.187 NA
ENDROOT
BRANCH   1   6
ATOM      6  C   UNL     1       5.525  46.781  54.929  1.00  0.00     0.310 C 
BRANCH   6   7
ATOM      7  O   UNL     1       6.070  47.648  53.921  1.00  0.00    -0.485 OA
BRANCH   7   8
ATOM      8  C   UNL     1       7.190  47.222  53.264  1.00  0.00     0.120 A 
ATOM      9  C   UNL     1       9.631  46.424  52.132  1.00  0.00     0.119 A 
ATOM     10  C   UNL     1       9.577  46.806  53.472  1.00  0.00     0.050 A 
ATOM     11  C   UNL     1       8.465  46.448  51.362  1.00  0.00     0.050 A 
ATOM     12  C   UNL     1       8.360  47.214  54.029  1.00  0.00     0.050 A 
ATOM     13  C   UNL     1       7.248  46.853  51.921  1.00  0.00     0.050 A 
BRANCH   9  14
ATOM     14  O   UNL     1      10.749  45.972  51.487  1.00  0.00    -0.497 OA
ATOM     15  C   UNL     1      10.589  44.747  50.779  1.00  0.00     0.278 C 
ENDBRANCH   9  14
ENDBRANCH   7   8
ENDBRANCH   6   7
ENDBRANCH   1   6
BRANCH   4  16
ATOM     16  C   UNL     1       0.891  44.998  55.387  1.00  0.00     0.364 C 
BRANCH  16  17
ATOM     17  N   UNL     1       0.356  43.867  54.494  1.00  0.00    -0.326 N 
ATOM     18  C   UNL     1      -1.057  44.058  54.017  1.00  0.00     0.262 C 
ATOM     19  C   UNL     1       1.357  43.401  53.445  1.00  0.00     0.276 C 
ATOM     20  C   UNL     1      -1.156  44.817  52.705  1.00  0.00     0.062 C 
ATOM     21  C   UNL     1       0.732  43.247  52.055  1.00  0.00     0.134 C 
ATOM     22  C   UNL     1      -0.050  44.508  51.703  1.00  0.00     0.025 C 
ATOM     23  H   UNL     1       0.287  43.079  55.152  1.00  0.00     0.348 HD
BRANCH  21  24
ATOM     24  C   UNL     1       1.858  42.977  51.059  1.00  0.00     0.233 C 
ATOM     25  N   UNL     1       3.120  43.049  51.612  1.00  0.00    -0.326 N 
ATOM     26  O   UNL     1       1.586  42.762  49.881  1.00  0.00    -0.274 OA
ATOM     27  H   UNL     1       3.202  43.317  52.588  1.00  0.00     0.169 HD
BRANCH  25  28
ATOM     28  C   UNL     1       4.351  42.803  50.966  1.00  0.00     0.041 A 
ATOM     29  C   UNL     1       4.794  41.537  50.581  1.00  0.00     0.026 A 
ATOM     30  C   UNL     1       5.175  43.912  50.715  1.00  0.00     0.026 A 
ATOM     31  C   UNL     1       6.033  41.381  49.951  1.00  0.00     0.002 A 
ATOM     32  C   UNL     1       6.412  43.752  50.086  1.00  0.00     0.002 A 
ATOM     33  C   UNL     1       6.839  42.486  49.699  1.00  0.00     0.000 A 
ENDBRANCH  25  28
ENDBRANCH  21  24
ENDBRANCH  16  17
ENDBRANCH   4  16
TORSDOF 8
ENDMDL
MODEL 4
REMARK VINA RESULT:    -8.770      1.721      4.849
REMARK INTER + INTRA:         -14.626
REMARK INTER:                 -12.922
REMARK INTRA:                  -1.704
REMARK UNBOUND:                -1.754
REMARK SMILES COc1ccc(OCc2noc(C[NH+]3CCCC(C(=O)Nc4ccccc4)C3)n2)cc1
REMARK SMILES IDX 9 1 10 2 11 3 12 4 29 5 8 6 7 7 6 8 3 9 4 10 31 11 5 12
REMARK SMILES IDX 30 13 2 14 1 15 13 16 14 17 15 18 28 19 16 20 18 21 17 22
REMARK SMILES IDX 19 24 21 25 20 26 22 28 23 29 27 30 24 31 26 32 25 33
REMARK H PARENT 14 23 21 27
ROOT
ATOM      1  C   UNL     1       1.892  42.652  51.039  1.00  0.00     0.209 A 
ATOM      2  N   UNL     1       0.903  43.165  50.294  1.00  0.00    -0.058 NA
ATOM      3  O   UNL     1       0.132  43.872  51.208  1.00  0.00    -0.333 OA
ATOM      4  C   UNL     1       0.728  43.715  52.421  1.00  0.00     0.281 A 
ATOM      5  N   UNL     1       1.810  42.968  52.382  1.00  0.00    -0.187 NA
ENDROOT
BRANCH   1   6
ATOM      6  C   UNL     1       2.977  41.808  50.454  1.00  0.00     0.310 C 
BRANCH   6   7
ATOM      7  O   UNL     1       4.185  41.809  51.234  1.00  0.00    -0.485 OA
BRANCH   7   8
ATOM      8  C   UNL     1       5.287  42.403  50.684  1.00  0.00     0.120 A 
ATOM      9  C   UNL     1       7.449  43.856  49.641  1.00  0.00     0.119 A 
ATOM     10  C   UNL     1       6.520  44.488  50.467  1.00  0.00     0.050 A 
ATOM     11  C   UNL     1       7.290  42.502  49.335  1.00  0.00     0.050 A 
ATOM     12  C   UNL     1       5.437  43.761  50.976  1.00  0.00     0.050 A 
ATOM     13  C   UNL     1       6.209  41.776  49.847  1.00  0.00     0.050 A 
BRANCH   9  14
ATOM     14  O   UNL     1       8.565  44.447  49.115  1.00  0.00    -0.497 OA
ATOM     15  C   UNL     1       9.699  44.480  49.976  1.00  0.00     0.278 C 
ENDBRANCH   9  14
ENDBRANCH   7   8
ENDBRANCH   6   7
ENDBRANCH   1   6
BRANCH   4  16
ATOM     16  C   UNL     1       0.070  44.409  53.560  1.00  0.00     0.364 C 
BRANCH  16  17
ATOM     17  N   UNL     1       0.765  45.655  54.134  1.00  0.00    -0.326 N 
ATOM     18  C   UNL     1       0.941  45.644  55.627  1.00  0.00     0.262 C 
ATOM     19  C   UNL     1       1.975  46.098  53.323  1.00  0.00     0.276 C 
ATOM     20  C   UNL     1       2.242  45.004  56.079  1.00  0.00     0.062 C 
ATOM     21  C   UNL     1       3.190  46.422  54.198  1.00  0.00     0.134 C 
ATOM     22  C   UNL     1       3.438  45.278  55.175  1.00  0.00     0.025 C 
ATOM     23  H   UNL     1       0.065  46.392  53.976  1.00  0.00     0.348 HD
BRANCH  21  24
ATOM     24  C   UNL     1       4.386  46.655  53.278  1.00  0.00     0.233 C 
ATOM     25  N   UNL     1       5.586  46.786  53.946  1.00  0.00    -0.326 N 
ATOM     26  O   UNL     1       4.211  46.743  52.066  1.00  0.00    -0.274 OA
ATOM     27  H   UNL     1       5.574  46.773  54.961  1.00  0.00     0.169 HD
BRANCH  25  28
ATOM     28  C   UNL     1       6.867  46.959  53.378  1.00  0.00     0.041 A 
ATOM     29  C   UNL     1       7.151  47.856  52.347  1.00  0.00     0.026 A 
ATOM     30  C   UNL     1       7.906  46.163  53.885  1.00  0.00     0.026 A 
ATOM     31  C   UNL     1       8.449  47.961  51.836  1.00  0.00     0.002 A 
ATOM     32  C   UNL     1       9.201  46.270  53.372  1.00  0.00     0.002 A 
ATOM     33  C   UNL     1       9.474  47.173  52.351  1.00  0.00     0.000 A 
ENDBRANCH  25  28
ENDBRANCH  21  24
ENDBRANCH  16  17
ENDBRANCH   4  16
TORSDOF 8
ENDMDL
MODEL 5
REMARK VINA RESULT:    -8.573      2.617      6.704
REMARK INTER + INTRA:         -14.337
REMARK INTER:                 -13.156
REMARK INTRA:                  -1.181
REMARK UNBOUND:                -1.754
REMARK SMILES COc1ccc(OCc2noc(C[NH+]3CCCC(C(=O)Nc4ccccc4)C3)n2)cc1
REMARK SMILES IDX 9 1 10 2 11 3 12 4 29 5 8 6 7 7 6 8 3 9 4 10 31 11 5 12
REMARK SMILES IDX 30 13 2 14 1 15 13 16 14 17 15 18 28 19 16 20 18 21 17 22
REMARK SMILES IDX 19 24 21 25 20 26 22 28 23 29 27 30 24 31 26 32 25 33
REMARK H PARENT 14 23 21 27
ROOT
ATOM      1  C   UNL     1       4.107  42.916  51.161  1.00  0.00     0.209 A 
ATOM      2  N   UNL     1       3.574  41.992  51.974  1.00  0.00    -0.058 NA
ATOM      3  O   UNL     1       2.403  42.587  52.427  1.00  0.00    -0.333 OA
ATOM      4  C   UNL     1       2.342  43.816  51.847  1.00  0.00     0.281 A 
ATOM      5  N   UNL     1       3.367  44.078  51.064  1.00  0.00    -0.187 NA
ENDROOT
BRANCH   1   6
ATOM      6  C   UNL     1       5.395  42.694  50.437  1.00  0.00     0.310 C 
BRANCH   6   7
ATOM      7  O   UNL     1       5.519  41.374  49.882  1.00  0.00    -0.485 OA
BRANCH   7   8
ATOM      8  C   UNL     1       5.030  41.174  48.622  1.00  0.00     0.120 A 
ATOM      9  C   UNL     1       4.208  40.944  45.948  1.00  0.00     0.119 A 
ATOM     10  C   UNL     1       5.362  41.660  46.262  1.00  0.00     0.050 A 
ATOM     11  C   UNL     1       3.467  40.350  46.973  1.00  0.00     0.050 A 
ATOM     12  C   UNL     1       5.762  41.782  47.598  1.00  0.00     0.050 A 
ATOM     13  C   UNL     1       3.869  40.469  48.308  1.00  0.00     0.050 A 
BRANCH   9  14
ATOM     14  O   UNL     1       3.738  40.723  44.683  1.00  0.00    -0.497 OA
ATOM     15  C   UNL     1       2.328  40.558  44.578  1.00  0.00     0.278 C 
ENDBRANCH   9  14
ENDBRANCH   7   8
ENDBRANCH   6   7
ENDBRANCH   1   6
BRANCH   4  16
ATOM     16  C   UNL     1       1.146  44.632  52.183  1.00  0.00     0.364 C 
BRANCH  16  17
ATOM     17  N   UNL     1       1.323  45.776  53.196  1.00  0.00    -0.326 N 
ATOM     18  C   UNL     1       0.962  45.422  54.611  1.00  0.00     0.262 C 
ATOM     19  C   UNL     1       2.621  46.550  53.010  1.00  0.00     0.276 C 
ATOM     20  C   UNL     1       2.124  44.856  55.409  1.00  0.00     0.062 C 
ATOM     21  C   UNL     1       3.357  46.797  54.331  1.00  0.00     0.134 C 
ATOM     22  C   UNL     1       3.477  45.488  55.104  1.00  0.00     0.025 C 
ATOM     23  H   UNL     1       0.587  46.437  52.914  1.00  0.00     0.348 HD
BRANCH  21  24
ATOM     24  C   UNL     1       4.725  47.393  54.004  1.00  0.00     0.233 C 
ATOM     25  N   UNL     1       5.727  46.453  53.881  1.00  0.00    -0.326 N 
ATOM     26  O   UNL     1       4.850  48.611  53.913  1.00  0.00    -0.274 OA
ATOM     27  H   UNL     1       5.498  45.481  54.063  1.00  0.00     0.169 HD
BRANCH  25  28
ATOM     28  C   UNL     1       7.078  46.682  53.538  1.00  0.00     0.041 A 
ATOM     29  C   UNL     1       8.050  47.117  54.440  1.00  0.00     0.026 A 
ATOM     30  C   UNL     1       7.445  46.467  52.201  1.00  0.00     0.026 A 
ATOM     31  C   UNL     1       9.367  47.326  54.016  1.00  0.00     0.002 A 
ATOM     32  C   UNL     1       8.761  46.678  51.780  1.00  0.00     0.002 A 
ATOM     33  C   UNL     1       9.723  47.102  52.690  1.00  0.00     0.000 A 
ENDBRANCH  25  28
ENDBRANCH  21  24
ENDBRANCH  16  17
ENDBRANCH   4  16
TORSDOF 8
ENDMDL
MODEL 6
REMARK VINA RESULT:    -8.509      2.114      6.805
REMARK INTER + INTRA:         -14.243
REMARK INTER:                 -13.001
REMARK INTRA:                  -1.242
REMARK UNBOUND:                -1.754
REMARK SMILES COc1ccc(OCc2noc(C[NH+]3CCCC(C(=O)Nc4ccccc4)C3)n2)cc1
REMARK SMILES IDX 9 1 10 2 11 3 12 4 29 5 8 6 7 7 6 8 3 9 4 10 31 11 5 12
REMARK SMILES IDX 30 13 2 14 1 15 13 16 14 17 15 18 28 19 16 20 18 21 17 22
REMARK SMILES IDX 19 24 21 25 20 26 22 28 23 29 27 30 24 31 26 32 25 33
REMARK H PARENT 14 23 21 27
ROOT
ATOM      1  C   UNL     1       3.925  45.742  55.105  1.00  0.00     0.209 A 
ATOM      2  N   UNL     1       4.713  44.741  55.522  1.00  0.00    -0.058 NA
ATOM      3  O   UNL     1       5.997  45.200  55.258  1.00  0.00    -0.333 OA
ATOM      4  C   UNL     1       5.862  46.434  54.702  1.00  0.00     0.281 A 
ATOM      5  N   UNL     1       4.611  46.819  54.575  1.00  0.00    -0.187 NA
ENDROOT
BRANCH   1   6
ATOM      6  C   UNL     1       2.435  45.681  55.204  1.00  0.00     0.310 C 
BRANCH   6   7
ATOM      7  O   UNL     1       1.902  44.364  54.986  1.00  0.00    -0.485 OA
BRANCH   7   8
ATOM      8  C   UNL     1       1.325  44.113  53.773  1.00  0.00     0.120 A 
ATOM      9  C   UNL     1       0.156  43.336  51.342  1.00  0.00     0.119 A 
ATOM     10  C   UNL     1       0.369  42.392  52.345  1.00  0.00     0.050 A 
ATOM     11  C   UNL     1       0.533  44.665  51.557  1.00  0.00     0.050 A 
ATOM     12  C   UNL     1       0.963  42.782  53.551  1.00  0.00     0.050 A 
ATOM     13  C   UNL     1       1.124  45.055  52.765  1.00  0.00     0.050 A 
BRANCH   9  14
ATOM     14  O   UNL     1      -0.446  43.086  50.141  1.00  0.00    -0.497 OA
ATOM     15  C   UNL     1      -1.870  43.073  50.165  1.00  0.00     0.278 C 
ENDBRANCH   9  14
ENDBRANCH   7   8
ENDBRANCH   6   7
ENDBRANCH   1   6
BRANCH   4  16
ATOM     16  C   UNL     1       7.130  47.127  54.350  1.00  0.00     0.364 C 
BRANCH  16  17
ATOM     17  N   UNL     1       7.393  47.424  52.864  1.00  0.00    -0.326 N 
ATOM     18  C   UNL     1       8.744  48.014  52.571  1.00  0.00     0.262 C 
ATOM     19  C   UNL     1       6.937  46.305  51.936  1.00  0.00     0.276 C 
ATOM     20  C   UNL     1       9.816  46.971  52.307  1.00  0.00     0.062 C 
ATOM     21  C   UNL     1       7.983  45.954  50.874  1.00  0.00     0.134 C 
ATOM     22  C   UNL     1       9.339  45.745  51.538  1.00  0.00     0.025 C 
ATOM     23  H   UNL     1       6.742  48.197  52.674  1.00  0.00     0.348 HD
BRANCH  21  24
ATOM     24  C   UNL     1       7.508  44.701  50.141  1.00  0.00     0.233 C 
ATOM     25  N   UNL     1       6.368  44.140  50.678  1.00  0.00    -0.326 N 
ATOM     26  O   UNL     1       8.158  44.271  49.191  1.00  0.00    -0.274 OA
ATOM     27  H   UNL     1       5.979  44.556  51.518  1.00  0.00     0.169 HD
BRANCH  25  28
ATOM     28  C   UNL     1       5.662  43.015  50.200  1.00  0.00     0.041 A 
ATOM     29  C   UNL     1       6.027  42.285  49.068  1.00  0.00     0.026 A 
ATOM     30  C   UNL     1       4.516  42.627  50.912  1.00  0.00     0.026 A 
ATOM     31  C   UNL     1       5.267  41.184  48.658  1.00  0.00     0.002 A 
ATOM     32  C   UNL     1       3.759  41.528  50.501  1.00  0.00     0.002 A 
ATOM     33  C   UNL     1       4.138  40.803  49.376  1.00  0.00     0.000 A 
ENDBRANCH  25  28
ENDBRANCH  21  24
ENDBRANCH  16  17
ENDBRANCH   4  16
TORSDOF 8
ENDMDL
MODEL 7
REMARK VINA RESULT:    -8.190      3.803      7.744
REMARK INTER + INTRA:         -13.774
REMARK INTER:                 -12.983
REMARK INTRA:                  -0.791
REMARK UNBOUND:                -1.754
REMARK SMILES COc1ccc(OCc2noc(C[NH+]3CCCC(C(=O)Nc4ccccc4)C3)n2)cc1
REMARK SMILES IDX 9 1 10 2 11 3 12 4 29 5 8 6 7 7 6 8 3 9 4 10 31 11 5 12
REMARK SMILES IDX 30 13 2 14 1 15 13 16 14 17 15 18 28 19 16 20 18 21 17 22
REMARK SMILES IDX 19 24 21 25 20 26 22 28 23 29 27 30 24 31 26 32 25 33
REMARK H PARENT 14 23 21 27
ROOT
ATOM      1  C   UNL     1       3.776  40.933  49.510  1.00  0.00     0.209 A 
ATOM      2  N   UNL     1       4.942  41.179  50.125  1.00  0.00    -0.058 NA
ATOM      3  O   UNL     1       4.588  41.990  51.195  1.00  0.00    -0.333 OA
ATOM      4  C   UNL     1       3.240  42.160  51.124  1.00  0.00     0.281 A 
ATOM      5  N   UNL     1       2.686  41.540  50.104  1.00  0.00    -0.187 NA
ENDROOT
BRANCH   1   6
ATOM      6  C   UNL     1       3.681  40.080  48.288  1.00  0.00     0.310 C 
BRANCH   6   7
ATOM      7  O   UNL     1       3.132  40.768  47.151  1.00  0.00    -0.485 OA
BRANCH   7   8
ATOM      8  C   UNL     1       3.758  40.593  45.949  1.00  0.00     0.120 A 
ATOM      9  C   UNL     1       5.144  40.480  43.511  1.00  0.00     0.119 A 
ATOM     10  C   UNL     1       5.379  41.530  44.397  1.00  0.00     0.050 A 
ATOM     11  C   UNL     1       4.212  39.494  43.845  1.00  0.00     0.050 A 
ATOM     12  C   UNL     1       4.677  41.588  45.606  1.00  0.00     0.050 A 
ATOM     13  C   UNL     1       3.513  39.551  45.056  1.00  0.00     0.050 A 
BRANCH   9  14
ATOM     14  O   UNL     1       5.791  40.295  42.321  1.00  0.00    -0.497 OA
ATOM     15  C   UNL     1       5.085  39.517  41.359  1.00  0.00     0.278 C 
ENDBRANCH   9  14
ENDBRANCH   7   8
ENDBRANCH   6   7
ENDBRANCH   1   6
BRANCH   4  16
ATOM     16  C   UNL     1       2.634  42.993  52.196  1.00  0.00     0.364 C 
BRANCH  16  17
ATOM     17  N   UNL     1       2.479  44.499  51.929  1.00  0.00    -0.326 N 
ATOM     18  C   UNL     1       1.230  45.113  52.497  1.00  0.00     0.262 C 
ATOM     19  C   UNL     1       3.766  45.286  52.142  1.00  0.00     0.276 C 
ATOM     20  C   UNL     1       1.400  45.625  53.917  1.00  0.00     0.062 C 
ATOM     21  C   UNL     1       3.550  46.569  52.950  1.00  0.00     0.134 C 
ATOM     22  C   UNL     1       2.757  46.251  54.213  1.00  0.00     0.025 C 
ATOM     23  H   UNL     1       2.325  44.529  50.912  1.00  0.00     0.348 HD
BRANCH  21  24
ATOM     24  C   UNL     1       4.921  47.161  53.271  1.00  0.00     0.233 C 
ATOM     25  N   UNL     1       5.975  46.332  52.945  1.00  0.00    -0.326 N 
ATOM     26  O   UNL     1       4.995  48.264  53.805  1.00  0.00    -0.274 OA
ATOM     27  H   UNL     1       5.764  45.408  52.581  1.00  0.00     0.169 HD
BRANCH  25  28
ATOM     28  C   UNL     1       7.353  46.612  53.074  1.00  0.00     0.041 A 
ATOM     29  C   UNL     1       7.971  46.966  54.274  1.00  0.00     0.026 A 
ATOM     30  C   UNL     1       8.134  46.536  51.909  1.00  0.00     0.026 A 
ATOM     31  C   UNL     1       9.343  47.233  54.313  1.00  0.00     0.002 A 
ATOM     32  C   UNL     1       9.504  46.803  51.951  1.00  0.00     0.002 A 
ATOM     33  C   UNL     1      10.110  47.147  53.155  1.00  0.00     0.000 A 
ENDBRANCH  25  28
ENDBRANCH  21  24
ENDBRANCH  16  17
ENDBRANCH   4  16
TORSDOF 8
ENDMDL
MODEL 8
REMARK VINA RESULT:    -8.054      3.263      6.805
REMARK INTER + INTRA:         -13.575
REMARK INTER:                 -13.101
REMARK INTRA:                  -0.474
REMARK UNBOUND:                -1.754
REMARK SMILES COc1ccc(OCc2noc(C[NH+]3CCCC(C(=O)Nc4ccccc4)C3)n2)cc1
REMARK SMILES IDX 9 1 10 2 11 3 12 4 29 5 8 6 7 7 6 8 3 9 4 10 31 11 5 12
REMARK SMILES IDX 30 13 2 14 1 15 13 16 14 17 15 18 28 19 16 20 18 21 17 22
REMARK SMILES IDX 19 24 21 25 20 26 22 28 23 29 27 30 24 31 26 32 25 33
REMARK H PARENT 14 23 21 27
ROOT
ATOM      1  C   UNL     1      -0.745  43.406  54.304  1.00  0.00     0.209 A 
ATOM      2  N   UNL     1      -1.264  42.737  53.264  1.00  0.00    -0.058 NA
ATOM      3  O   UNL     1      -0.156  42.417  52.490  1.00  0.00    -0.333 OA
ATOM      4  C   UNL     1       0.928  42.926  53.136  1.00  0.00     0.281 A 
ATOM      5  N   UNL     1       0.628  43.553  54.253  1.00  0.00    -0.187 NA
ENDROOT
BRANCH   1   6
ATOM      6  C   UNL     1      -1.593  43.945  55.410  1.00  0.00     0.310 C 
BRANCH   6   7
ATOM      7  O   UNL     1      -1.698  45.379  55.402  1.00  0.00    -0.485 OA
BRANCH   7   8
ATOM      8  C   UNL     1      -1.179  46.052  56.473  1.00  0.00     0.120 A 
ATOM      9  C   UNL     1       0.108  47.283  58.641  1.00  0.00     0.119 A 
ATOM     10  C   UNL     1       0.818  46.414  57.813  1.00  0.00     0.050 A 
ATOM     11  C   UNL     1      -1.243  47.528  58.385  1.00  0.00     0.050 A 
ATOM     12  C   UNL     1       0.169  45.794  56.740  1.00  0.00     0.050 A 
ATOM     13  C   UNL     1      -1.891  46.910  57.309  1.00  0.00     0.050 A 
BRANCH   9  14
ATOM     14  O   UNL     1       0.639  47.975  59.694  1.00  0.00    -0.497 OA
ATOM     15  C   UNL     1      -0.310  48.609  60.546  1.00  0.00     0.278 C 
ENDBRANCH   9  14
ENDBRANCH   7   8
ENDBRANCH   6   7
ENDBRANCH   1   6
BRANCH   4  16
ATOM     16  C   UNL     1       2.243  42.683  52.484  1.00  0.00     0.364 C 
BRANCH  16  17
ATOM     17  N   UNL     1       2.658  43.624  51.341  1.00  0.00    -0.326 N 
ATOM     18  C   UNL     1       1.787  44.838  51.179  1.00  0.00     0.262 C 
ATOM     19  C   UNL     1       4.160  43.865  51.274  1.00  0.00     0.276 C 
ATOM     20  C   UNL     1       2.248  46.027  52.005  1.00  0.00     0.062 C 
ATOM     21  C   UNL     1       4.515  45.344  51.088  1.00  0.00     0.134 C 
ATOM     22  C   UNL     1       3.760  46.184  52.112  1.00  0.00     0.025 C 
ATOM     23  H   UNL     1       2.450  43.061  50.505  1.00  0.00     0.348 HD
BRANCH  21  24
ATOM     24  C   UNL     1       6.029  45.488  51.238  1.00  0.00     0.233 C 
ATOM     25  N   UNL     1       6.410  46.283  52.299  1.00  0.00    -0.326 N 
ATOM     26  O   UNL     1       6.773  44.946  50.425  1.00  0.00    -0.274 OA
ATOM     27  H   UNL     1       5.684  46.736  52.844  1.00  0.00     0.169 HD
BRANCH  25  28
ATOM     28  C   UNL     1       7.726  46.566  52.725  1.00  0.00     0.041 A 
ATOM     29  C   UNL     1       8.856  46.431  51.917  1.00  0.00     0.026 A 
ATOM     30  C   UNL     1       7.892  46.998  54.050  1.00  0.00     0.026 A 
ATOM     31  C   UNL     1      10.127  46.728  52.420  1.00  0.00     0.002 A 
ATOM     32  C   UNL     1       9.162  47.294  54.550  1.00  0.00     0.002 A 
ATOM     33  C   UNL     1      10.280  47.164  53.733  1.00  0.00     0.000 A 
ENDBRANCH  25  28
ENDBRANCH  21  24
ENDBRANCH  16  17
ENDBRANCH   4  16
TORSDOF 8
ENDMDL
MODEL 9
REMARK VINA RESULT:    -7.864      2.516      3.736
REMARK INTER + INTRA:         -13.295
REMARK INTER:                 -11.147
REMARK INTRA:                  -2.148
REMARK UNBOUND:                -1.754
REMARK SMILES COc1ccc(OCc2noc(C[NH+]3CCCC(C(=O)Nc4ccccc4)C3)n2)cc1
REMARK SMILES IDX 9 1 10 2 11 3 12 4 29 5 8 6 7 7 6 8 3 9 4 10 31 11 5 12
REMARK SMILES IDX 30 13 2 14 1 15 13 16 14 17 15 18 28 19 16 20 18 21 17 22
REMARK SMILES IDX 19 24 21 25 20 26 22 28 23 29 27 30 24 31 26 32 25 33
REMARK H PARENT 14 23 21 27
ROOT
ATOM      1  C   UNL     1       0.667  45.357  56.099  1.00  0.00     0.209 A 
ATOM      2  N   UNL     1       0.290  44.970  57.326  1.00  0.00    -0.058 NA
ATOM      3  O   UNL     1      -0.979  44.440  57.131  1.00  0.00    -0.333 OA
ATOM      4  C   UNL     1      -1.249  44.561  55.803  1.00  0.00     0.281 A 
ATOM      5  N   UNL     1      -0.278  45.125  55.118  1.00  0.00    -0.187 NA
ENDROOT
BRANCH   1   6
ATOM      6  C   UNL     1       1.995  45.989  55.834  1.00  0.00     0.310 C 
BRANCH   6   7
ATOM      7  O   UNL     1       2.975  45.068  55.328  1.00  0.00    -0.485 OA
BRANCH   7   8
ATOM      8  C   UNL     1       4.169  45.588  54.910  1.00  0.00     0.120 A 
ATOM      9  C   UNL     1       6.479  46.866  53.958  1.00  0.00     0.119 A 
ATOM     10  C   UNL     1       5.261  47.544  53.964  1.00  0.00     0.050 A 
ATOM     11  C   UNL     1       6.535  45.549  54.423  1.00  0.00     0.050 A 
ATOM     12  C   UNL     1       4.109  46.899  54.429  1.00  0.00     0.050 A 
ATOM     13  C   UNL     1       5.384  44.906  54.891  1.00  0.00     0.050 A 
BRANCH   9  14
ATOM     14  O   UNL     1       7.675  47.399  53.565  1.00  0.00    -0.497 OA
ATOM     15  C   UNL     1       7.790  47.674  52.172  1.00  0.00     0.278 C 
ENDBRANCH   9  14
ENDBRANCH   7   8
ENDBRANCH   6   7
ENDBRANCH   1   6
BRANCH   4  16
ATOM     16  C   UNL     1      -2.568  44.036  55.361  1.00  0.00     0.364 C 
BRANCH  16  17
ATOM     17  N   UNL     1      -2.741  43.704  53.869  1.00  0.00    -0.326 N 
ATOM     18  C   UNL     1      -3.669  44.624  53.125  1.00  0.00     0.262 C 
ATOM     19  C   UNL     1      -1.431  43.368  53.170  1.00  0.00     0.276 C 
ATOM     20  C   UNL     1      -2.972  45.835  52.530  1.00  0.00     0.062 C 
ATOM     21  C   UNL     1      -1.280  44.079  51.821  1.00  0.00     0.134 C 
ATOM     22  C   UNL     1      -1.573  45.566  51.989  1.00  0.00     0.025 C 
ATOM     23  H   UNL     1      -3.253  42.812  53.899  1.00  0.00     0.348 HD
BRANCH  21  24
ATOM     24  C   UNL     1       0.139  43.832  51.314  1.00  0.00     0.233 C 
ATOM     25  N   UNL     1       1.076  44.700  51.835  1.00  0.00    -0.326 N 
ATOM     26  O   UNL     1       0.342  42.946  50.488  1.00  0.00    -0.274 OA
ATOM     27  H   UNL     1       0.754  45.441  52.450  1.00  0.00     0.169 HD
BRANCH  25  28
ATOM     28  C   UNL     1       2.469  44.696  51.601  1.00  0.00     0.041 A 
ATOM     29  C   UNL     1       3.307  43.617  51.883  1.00  0.00     0.026 A 
ATOM     30  C   UNL     1       3.030  45.865  51.062  1.00  0.00     0.026 A 
ATOM     31  C   UNL     1       4.679  43.699  51.625  1.00  0.00     0.002 A 
ATOM     32  C   UNL     1       4.401  45.944  50.806  1.00  0.00     0.002 A 
ATOM     33  C   UNL     1       5.225  44.858  51.083  1.00  0.00     0.000 A 
ENDBRANCH  25  28
ENDBRANCH  21  24
ENDBRANCH  16  17
ENDBRANCH   4  16
TORSDOF 8
ENDMDL
MODEL 10
REMARK VINA RESULT:    -7.834      3.247      6.903
REMARK INTER + INTRA:         -13.251
REMARK INTER:                 -12.882
REMARK INTRA:                  -0.370
REMARK UNBOUND:                -1.754
REMARK SMILES COc1ccc(OCc2noc(C[NH+]3CCCC(C(=O)Nc4ccccc4)C3)n2)cc1
REMARK SMILES IDX 9 1 10 2 11 3 12 4 29 5 8 6 7 7 6 8 3 9 4 10 31 11 5 12
REMARK SMILES IDX 30 13 2 14 1 15 13 16 14 17 15 18 28 19 16 20 18 21 17 22
REMARK SMILES IDX 19 24 21 25 20 26 22 28 23 29 27 30 24 31 26 32 25 33
REMARK H PARENT 14 23 21 27
ROOT
ATOM      1  C   UNL     1       6.717  44.593  50.513  1.00  0.00     0.209 A 
ATOM      2  N   UNL     1       6.169  43.492  49.978  1.00  0.00    -0.058 NA
ATOM      3  O   UNL     1       4.907  43.436  50.555  1.00  0.00    -0.333 OA
ATOM      4  C   UNL     1       4.813  44.508  51.388  1.00  0.00     0.281 A 
ATOM      5  N   UNL     1       5.898  45.252  51.410  1.00  0.00    -0.187 NA
ENDROOT
BRANCH   1   6
ATOM      6  C   UNL     1       8.096  45.049  50.164  1.00  0.00     0.310 C 
BRANCH   6   7
ATOM      7  O   UNL     1       8.292  46.462  50.343  1.00  0.00    -0.485 OA
BRANCH   7   8
ATOM      8  C   UNL     1       8.579  46.901  51.605  1.00  0.00     0.120 A 
ATOM      9  C   UNL     1       9.318  47.581  54.226  1.00  0.00     0.119 A 
ATOM     10  C   UNL     1       9.939  46.511  53.583  1.00  0.00     0.050 A 
ATOM     11  C   UNL     1       8.326  48.303  53.557  1.00  0.00     0.050 A 
ATOM     12  C   UNL     1       9.559  46.168  52.281  1.00  0.00     0.050 A 
ATOM     13  C   UNL     1       7.949  47.962  52.253  1.00  0.00     0.050 A 
BRANCH   9  14
ATOM     14  O   UNL     1       9.627  48.034  55.478  1.00  0.00    -0.497 OA
ATOM     15  C   UNL     1      10.880  47.593  55.992  1.00  0.00     0.278 C 
ENDBRANCH   9  14
ENDBRANCH   7   8
ENDBRANCH   6   7
ENDBRANCH   1   6
BRANCH   4  16
ATOM     16  C   UNL     1       3.521  44.657  52.108  1.00  0.00     0.364 C 
BRANCH  16  17
ATOM     17  N   UNL     1       3.432  44.097  53.538  1.00  0.00    -0.326 N 
ATOM     18  C   UNL     1       4.716  44.157  54.317  1.00  0.00     0.262 C 
ATOM     19  C   UNL     1       2.178  44.539  54.281  1.00  0.00     0.276 C 
ATOM     20  C   UNL     1       4.895  45.452  55.090  1.00  0.00     0.062 C 
ATOM     21  C   UNL     1       2.471  45.012  55.709  1.00  0.00     0.134 C 
ATOM     22  C   UNL     1       3.614  46.021  55.690  1.00  0.00     0.025 C 
ATOM     23  H   UNL     1       3.292  43.092  53.374  1.00  0.00     0.348 HD
BRANCH  21  24
ATOM     24  C   UNL     1       1.189  45.614  56.279  1.00  0.00     0.233 C 
ATOM     25  N   UNL     1       1.366  46.267  57.481  1.00  0.00    -0.326 N 
ATOM     26  O   UNL     1       0.127  45.457  55.682  1.00  0.00    -0.274 OA
ATOM     27  H   UNL     1       2.289  46.251  57.904  1.00  0.00     0.169 HD
BRANCH  25  28
ATOM     28  C   UNL     1       0.391  46.963  58.229  1.00  0.00     0.041 A 
ATOM     29  C   UNL     1      -0.923  47.165  57.805  1.00  0.00     0.026 A 
ATOM     30  C   UNL     1       0.789  47.488  59.469  1.00  0.00     0.026 A 
ATOM     31  C   UNL     1      -1.825  47.872  58.605  1.00  0.00     0.002 A 
ATOM     32  C   UNL     1      -0.115  48.194  60.266  1.00  0.00     0.002 A 
ATOM     33  C   UNL     1      -1.424  48.382  59.837  1.00  0.00     0.000 A 
ENDBRANCH  25  28
ENDBRANCH  21  24
ENDBRANCH  16  17
ENDBRANCH   4  16
TORSDOF 8
ENDMDL
