MODEL 1
REMARK VINA RESULT:    -8.975      0.000      0.000
REMARK INTER + INTRA:         -12.941
REMARK INTER:                 -11.599
REMARK INTRA:                  -1.342
REMARK UNBOUND:                -1.342
REMARK SMILES Cc1cc(COc2ccccc2C(=O)NC2CCCC2)ncn1
REMARK SMILES IDX 6 1 5 2 4 3 2 4 3 5 23 6 22 7 21 8 1 9 7 10 8 11 12 12 9 13
REMARK SMILES IDX 11 14 10 15 13 16 15 17 14 18 16 20 17 21 20 22 18 23 19 24
REMARK H PARENT 15 19
ROOT
ATOM      1  O   UNL     1       7.592  45.100  49.907  1.00  0.00    -0.486 OA
ENDROOT
BRANCH   1   2
ATOM      2  C   UNL     1       8.827  45.201  50.630  1.00  0.00     0.285 C 
BRANCH   2   3
ATOM      3  C   UNL     1       8.791  46.300  51.667  1.00  0.00     0.081 A 
ATOM      4  C   UNL     1       9.485  47.271  53.701  1.00  0.00     0.041 A 
ATOM      5  C   UNL     1       9.570  46.218  52.809  1.00  0.00     0.051 A 
ATOM      6  N   UNL     1       8.695  48.340  53.480  1.00  0.00    -0.242 NA
ATOM      7  C   UNL     1       7.985  48.330  52.343  1.00  0.00     0.222 A 
ATOM      8  N   UNL     1       7.992  47.360  51.416  1.00  0.00    -0.238 NA
ATOM      9  C   UNL     1      10.287  47.254  54.968  1.00  0.00     0.067 C 
ENDBRANCH   2   3
ENDBRANCH   1   2
BRANCH   1  10
ATOM     10  C   UNL     1       6.846  43.957  50.039  1.00  0.00     0.132 A 
ATOM     11  C   UNL     1       7.255  42.712  49.542  1.00  0.00     0.047 A 
ATOM     12  C   UNL     1       5.594  44.057  50.685  1.00  0.00     0.081 A 
ATOM     13  C   UNL     1       6.458  41.575  49.710  1.00  0.00     0.004 A 
ATOM     14  C   UNL     1       4.808  42.902  50.854  1.00  0.00     0.018 A 
ATOM     15  C   UNL     1       5.239  41.668  50.370  1.00  0.00     0.001 A 
BRANCH  12  16
ATOM     16  C   UNL     1       5.022  45.330  51.235  1.00  0.00     0.255 C 
ATOM     17  N   UNL     1       5.385  45.680  52.516  1.00  0.00    -0.349 N 
ATOM     18  O   UNL     1       4.276  46.021  50.547  1.00  0.00    -0.269 OA
ATOM     19  H   UNL     1       5.876  44.976  53.055  1.00  0.00     0.164 HD
BRANCH  17  20
ATOM     20  C   UNL     1       4.766  46.789  53.220  1.00  0.00     0.082 C 
ATOM     21  C   UNL     1       5.318  46.922  54.635  1.00  0.00     0.025 C 
ATOM     22  C   UNL     1       3.281  46.537  53.470  1.00  0.00     0.025 C 
ATOM     23  C   UNL     1       4.544  45.893  55.458  1.00  0.00     0.002 C 
ATOM     24  C   UNL     1       3.249  45.622  54.692  1.00  0.00     0.002 C 
ENDBRANCH  17  20
ENDBRANCH  12  16
ENDBRANCH   1  10
TORSDOF 5
ENDMDL
MODEL 2
REMARK VINA RESULT:    -8.785      2.060      5.186
REMARK INTER + INTRA:         -12.695
REMARK INTER:                 -11.713
REMARK INTRA:                  -0.981
REMARK UNBOUND:                -1.342
REMARK SMILES Cc1cc(COc2ccccc2C(=O)NC2CCCC2)ncn1
REMARK SMILES IDX 6 1 5 2 4 3 2 4 3 5 23 6 22 7 21 8 1 9 7 10 8 11 12 12 9 13
REMARK SMILES IDX 11 14 10 15 13 16 15 17 14 18 16 20 17 21 20 22 18 23 19 24
REMARK H PARENT 15 19
ROOT
ATOM      1  O   UNL     1       6.879  45.917  51.241  1.00  0.00    -0.486 OA
ENDROOT
BRANCH   1   2
ATOM      2  C   UNL     1       7.102  45.119  50.069  1.00  0.00     0.285 C 
BRANCH   2   3
ATOM      3  C   UNL     1       6.415  43.776  50.157  1.00  0.00     0.081 A 
ATOM      4  C   UNL     1       4.609  42.394  50.782  1.00  0.00     0.041 A 
ATOM      5  C   UNL     1       5.170  43.657  50.753  1.00  0.00     0.051 A 
ATOM      6  N   UNL     1       5.225  41.319  50.250  1.00  0.00    -0.242 NA
ATOM      7  C   UNL     1       6.423  41.538  49.690  1.00  0.00     0.222 A 
ATOM      8  N   UNL     1       7.056  42.718  49.612  1.00  0.00    -0.238 NA
ATOM      9  C   UNL     1       3.269  42.177  51.419  1.00  0.00     0.067 C 
ENDBRANCH   2   3
ENDBRANCH   1   2
BRANCH   1  10
ATOM     10  C   UNL     1       7.963  46.300  51.989  1.00  0.00     0.132 A 
ATOM     11  C   UNL     1       9.289  46.112  51.571  1.00  0.00     0.047 A 
ATOM     12  C   UNL     1       7.722  46.885  53.251  1.00  0.00     0.081 A 
ATOM     13  C   UNL     1      10.358  46.527  52.371  1.00  0.00     0.004 A 
ATOM     14  C   UNL     1       8.809  47.305  54.039  1.00  0.00     0.018 A 
ATOM     15  C   UNL     1      10.120  47.128  53.600  1.00  0.00     0.001 A 
BRANCH  12  16
ATOM     16  C   UNL     1       6.358  47.115  53.832  1.00  0.00     0.255 C 
ATOM     17  N   UNL     1       5.279  46.918  53.000  1.00  0.00    -0.349 N 
ATOM     18  O   UNL     1       6.235  47.451  55.007  1.00  0.00    -0.269 OA
ATOM     19  H   UNL     1       5.484  46.794  52.016  1.00  0.00     0.164 HD
BRANCH  17  20
ATOM     20  C   UNL     1       3.926  47.275  53.389  1.00  0.00     0.082 C 
ATOM     21  C   UNL     1       3.271  46.157  54.194  1.00  0.00     0.025 C 
ATOM     22  C   UNL     1       3.004  47.390  52.178  1.00  0.00     0.025 C 
ATOM     23  C   UNL     1       2.769  45.163  53.148  1.00  0.00     0.002 C 
ATOM     24  C   UNL     1       2.629  45.948  51.845  1.00  0.00     0.002 C 
ENDBRANCH  17  20
ENDBRANCH  12  16
ENDBRANCH   1  10
TORSDOF 5
ENDMDL
MODEL 3
REMARK VINA RESULT:    -8.611      1.601      5.242
REMARK INTER + INTRA:         -12.469
REMARK INTER:                 -11.522
REMARK INTRA:                  -0.948
REMARK UNBOUND:                -1.342
REMARK SMILES Cc1cc(COc2ccccc2C(=O)NC2CCCC2)ncn1
REMARK SMILES IDX 6 1 5 2 4 3 2 4 3 5 23 6 22 7 21 8 1 9 7 10 8 11 12 12 9 13
REMARK SMILES IDX 11 14 10 15 13 16 15 17 14 18 16 20 17 21 20 22 18 23 19 24
REMARK H PARENT 15 19
ROOT
ATOM      1  O   UNL     1       4.971  45.592  51.572  1.00  0.00    -0.486 OA
ENDROOT
BRANCH   1   2
ATOM      2  C   UNL     1       3.638  46.096  51.735  1.00  0.00     0.285 C 
BRANCH   2   3
ATOM      3  C   UNL     1       3.138  45.936  53.152  1.00  0.00     0.081 A 
ATOM      4  C   UNL     1       1.478  45.360  54.726  1.00  0.00     0.041 A 
ATOM      5  C   UNL     1       1.851  45.487  53.401  1.00  0.00     0.051 A 
ATOM      6  N   UNL     1       2.318  45.643  55.741  1.00  0.00    -0.242 NA
ATOM      7  C   UNL     1       3.544  46.064  55.399  1.00  0.00     0.222 A 
ATOM      8  N   UNL     1       4.004  46.226  54.149  1.00  0.00    -0.238 NA
ATOM      9  C   UNL     1       0.099  44.892  55.080  1.00  0.00     0.067 C 
ENDBRANCH   2   3
ENDBRANCH   1   2
BRANCH   1  10
ATOM     10  C   UNL     1       5.136  44.315  51.098  1.00  0.00     0.132 A 
ATOM     11  C   UNL     1       4.158  43.318  51.224  1.00  0.00     0.047 A 
ATOM     12  C   UNL     1       6.364  43.994  50.480  1.00  0.00     0.081 A 
ATOM     13  C   UNL     1       4.376  42.033  50.717  1.00  0.00     0.004 A 
ATOM     14  C   UNL     1       6.562  42.699  49.966  1.00  0.00     0.018 A 
ATOM     15  C   UNL     1       5.573  41.725  50.083  1.00  0.00     0.001 A 
BRANCH  12  16
ATOM     16  C   UNL     1       7.504  44.954  50.307  1.00  0.00     0.255 C 
ATOM     17  N   UNL     1       7.755  45.824  51.344  1.00  0.00    -0.349 N 
ATOM     18  O   UNL     1       8.179  44.934  49.282  1.00  0.00    -0.269 OA
ATOM     19  H   UNL     1       7.055  45.868  52.076  1.00  0.00     0.164 HD
BRANCH  17  20
ATOM     20  C   UNL     1       8.711  46.910  51.228  1.00  0.00     0.082 C 
ATOM     21  C   UNL     1      10.048  46.538  51.860  1.00  0.00     0.025 C 
ATOM     22  C   UNL     1       8.286  48.124  52.052  1.00  0.00     0.025 C 
ATOM     23  C   UNL     1       9.860  46.787  53.356  1.00  0.00     0.002 C 
ATOM     24  C   UNL     1       8.705  47.782  53.480  1.00  0.00     0.002 C 
ENDBRANCH  17  20
ENDBRANCH  12  16
ENDBRANCH   1  10
TORSDOF 5
ENDMDL
MODEL 4
REMARK VINA RESULT:    -8.303      1.453      1.999
REMARK INTER + INTRA:         -12.072
REMARK INTER:                 -10.906
REMARK INTRA:                  -1.167
REMARK UNBOUND:                -1.342
REMARK SMILES Cc1cc(COc2ccccc2C(=O)NC2CCCC2)ncn1
REMARK SMILES IDX 6 1 5 2 4 3 2 4 3 5 23 6 22 7 21 8 1 9 7 10 8 11 12 12 9 13
REMARK SMILES IDX 11 14 10 15 13 16 15 17 14 18 16 20 17 21 20 22 18 23 19 24
REMARK H PARENT 15 19
ROOT
ATOM      1  O   UNL     1       6.161  44.968  50.930  1.00  0.00    -0.486 OA
ENDROOT
BRANCH   1   2
ATOM      2  C   UNL     1       7.228  45.666  50.273  1.00  0.00     0.285 C 
BRANCH   2   3
ATOM      3  C   UNL     1       8.332  46.049  51.231  1.00  0.00     0.081 A 
ATOM      4  C   UNL     1       9.121  47.089  53.196  1.00  0.00     0.041 A 
ATOM      5  C   UNL     1       8.054  46.790  52.368  1.00  0.00     0.051 A 
ATOM      6  N   UNL     1      10.376  46.678  52.930  1.00  0.00    -0.242 NA
ATOM      7  C   UNL     1      10.542  45.961  51.810  1.00  0.00     0.222 A 
ATOM      8  N   UNL     1       9.580  45.620  50.939  1.00  0.00    -0.238 NA
ATOM      9  C   UNL     1       8.907  47.897  54.441  1.00  0.00     0.067 C 
ENDBRANCH   2   3
ENDBRANCH   1   2
BRANCH   1  10
ATOM     10  C   UNL     1       5.812  43.723  50.472  1.00  0.00     0.132 A 
ATOM     11  C   UNL     1       6.459  43.090  49.401  1.00  0.00     0.047 A 
ATOM     12  C   UNL     1       4.729  43.067  51.098  1.00  0.00     0.081 A 
ATOM     13  C   UNL     1       6.067  41.816  48.977  1.00  0.00     0.004 A 
ATOM     14  C   UNL     1       4.354  41.782  50.666  1.00  0.00     0.018 A 
ATOM     15  C   UNL     1       5.020  41.160  49.612  1.00  0.00     0.001 A 
BRANCH  12  16
ATOM     16  C   UNL     1       3.931  43.641  52.232  1.00  0.00     0.255 C 
ATOM     17  N   UNL     1       4.590  44.484  53.100  1.00  0.00    -0.349 N 
ATOM     18  O   UNL     1       2.741  43.368  52.350  1.00  0.00    -0.269 OA
ATOM     19  H   UNL     1       5.598  44.526  53.011  1.00  0.00     0.164 HD
BRANCH  17  20
ATOM     20  C   UNL     1       3.978  44.961  54.327  1.00  0.00     0.082 C 
ATOM     21  C   UNL     1       3.318  46.321  54.123  1.00  0.00     0.025 C 
ATOM     22  C   UNL     1       5.025  45.263  55.397  1.00  0.00     0.025 C 
ATOM     23  C   UNL     1       4.459  47.332  54.231  1.00  0.00     0.002 C 
ATOM     24  C   UNL     1       5.569  46.639  55.022  1.00  0.00     0.002 C 
ENDBRANCH  17  20
ENDBRANCH  12  16
ENDBRANCH   1  10
TORSDOF 5
ENDMDL
MODEL 5
REMARK VINA RESULT:    -8.207      2.202      5.635
REMARK INTER + INTRA:         -11.948
REMARK INTER:                 -11.207
REMARK INTRA:                  -0.741
REMARK UNBOUND:                -1.342
REMARK SMILES Cc1cc(COc2ccccc2C(=O)NC2CCCC2)ncn1
REMARK SMILES IDX 6 1 5 2 4 3 2 4 3 5 23 6 22 7 21 8 1 9 7 10 8 11 12 12 9 13
REMARK SMILES IDX 11 14 10 15 13 16 15 17 14 18 16 20 17 21 20 22 18 23 19 24
REMARK H PARENT 15 19
ROOT
ATOM      1  O   UNL     1       4.213  43.275  52.344  1.00  0.00    -0.486 OA
ENDROOT
BRANCH   1   2
ATOM      2  C   UNL     1       2.798  43.486  52.248  1.00  0.00     0.285 C 
BRANCH   2   3
ATOM      3  C   UNL     1       2.239  44.167  53.476  1.00  0.00     0.081 A 
ATOM      4  C   UNL     1       0.487  44.643  54.981  1.00  0.00     0.041 A 
ATOM      5  C   UNL     1       0.913  43.992  53.839  1.00  0.00     0.051 A 
ATOM      6  N   UNL     1       1.311  45.407  55.725  1.00  0.00    -0.242 NA
ATOM      7  C   UNL     1       2.576  45.509  55.296  1.00  0.00     0.222 A 
ATOM      8  N   UNL     1       3.090  44.924  54.203  1.00  0.00    -0.238 NA
ATOM      9  C   UNL     1      -0.936  44.516  55.436  1.00  0.00     0.067 C 
ENDBRANCH   2   3
ENDBRANCH   1   2
BRANCH   1  10
ATOM     10  C   UNL     1       4.906  42.943  51.207  1.00  0.00     0.132 A 
ATOM     11  C   UNL     1       4.847  41.672  50.617  1.00  0.00     0.047 A 
ATOM     12  C   UNL     1       5.736  43.927  50.628  1.00  0.00     0.081 A 
ATOM     13  C   UNL     1       5.569  41.388  49.453  1.00  0.00     0.004 A 
ATOM     14  C   UNL     1       6.447  43.628  49.452  1.00  0.00     0.018 A 
ATOM     15  C   UNL     1       6.363  42.366  48.867  1.00  0.00     0.001 A 
BRANCH  12  16
ATOM     16  C   UNL     1       5.915  45.314  51.172  1.00  0.00     0.255 C 
ATOM     17  N   UNL     1       7.192  45.692  51.520  1.00  0.00    -0.349 N 
ATOM     18  O   UNL     1       4.950  46.065  51.280  1.00  0.00    -0.269 OA
ATOM     19  H   UNL     1       7.891  44.958  51.540  1.00  0.00     0.164 HD
BRANCH  17  20
ATOM     20  C   UNL     1       7.468  46.935  52.217  1.00  0.00     0.082 C 
ATOM     21  C   UNL     1       8.672  47.651  51.613  1.00  0.00     0.025 C 
ATOM     22  C   UNL     1       7.922  46.686  53.653  1.00  0.00     0.025 C 
ATOM     23  C   UNL     1       9.889  46.966  52.235  1.00  0.00     0.002 C 
ATOM     24  C   UNL     1       9.398  46.319  53.529  1.00  0.00     0.002 C 
ENDBRANCH  17  20
ENDBRANCH  12  16
ENDBRANCH   1  10
TORSDOF 5
ENDMDL
MODEL 6
REMARK VINA RESULT:    -8.206      1.424      1.775
REMARK INTER + INTRA:         -11.946
REMARK INTER:                 -10.726
REMARK INTRA:                  -1.220
REMARK UNBOUND:                -1.342
REMARK SMILES Cc1cc(COc2ccccc2C(=O)NC2CCCC2)ncn1
REMARK SMILES IDX 6 1 5 2 4 3 2 4 3 5 23 6 22 7 21 8 1 9 7 10 8 11 12 12 9 13
REMARK SMILES IDX 11 14 10 15 13 16 15 17 14 18 16 20 17 21 20 22 18 23 19 24
REMARK H PARENT 15 19
ROOT
ATOM      1  O   UNL     1       5.878  45.260  50.627  1.00  0.00    -0.486 OA
ENDROOT
BRANCH   1   2
ATOM      2  C   UNL     1       7.255  45.575  50.873  1.00  0.00     0.285 C 
BRANCH   2   3
ATOM      3  C   UNL     1       7.471  46.139  52.258  1.00  0.00     0.081 A 
ATOM      4  C   UNL     1       8.857  46.924  53.998  1.00  0.00     0.041 A 
ATOM      5  C   UNL     1       8.750  46.399  52.724  1.00  0.00     0.051 A 
ATOM      6  N   UNL     1       7.779  47.188  54.762  1.00  0.00    -0.242 NA
ATOM      7  C   UNL     1       6.585  46.909  54.221  1.00  0.00     0.222 A 
ATOM      8  N   UNL     1       6.370  46.396  52.999  1.00  0.00    -0.238 NA
ATOM      9  C   UNL     1      10.206  47.222  54.581  1.00  0.00     0.067 C 
ENDBRANCH   2   3
ENDBRANCH   1   2
BRANCH   1  10
ATOM     10  C   UNL     1       5.505  43.941  50.575  1.00  0.00     0.132 A 
ATOM     11  C   UNL     1       6.344  42.926  50.092  1.00  0.00     0.047 A 
ATOM     12  C   UNL     1       4.204  43.604  51.007  1.00  0.00     0.081 A 
ATOM     13  C   UNL     1       5.916  41.594  50.068  1.00  0.00     0.004 A 
ATOM     14  C   UNL     1       3.794  42.259  50.984  1.00  0.00     0.018 A 
ATOM     15  C   UNL     1       4.646  41.259  50.518  1.00  0.00     0.001 A 
BRANCH  12  16
ATOM     16  C   UNL     1       3.197  44.593  51.516  1.00  0.00     0.255 C 
ATOM     17  N   UNL     1       3.498  45.249  52.689  1.00  0.00    -0.349 N 
ATOM     18  O   UNL     1       2.162  44.800  50.889  1.00  0.00    -0.269 OA
ATOM     19  H   UNL     1       4.295  44.901  53.209  1.00  0.00     0.164 HD
BRANCH  17  20
ATOM     20  C   UNL     1       2.535  46.093  53.372  1.00  0.00     0.082 C 
ATOM     21  C   UNL     1       3.058  46.537  54.734  1.00  0.00     0.025 C 
ATOM     22  C   UNL     1       1.272  45.319  53.743  1.00  0.00     0.025 C 
ATOM     23  C   UNL     1       2.775  45.361  55.667  1.00  0.00     0.002 C 
ATOM     24  C   UNL     1       1.649  44.560  55.013  1.00  0.00     0.002 C 
ENDBRANCH  17  20
ENDBRANCH  12  16
ENDBRANCH   1  10
TORSDOF 5
ENDMDL
MODEL 7
REMARK VINA RESULT:    -8.079      2.077      6.117
REMARK INTER + INTRA:         -11.782
REMARK INTER:                 -10.675
REMARK INTRA:                  -1.107
REMARK UNBOUND:                -1.342
REMARK SMILES Cc1cc(COc2ccccc2C(=O)NC2CCCC2)ncn1
REMARK SMILES IDX 6 1 5 2 4 3 2 4 3 5 23 6 22 7 21 8 1 9 7 10 8 11 12 12 9 13
REMARK SMILES IDX 11 14 10 15 13 16 15 17 14 18 16 20 17 21 20 22 18 23 19 24
REMARK H PARENT 15 19
ROOT
ATOM      1  O   UNL     1       6.244  45.631  54.216  1.00  0.00    -0.486 OA
ENDROOT
BRANCH   1   2
ATOM      2  C   UNL     1       5.170  46.492  54.619  1.00  0.00     0.285 C 
BRANCH   2   3
ATOM      3  C   UNL     1       3.847  45.763  54.674  1.00  0.00     0.081 A 
ATOM      4  C   UNL     1       2.286  44.208  53.833  1.00  0.00     0.041 A 
ATOM      5  C   UNL     1       3.510  44.836  53.701  1.00  0.00     0.051 A 
ATOM      6  N   UNL     1       1.451  44.464  54.860  1.00  0.00    -0.242 NA
ATOM      7  C   UNL     1       1.869  45.371  55.754  1.00  0.00     0.222 A 
ATOM      8  N   UNL     1       3.033  46.039  55.717  1.00  0.00    -0.238 NA
ATOM      9  C   UNL     1       1.840  43.201  52.816  1.00  0.00     0.067 C 
ENDBRANCH   2   3
ENDBRANCH   1   2
BRANCH   1  10
ATOM     10  C   UNL     1       7.331  46.188  53.590  1.00  0.00     0.132 A 
ATOM     11  C   UNL     1       8.378  46.812  54.282  1.00  0.00     0.047 A 
ATOM     12  C   UNL     1       7.372  46.148  52.179  1.00  0.00     0.081 A 
ATOM     13  C   UNL     1       9.466  47.359  53.594  1.00  0.00     0.004 A 
ATOM     14  C   UNL     1       8.479  46.693  51.503  1.00  0.00     0.018 A 
ATOM     15  C   UNL     1       9.521  47.294  52.207  1.00  0.00     0.001 A 
BRANCH  12  16
ATOM     16  C   UNL     1       6.306  45.540  51.316  1.00  0.00     0.255 C 
ATOM     17  N   UNL     1       6.530  44.265  50.846  1.00  0.00    -0.349 N 
ATOM     18  O   UNL     1       5.281  46.167  51.065  1.00  0.00    -0.269 OA
ATOM     19  H   UNL     1       7.463  43.892  50.977  1.00  0.00     0.164 HD
BRANCH  17  20
ATOM     20  C   UNL     1       5.661  43.638  49.865  1.00  0.00     0.082 C 
ATOM     21  C   UNL     1       4.582  42.799  50.541  1.00  0.00     0.025 C 
ATOM     22  C   UNL     1       6.410  42.600  49.033  1.00  0.00     0.025 C 
ATOM     23  C   UNL     1       5.263  41.472  50.870  1.00  0.00     0.002 C 
ATOM     24  C   UNL     1       6.458  41.360  49.922  1.00  0.00     0.002 C 
ENDBRANCH  17  20
ENDBRANCH  12  16
ENDBRANCH   1  10
TORSDOF 5
ENDMDL
MODEL 8
REMARK VINA RESULT:    -7.722      2.327      2.840
REMARK INTER + INTRA:         -11.321
REMARK INTER:                 -10.864
REMARK INTRA:                  -0.457
REMARK UNBOUND:                -1.342
REMARK SMILES Cc1cc(COc2ccccc2C(=O)NC2CCCC2)ncn1
REMARK SMILES IDX 6 1 5 2 4 3 2 4 3 5 23 6 22 7 21 8 1 9 7 10 8 11 12 12 9 13
REMARK SMILES IDX 11 14 10 15 13 16 15 17 14 18 16 20 17 21 20 22 18 23 19 24
REMARK H PARENT 15 19
ROOT
ATOM      1  O   UNL     1       6.021  45.342  50.561  1.00  0.00    -0.486 OA
ENDROOT
BRANCH   1   2
ATOM      2  C   UNL     1       7.338  45.813  50.879  1.00  0.00     0.285 C 
BRANCH   2   3
ATOM      3  C   UNL     1       7.433  46.317  52.301  1.00  0.00     0.081 A 
ATOM      4  C   UNL     1       8.652  47.147  54.142  1.00  0.00     0.041 A 
ATOM      5  C   UNL     1       8.656  46.687  52.838  1.00  0.00     0.051 A 
ATOM      6  N   UNL     1       7.520  47.249  54.867  1.00  0.00    -0.242 NA
ATOM      7  C   UNL     1       6.387  46.873  54.257  1.00  0.00     0.222 A 
ATOM      8  N   UNL     1       6.281  46.410  53.002  1.00  0.00    -0.238 NA
ATOM      9  C   UNL     1       9.934  47.556  54.802  1.00  0.00     0.067 C 
ENDBRANCH   2   3
ENDBRANCH   1   2
BRANCH   1  10
ATOM     10  C   UNL     1       5.822  43.990  50.430  1.00  0.00     0.132 A 
ATOM     11  C   UNL     1       6.735  43.139  49.792  1.00  0.00     0.047 A 
ATOM     12  C   UNL     1       4.624  43.447  50.942  1.00  0.00     0.081 A 
ATOM     13  C   UNL     1       6.485  41.766  49.691  1.00  0.00     0.004 A 
ATOM     14  C   UNL     1       4.393  42.063  50.841  1.00  0.00     0.018 A 
ATOM     15  C   UNL     1       5.319  41.227  50.220  1.00  0.00     0.001 A 
BRANCH  12  16
ATOM     16  C   UNL     1       3.550  44.247  51.619  1.00  0.00     0.255 C 
ATOM     17  N   UNL     1       2.625  43.552  52.366  1.00  0.00    -0.349 N 
ATOM     18  O   UNL     1       3.527  45.470  51.508  1.00  0.00    -0.269 OA
ATOM     19  H   UNL     1       2.635  42.543  52.272  1.00  0.00     0.164 HD
BRANCH  17  20
ATOM     20  C   UNL     1       1.444  44.189  52.922  1.00  0.00     0.082 C 
ATOM     21  C   UNL     1       0.808  43.323  54.004  1.00  0.00     0.025 C 
ATOM     22  C   UNL     1       0.325  44.297  51.889  1.00  0.00     0.025 C 
ATOM     23  C   UNL     1      -0.032  42.298  53.244  1.00  0.00     0.002 C 
ATOM     24  C   UNL     1      -0.315  42.911  51.872  1.00  0.00     0.002 C 
ENDBRANCH  17  20
ENDBRANCH  12  16
ENDBRANCH   1  10
TORSDOF 5
ENDMDL
MODEL 9
REMARK VINA RESULT:    -7.704      2.262      3.249
REMARK INTER + INTRA:         -11.297
REMARK INTER:                 -10.482
REMARK INTRA:                  -0.815
REMARK UNBOUND:                -1.342
REMARK SMILES Cc1cc(COc2ccccc2C(=O)NC2CCCC2)ncn1
REMARK SMILES IDX 6 1 5 2 4 3 2 4 3 5 23 6 22 7 21 8 1 9 7 10 8 11 12 12 9 13
REMARK SMILES IDX 11 14 10 15 13 16 15 17 14 18 16 20 17 21 20 22 18 23 19 24
REMARK H PARENT 15 19
ROOT
ATOM      1  O   UNL     1       5.302  45.057  51.845  1.00  0.00    -0.486 OA
ENDROOT
BRANCH   1   2
ATOM      2  C   UNL     1       5.812  45.206  53.177  1.00  0.00     0.285 C 
BRANCH   2   3
ATOM      3  C   UNL     1       6.809  46.337  53.282  1.00  0.00     0.081 A 
ATOM      4  C   UNL     1       8.857  47.251  54.011  1.00  0.00     0.041 A 
ATOM      5  C   UNL     1       7.998  46.169  53.973  1.00  0.00     0.051 A 
ATOM      6  N   UNL     1       8.574  48.419  53.401  1.00  0.00    -0.242 NA
ATOM      7  C   UNL     1       7.403  48.481  52.752  1.00  0.00     0.222 A 
ATOM      8  N   UNL     1       6.498  47.495  52.657  1.00  0.00    -0.238 NA
ATOM      9  C   UNL     1      10.159  47.156  54.749  1.00  0.00     0.067 C 
ENDBRANCH   2   3
ENDBRANCH   1   2
BRANCH   1  10
ATOM     10  C   UNL     1       6.091  44.444  50.905  1.00  0.00     0.132 A 
ATOM     11  C   UNL     1       7.257  45.024  50.386  1.00  0.00     0.047 A 
ATOM     12  C   UNL     1       5.684  43.180  50.424  1.00  0.00     0.081 A 
ATOM     13  C   UNL     1       8.029  44.353  49.433  1.00  0.00     0.004 A 
ATOM     14  C   UNL     1       6.478  42.514  49.472  1.00  0.00     0.018 A 
ATOM     15  C   UNL     1       7.644  43.097  48.980  1.00  0.00     0.001 A 
BRANCH  12  16
ATOM     16  C   UNL     1       4.445  42.462  50.869  1.00  0.00     0.255 C 
ATOM     17  N   UNL     1       3.297  43.211  50.998  1.00  0.00    -0.349 N 
ATOM     18  O   UNL     1       4.476  41.254  51.088  1.00  0.00    -0.269 OA
ATOM     19  H   UNL     1       3.405  44.217  50.945  1.00  0.00     0.164 HD
BRANCH  17  20
ATOM     20  C   UNL     1       2.083  42.671  51.585  1.00  0.00     0.082 C 
ATOM     21  C   UNL     1       0.842  43.317  50.979  1.00  0.00     0.025 C 
ATOM     22  C   UNL     1       1.959  43.043  53.061  1.00  0.00     0.025 C 
ATOM     23  C   UNL     1       0.683  44.640  51.726  1.00  0.00     0.002 C 
ATOM     24  C   UNL     1       1.429  44.475  53.050  1.00  0.00     0.002 C 
ENDBRANCH  17  20
ENDBRANCH  12  16
ENDBRANCH   1  10
TORSDOF 5
ENDMDL
MODEL 10
REMARK VINA RESULT:    -7.611      3.030      6.562
REMARK INTER + INTRA:         -11.177
REMARK INTER:                 -10.536
REMARK INTRA:                  -0.641
REMARK UNBOUND:                -1.342
REMARK SMILES Cc1cc(COc2ccccc2C(=O)NC2CCCC2)ncn1
REMARK SMILES IDX 6 1 5 2 4 3 2 4 3 5 23 6 22 7 21 8 1 9 7 10 8 11 12 12 9 13
REMARK SMILES IDX 11 14 10 15 13 16 15 17 14 18 16 20 17 21 20 22 18 23 19 24
REMARK H PARENT 15 19
ROOT
ATOM      1  O   UNL     1       3.541  44.629  53.507  1.00  0.00    -0.486 OA
ENDROOT
BRANCH   1   2
ATOM      2  C   UNL     1       2.513  45.570  53.169  1.00  0.00     0.285 C 
BRANCH   2   3
ATOM      3  C   UNL     1       1.142  44.934  53.154  1.00  0.00     0.081 A 
ATOM      4  C   UNL     1      -0.842  44.280  52.058  1.00  0.00     0.041 A 
ATOM      5  C   UNL     1       0.398  44.889  51.986  1.00  0.00     0.051 A 
ATOM      6  N   UNL     1      -1.315  43.741  53.199  1.00  0.00    -0.242 NA
ATOM      7  C   UNL     1      -0.518  43.829  54.273  1.00  0.00     0.222 A 
ATOM      8  N   UNL     1       0.696  44.400  54.313  1.00  0.00    -0.238 NA
ATOM      9  C   UNL     1      -1.715  44.200  50.842  1.00  0.00     0.067 C 
ENDBRANCH   2   3
ENDBRANCH   1   2
BRANCH   1  10
ATOM     10  C   UNL     1       4.086  43.866  52.505  1.00  0.00     0.132 A 
ATOM     11  C   UNL     1       3.657  42.564  52.213  1.00  0.00     0.047 A 
ATOM     12  C   UNL     1       5.149  44.419  51.758  1.00  0.00     0.081 A 
ATOM     13  C   UNL     1       4.244  41.832  51.176  1.00  0.00     0.004 A 
ATOM     14  C   UNL     1       5.722  43.673  50.712  1.00  0.00     0.018 A 
ATOM     15  C   UNL     1       5.270  42.386  50.422  1.00  0.00     0.001 A 
BRANCH  12  16
ATOM     16  C   UNL     1       5.726  45.785  51.986  1.00  0.00     0.255 C 
ATOM     17  N   UNL     1       6.937  45.855  52.638  1.00  0.00    -0.349 N 
ATOM     18  O   UNL     1       5.131  46.782  51.586  1.00  0.00    -0.269 OA
ATOM     19  H   UNL     1       7.272  44.998  53.062  1.00  0.00     0.164 HD
BRANCH  17  20
ATOM     20  C   UNL     1       7.510  47.117  53.070  1.00  0.00     0.082 C 
ATOM     21  C   UNL     1       8.341  47.755  51.962  1.00  0.00     0.025 C 
ATOM     22  C   UNL     1       8.542  46.915  54.178  1.00  0.00     0.025 C 
ATOM     23  C   UNL     1       9.695  47.050  52.030  1.00  0.00     0.002 C 
ATOM     24  C   UNL     1       9.809  46.482  53.445  1.00  0.00     0.002 C 
ENDBRANCH  17  20
ENDBRANCH  12  16
ENDBRANCH   1  10
TORSDOF 5
ENDMDL
