MODEL 1
REMARK VINA RESULT:    -6.594      0.000      0.000
REMARK INTER + INTRA:         -10.600
REMARK INTER:                 -10.449
REMARK INTRA:                  -0.151
REMARK UNBOUND:                -0.151
REMARK SMILES CNc1nc(N2CCCC(COC)CC2)nc2ccccc12
REMARK SMILES IDX 15 1 6 2 5 3 3 4 4 5 22 6 21 7 17 8 16 9 20 10 18 11 19 12
REMARK SMILES IDX 2 13 1 14 7 16 14 18 10 19 9 20 8 21 11 23 12 24 13 25
REMARK H PARENT 2 15
REMARK Flexibility Score:   35.900
ROOT
ATOM      1  C   UNL     1       2.969  46.879  52.335  1.00  0.00     0.120 C 
ENDROOT
BRANCH   1   2
ATOM      2  N   UNL     1       3.977  46.490  53.307  1.00  0.00    -0.341 N 
BRANCH   2   3
ATOM      3  C   UNL     1       5.298  46.438  52.898  1.00  0.00     0.227 A 
ATOM      4  C   UNL     1       6.868  45.800  51.322  1.00  0.00     0.139 A 
ATOM      5  N   UNL     1       5.587  45.873  51.719  1.00  0.00    -0.195 NA
ATOM      6  C   UNL     1       7.917  46.276  52.121  1.00  0.00     0.043 A 
ATOM      7  C   UNL     1       9.298  46.201  51.796  1.00  0.00     0.014 A 
ATOM      8  C   UNL     1       7.522  46.853  53.327  1.00  0.00     0.078 A 
ATOM      9  N   UNL     1       6.244  46.935  53.705  1.00  0.00    -0.213 NA
ATOM     10  C   UNL     1      10.263  46.712  52.662  1.00  0.00     0.001 A 
ATOM     11  C   UNL     1       8.503  47.358  54.174  1.00  0.00     0.029 A 
ATOM     12  C   UNL     1       9.862  47.297  53.855  1.00  0.00     0.002 A 
BRANCH   4  13
ATOM     13  N   UNL     1       7.164  45.207  50.070  1.00  0.00    -0.372 N 
ATOM     14  C   UNL     1       6.616  43.870  49.896  1.00  0.00     0.141 C 
ATOM     15  H   UNL     1       6.844  45.837  49.339  1.00  0.00     0.161 HD
ENDBRANCH   4  13
ENDBRANCH   2   3
BRANCH   2  16
ATOM     16  C   UNL     1       3.667  46.391  54.721  1.00  0.00     0.119 CG0
ATOM     17  G   UNL     1       2.703  45.231  54.958  1.00  0.00     0.000 G0
ENDBRANCH   2  16
ENDBRANCH   1   2
BRANCH   1  18
ATOM     18  C   UNL     1       2.239  45.692  51.701  1.00  0.00     0.027 C 
BRANCH  18  19
ATOM     19  C   UNL     1       1.530  44.730  52.677  1.00  0.00     0.017 C 
BRANCH  19  20
ATOM     20  C   UNL     1       1.436  45.303  54.103  1.00  0.00     0.008 C 
BRANCH  20  21
ATOM     21  C   UNL     1       2.700  45.230  54.964  1.00  0.00     0.022 CG0
ATOM     22  G   UNL     1       3.675  46.381  54.725  1.00  0.00     0.000 G0
ENDBRANCH  20  21
ENDBRANCH  19  20
BRANCH  19  23
ATOM     23  C   UNL     1       2.093  43.302  52.658  1.00  0.00     0.163 C 
BRANCH  23  24
ATOM     24  O   UNL     1       2.977  43.169  51.542  1.00  0.00    -0.384 OA
ATOM     25  C   UNL     1       3.719  41.958  51.610  1.00  0.00     0.194 C 
ENDBRANCH  23  24
ENDBRANCH  19  23
ENDBRANCH  18  19
ENDBRANCH   1  18
TORSDOF 4
ENDMDL
MODEL 2
REMARK VINA RESULT:    -6.434      0.828      1.070
REMARK INTER + INTRA:         -10.345
REMARK INTER:                 -10.388
REMARK INTRA:                   0.042
REMARK UNBOUND:                -0.151
REMARK SMILES CNc1nc(N2CCCC(COC)CC2)nc2ccccc12
REMARK SMILES IDX 15 1 6 2 5 3 3 4 4 5 22 6 21 7 17 8 16 9 20 10 18 11 19 12
REMARK SMILES IDX 2 13 1 14 7 16 14 18 10 19 9 20 8 21 11 23 12 24 13 25
REMARK H PARENT 2 15
REMARK Flexibility Score:   35.900
ROOT
ATOM      1  C   UNL     1       3.007  46.788  52.085  1.00  0.00     0.120 C 
ENDROOT
BRANCH   1   2
ATOM      2  N   UNL     1       3.974  46.458  53.119  1.00  0.00    -0.341 N 
BRANCH   2   3
ATOM      3  C   UNL     1       5.314  46.421  52.777  1.00  0.00     0.227 A 
ATOM      4  C   UNL     1       6.971  45.774  51.298  1.00  0.00     0.139 A 
ATOM      5  N   UNL     1       5.671  45.832  51.629  1.00  0.00    -0.195 NA
ATOM      6  C   UNL     1       7.971  46.289  52.135  1.00  0.00     0.043 A 
ATOM      7  C   UNL     1       9.367  46.232  51.881  1.00  0.00     0.014 A 
ATOM      8  C   UNL     1       7.507  46.889  53.304  1.00  0.00     0.078 A 
ATOM      9  N   UNL     1       6.210  46.957  53.617  1.00  0.00    -0.213 NA
ATOM     10  C   UNL     1      10.279  46.784  52.779  1.00  0.00     0.001 A 
ATOM     11  C   UNL     1       8.434  47.435  54.185  1.00  0.00     0.029 A 
ATOM     12  C   UNL     1       9.809  47.392  53.935  1.00  0.00     0.002 A 
BRANCH   4  13
ATOM     13  N   UNL     1       7.340  45.154  50.078  1.00  0.00    -0.372 N 
ATOM     14  C   UNL     1       6.836  43.799  49.919  1.00  0.00     0.141 C 
ATOM     15  H   UNL     1       7.037  45.755  49.316  1.00  0.00     0.161 HD
ENDBRANCH   4  13
ENDBRANCH   2   3
BRANCH   2  16
ATOM     16  C   UNL     1       3.596  46.406  54.520  1.00  0.00     0.119 CG0
ATOM     17  G   UNL     1       2.580  45.287  54.738  1.00  0.00     0.000 G0
ENDBRANCH   2  16
ENDBRANCH   1   2
BRANCH   1  18
ATOM     18  C   UNL     1       2.306  45.564  51.490  1.00  0.00     0.027 C 
BRANCH  18  19
ATOM     19  C   UNL     1       1.408  44.759  52.454  1.00  0.00     0.017 C 
BRANCH  19  20
ATOM     20  C   UNL     1       1.337  45.391  53.856  1.00  0.00     0.008 C 
BRANCH  20  21
ATOM     21  C   UNL     1       2.585  45.275  54.734  1.00  0.00     0.022 CG0
ATOM     22  G   UNL     1       3.595  46.400  54.519  1.00  0.00     0.000 G0
ENDBRANCH  20  21
ENDBRANCH  19  20
BRANCH  19  23
ATOM     23  C   UNL     1       1.741  43.261  52.505  1.00  0.00     0.163 C 
BRANCH  23  24
ATOM     24  O   UNL     1       0.850  42.622  53.423  1.00  0.00    -0.384 OA
ATOM     25  C   UNL     1      -0.369  42.255  52.790  1.00  0.00     0.194 C 
ENDBRANCH  23  24
ENDBRANCH  19  23
ENDBRANCH  18  19
ENDBRANCH   1  18
TORSDOF 4
ENDMDL
MODEL 3
REMARK VINA RESULT:    -6.371      1.448      2.999
REMARK INTER + INTRA:         -10.246
REMARK INTER:                 -10.332
REMARK INTRA:                   0.086
REMARK UNBOUND:                -0.151
REMARK SMILES CNc1nc(N2CCCC(COC)CC2)nc2ccccc12
REMARK SMILES IDX 15 1 6 2 5 3 3 4 4 5 22 6 21 7 17 8 16 9 20 10 18 11 19 12
REMARK SMILES IDX 2 13 1 14 7 16 14 18 10 19 9 20 8 21 11 23 12 24 13 25
REMARK H PARENT 2 15
REMARK Flexibility Score:   35.900
ROOT
ATOM      1  C   UNL     1       3.118  47.140  52.348  1.00  0.00     0.120 C 
ENDROOT
BRANCH   1   2
ATOM      2  N   UNL     1       4.346  46.804  53.049  1.00  0.00    -0.341 N 
BRANCH   2   3
ATOM      3  C   UNL     1       5.417  46.333  52.309  1.00  0.00     0.227 A 
ATOM      4  C   UNL     1       7.614  46.565  51.623  1.00  0.00     0.139 A 
ATOM      5  N   UNL     1       6.575  47.004  52.352  1.00  0.00    -0.195 NA
ATOM      6  C   UNL     1       7.513  45.438  50.794  1.00  0.00     0.043 A 
ATOM      7  C   UNL     1       8.546  44.934  49.961  1.00  0.00     0.014 A 
ATOM      8  C   UNL     1       6.273  44.801  50.818  1.00  0.00     0.078 A 
ATOM      9  N   UNL     1       5.251  45.235  51.560  1.00  0.00    -0.213 NA
ATOM     10  C   UNL     1       8.342  43.798  49.180  1.00  0.00     0.001 A 
ATOM     11  C   UNL     1       6.092  43.669  50.031  1.00  0.00     0.029 A 
ATOM     12  C   UNL     1       7.109  43.161  49.218  1.00  0.00     0.002 A 
BRANCH   4  13
ATOM     13  N   UNL     1       8.838  47.277  51.678  1.00  0.00    -0.372 N 
ATOM     14  C   UNL     1       9.754  46.813  52.708  1.00  0.00     0.141 C 
ATOM     15  H   UNL     1       9.266  47.239  50.757  1.00  0.00     0.161 HD
ENDBRANCH   4  13
ENDBRANCH   2   3
BRANCH   2  16
ATOM     16  C   UNL     1       4.549  47.171  54.439  1.00  0.00     0.119 CG0
ATOM     17  G   UNL     1       3.852  46.160  55.346  1.00  0.00     0.000 G0
ENDBRANCH   2  16
ENDBRANCH   1   2
BRANCH   1  18
ATOM     18  C   UNL     1       2.031  46.067  52.470  1.00  0.00     0.027 C 
BRANCH  18  19
ATOM     19  C   UNL     1       1.768  45.525  53.891  1.00  0.00     0.017 C 
BRANCH  19  20
ATOM     20  C   UNL     1       3.061  45.084  54.600  1.00  0.00     0.008 C 
BRANCH  20  21
ATOM     21  C   UNL     1       3.844  46.166  55.349  1.00  0.00     0.022 CG0
ATOM     22  G   UNL     1       4.552  47.161  54.431  1.00  0.00     0.000 G0
ENDBRANCH  20  21
ENDBRANCH  19  20
BRANCH  19  23
ATOM     23  C   UNL     1       0.674  44.450  53.950  1.00  0.00     0.163 C 
BRANCH  23  24
ATOM     24  O   UNL     1       1.272  43.170  53.724  1.00  0.00    -0.384 OA
ATOM     25  C   UNL     1       0.393  42.307  53.013  1.00  0.00     0.194 C 
ENDBRANCH  23  24
ENDBRANCH  19  23
ENDBRANCH  18  19
ENDBRANCH   1  18
TORSDOF 4
ENDMDL
MODEL 4
REMARK VINA RESULT:    -6.370      1.660      2.554
REMARK INTER + INTRA:         -10.244
REMARK INTER:                 -10.358
REMARK INTRA:                   0.114
REMARK UNBOUND:                -0.151
REMARK SMILES CNc1nc(N2CCCC(COC)CC2)nc2ccccc12
REMARK SMILES IDX 15 1 6 2 5 3 3 4 4 5 22 6 21 7 17 8 16 9 20 10 18 11 19 12
REMARK SMILES IDX 2 13 1 14 7 16 14 18 10 19 9 20 8 21 11 23 12 24 13 25
REMARK H PARENT 2 15
REMARK Flexibility Score:   35.900
ROOT
ATOM      1  C   UNL     1       3.620  46.802  54.532  1.00  0.00     0.120 C 
ENDROOT
BRANCH   1   2
ATOM      2  N   UNL     1       3.986  46.888  53.128  1.00  0.00    -0.341 N 
BRANCH   2   3
ATOM      3  C   UNL     1       5.315  46.712  52.783  1.00  0.00     0.227 A 
ATOM      4  C   UNL     1       6.894  45.913  51.293  1.00  0.00     0.139 A 
ATOM      5  N   UNL     1       5.607  46.105  51.627  1.00  0.00    -0.195 NA
ATOM      6  C   UNL     1       7.943  46.306  52.136  1.00  0.00     0.043 A 
ATOM      7  C   UNL     1       9.325  46.104  51.880  1.00  0.00     0.014 A 
ATOM      8  C   UNL     1       7.545  46.935  53.315  1.00  0.00     0.078 A 
ATOM      9  N   UNL     1       6.263  47.137  53.630  1.00  0.00    -0.213 NA
ATOM     10  C   UNL     1      10.290  46.541  52.784  1.00  0.00     0.001 A 
ATOM     11  C   UNL     1       8.525  47.365  54.203  1.00  0.00     0.029 A 
ATOM     12  C   UNL     1       9.887  47.179  53.950  1.00  0.00     0.002 A 
BRANCH   4  13
ATOM     13  N   UNL     1       7.194  45.276  50.063  1.00  0.00    -0.372 N 
ATOM     14  C   UNL     1       6.738  43.897  49.977  1.00  0.00     0.141 C 
ATOM     15  H   UNL     1       6.809  45.843  49.313  1.00  0.00     0.161 HD
ENDBRANCH   4  13
ENDBRANCH   2   3
BRANCH   2  16
ATOM     16  C   UNL     1       2.979  46.912  52.083  1.00  0.00     0.119 CG0
ATOM     17  G   UNL     1       1.782  46.061  52.501  1.00  0.00     0.000 G0
ENDBRANCH   2  16
ENDBRANCH   1   2
BRANCH   1  18
ATOM     18  C   UNL     1       3.533  45.366  55.055  1.00  0.00     0.027 C 
BRANCH  18  19
ATOM     19  C   UNL     1       2.354  44.521  54.529  1.00  0.00     0.017 C 
BRANCH  19  20
ATOM     20  C   UNL     1       2.160  44.666  53.009  1.00  0.00     0.008 C 
BRANCH  20  21
ATOM     21  C   UNL     1       1.765  46.051  52.489  1.00  0.00     0.022 CG0
ATOM     22  G   UNL     1       2.954  46.918  52.081  1.00  0.00     0.000 G0
ENDBRANCH  20  21
ENDBRANCH  19  20
BRANCH  19  23
ATOM     23  C   UNL     1       1.047  44.728  55.307  1.00  0.00     0.163 C 
BRANCH  23  24
ATOM     24  O   UNL     1       1.365  45.081  56.656  1.00  0.00    -0.384 OA
ATOM     25  C   UNL     1       0.477  46.075  57.154  1.00  0.00     0.194 C 
ENDBRANCH  23  24
ENDBRANCH  19  23
ENDBRANCH  18  19
ENDBRANCH   1  18
TORSDOF 4
ENDMDL
MODEL 5
REMARK VINA RESULT:    -6.339      1.716      2.517
REMARK INTER + INTRA:         -10.195
REMARK INTER:                 -10.009
REMARK INTRA:                  -0.186
REMARK UNBOUND:                -0.151
REMARK SMILES CNc1nc(N2CCCC(COC)CC2)nc2ccccc12
REMARK SMILES IDX 15 1 6 2 5 3 3 4 4 5 22 6 21 7 17 8 16 9 20 10 18 11 19 12
REMARK SMILES IDX 2 13 1 14 7 16 14 18 10 19 9 20 8 21 11 23 12 24 13 25
REMARK H PARENT 2 15
REMARK Flexibility Score:   35.900
ROOT
ATOM      1  C   UNL     1       3.582  44.007  51.391  1.00  0.00     0.120 C 
ENDROOT
BRANCH   1   2
ATOM      2  N   UNL     1       4.030  45.384  51.518  1.00  0.00    -0.341 N 
BRANCH   2   3
ATOM      3  C   UNL     1       5.390  45.630  51.577  1.00  0.00     0.227 A 
ATOM      4  C   UNL     1       7.504  45.339  50.682  1.00  0.00     0.139 A 
ATOM      5  N   UNL     1       6.180  45.121  50.623  1.00  0.00    -0.195 NA
ATOM      6  C   UNL     1       8.088  46.061  51.732  1.00  0.00     0.043 A 
ATOM      7  C   UNL     1       9.479  46.300  51.893  1.00  0.00     0.014 A 
ATOM      8  C   UNL     1       7.189  46.557  52.676  1.00  0.00     0.078 A 
ATOM      9  N   UNL     1       5.873  46.350  52.599  1.00  0.00    -0.213 NA
ATOM     10  C   UNL     1       9.956  47.039  52.973  1.00  0.00     0.001 A 
ATOM     11  C   UNL     1       7.688  47.294  53.745  1.00  0.00     0.029 A 
ATOM     12  C   UNL     1       9.054  47.542  53.902  1.00  0.00     0.002 A 
BRANCH   4  13
ATOM     13  N   UNL     1       8.331  44.802  49.665  1.00  0.00    -0.372 N 
ATOM     14  C   UNL     1       7.974  43.454  49.251  1.00  0.00     0.141 C 
ATOM     15  H   UNL     1       8.322  45.447  48.879  1.00  0.00     0.161 HD
ENDBRANCH   4  13
ENDBRANCH   2   3
BRANCH   2  16
ATOM     16  C   UNL     1       3.114  46.497  51.346  1.00  0.00     0.119 CG0
ATOM     17  G   UNL     1       2.071  46.483  52.462  1.00  0.00     0.000 G0
ENDBRANCH   2  16
ENDBRANCH   1   2
BRANCH   1  18
ATOM     18  C   UNL     1       3.165  43.373  52.721  1.00  0.00     0.027 C 
BRANCH  18  19
ATOM     19  C   UNL     1       2.016  44.074  53.477  1.00  0.00     0.017 C 
BRANCH  19  20
ATOM     20  C   UNL     1       1.329  45.158  52.627  1.00  0.00     0.008 C 
BRANCH  20  21
ATOM     21  C   UNL     1       2.063  46.493  52.481  1.00  0.00     0.022 CG0
ATOM     22  G   UNL     1       3.100  46.506  51.360  1.00  0.00     0.000 G0
ENDBRANCH  20  21
ENDBRANCH  19  20
BRANCH  19  23
ATOM     23  C   UNL     1       2.412  44.586  54.869  1.00  0.00     0.163 C 
BRANCH  23  24
ATOM     24  O   UNL     1       1.258  44.567  55.713  1.00  0.00    -0.384 OA
ATOM     25  C   UNL     1       1.053  45.828  56.338  1.00  0.00     0.194 C 
ENDBRANCH  23  24
ENDBRANCH  19  23
ENDBRANCH  18  19
ENDBRANCH   1  18
TORSDOF 4
ENDMDL
MODEL 6
REMARK VINA RESULT:    -6.210      3.264      6.825
REMARK INTER + INTRA:          -9.992
REMARK INTER:                 -10.087
REMARK INTRA:                   0.095
REMARK UNBOUND:                -0.151
REMARK SMILES CNc1nc(N2CCCC(COC)CC2)nc2ccccc12
REMARK SMILES IDX 15 1 6 2 5 3 3 4 4 5 22 6 21 7 17 8 16 9 20 10 18 11 19 12
REMARK SMILES IDX 2 13 1 14 7 16 14 18 10 19 9 20 8 21 11 23 12 24 13 25
REMARK H PARENT 2 15
REMARK Flexibility Score:   35.900
ROOT
ATOM      1  C   UNL     1       7.786  47.511  51.464  1.00  0.00     0.120 C 
ENDROOT
BRANCH   1   2
ATOM      2  N   UNL     1       7.903  46.087  51.195  1.00  0.00    -0.341 N 
BRANCH   2   3
ATOM      3  C   UNL     1       6.749  45.324  51.179  1.00  0.00     0.227 A 
ATOM      4  C   UNL     1       4.521  45.075  51.753  1.00  0.00     0.139 A 
ATOM      5  N   UNL     1       5.642  45.817  51.748  1.00  0.00    -0.195 NA
ATOM      6  C   UNL     1       4.486  43.785  51.205  1.00  0.00     0.043 A 
ATOM      7  C   UNL     1       3.359  42.921  51.207  1.00  0.00     0.014 A 
ATOM      8  C   UNL     1       5.682  43.358  50.631  1.00  0.00     0.078 A 
ATOM      9  N   UNL     1       6.786  44.110  50.615  1.00  0.00    -0.213 NA
ATOM     10  C   UNL     1       3.429  41.657  50.627  1.00  0.00     0.001 A 
ATOM     11  C   UNL     1       5.729  42.093  50.055  1.00  0.00     0.029 A 
ATOM     12  C   UNL     1       4.620  41.242  50.044  1.00  0.00     0.002 A 
BRANCH   4  13
ATOM     13  N   UNL     1       3.352  45.607  52.351  1.00  0.00    -0.372 N 
ATOM     14  C   UNL     1       3.486  46.981  52.810  1.00  0.00     0.141 C 
ATOM     15  H   UNL     1       2.588  45.510  51.688  1.00  0.00     0.161 HD
ENDBRANCH   4  13
ENDBRANCH   2   3
BRANCH   2  16
ATOM     16  C   UNL     1       9.145  45.508  50.717  1.00  0.00     0.119 CG0
ATOM     17  G   UNL     1      10.287  45.888  51.657  1.00  0.00     0.000 G0
ENDBRANCH   2  16
ENDBRANCH   1   2
BRANCH   1  18
ATOM     18  C   UNL     1       8.039  47.880  52.929  1.00  0.00     0.027 C 
BRANCH  18  19
ATOM     19  C   UNL     1       9.438  47.540  53.483  1.00  0.00     0.017 C 
BRANCH  19  20
ATOM     20  C   UNL     1       9.890  46.117  53.106  1.00  0.00     0.008 C 
BRANCH  20  21
ATOM     21  C   UNL     1      10.312  45.886  51.653  1.00  0.00     0.022 CG0
ATOM     22  G   UNL     1       9.154  45.521  50.726  1.00  0.00     0.000 G0
ENDBRANCH  20  21
ENDBRANCH  19  20
BRANCH  19  23
ATOM     23  C   UNL     1       9.597  47.824  54.983  1.00  0.00     0.163 C 
BRANCH  23  24
ATOM     24  O   UNL     1      10.582  46.937  55.520  1.00  0.00    -0.384 OA
ATOM     25  C   UNL     1      11.344  47.567  56.542  1.00  0.00     0.194 C 
ENDBRANCH  23  24
ENDBRANCH  19  23
ENDBRANCH  18  19
ENDBRANCH   1  18
TORSDOF 4
ENDMDL
MODEL 7
REMARK VINA RESULT:    -5.922      3.066      6.592
REMARK INTER + INTRA:          -9.535
REMARK INTER:                  -9.659
REMARK INTRA:                   0.124
REMARK UNBOUND:                -0.151
REMARK SMILES CNc1nc(N2CCCC(COC)CC2)nc2ccccc12
REMARK SMILES IDX 15 1 6 2 5 3 3 4 4 5 22 6 21 7 17 8 16 9 20 10 18 11 19 12
REMARK SMILES IDX 2 13 1 14 7 16 14 18 10 19 9 20 8 21 11 23 12 24 13 25
REMARK H PARENT 2 15
REMARK Flexibility Score:   35.900
ROOT
ATOM      1  C   UNL     1       6.963  47.059  52.439  1.00  0.00     0.120 C 
ENDROOT
BRANCH   1   2
ATOM      2  N   UNL     1       7.044  45.916  51.545  1.00  0.00    -0.341 N 
BRANCH   2   3
ATOM      3  C   UNL     1       5.948  45.077  51.450  1.00  0.00     0.227 A 
ATOM      4  C   UNL     1       5.070  43.006  50.908  1.00  0.00     0.139 A 
ATOM      5  N   UNL     1       6.131  43.822  51.021  1.00  0.00    -0.195 NA
ATOM      6  C   UNL     1       3.769  43.439  51.201  1.00  0.00     0.043 A 
ATOM      7  C   UNL     1       2.592  42.657  51.069  1.00  0.00     0.014 A 
ATOM      8  C   UNL     1       3.675  44.758  51.646  1.00  0.00     0.078 A 
ATOM      9  N   UNL     1       4.738  45.556  51.771  1.00  0.00    -0.213 NA
ATOM     10  C   UNL     1       1.344  43.185  51.395  1.00  0.00     0.001 A 
ATOM     11  C   UNL     1       2.420  45.263  51.967  1.00  0.00     0.029 A 
ATOM     12  C   UNL     1       1.259  44.494  51.850  1.00  0.00     0.002 A 
BRANCH   4  13
ATOM     13  N   UNL     1       5.273  41.677  50.460  1.00  0.00    -0.372 N 
ATOM     14  C   UNL     1       5.717  41.573  49.078  1.00  0.00     0.141 C 
ATOM     15  H   UNL     1       5.928  41.228  51.095  1.00  0.00     0.161 HD
ENDBRANCH   4  13
ENDBRANCH   2   3
BRANCH   2  16
ATOM     16  C   UNL     1       8.130  45.776  50.592  1.00  0.00     0.119 CG0
ATOM     17  G   UNL     1       9.399  45.335  51.318  1.00  0.00     0.000 G0
ENDBRANCH   2  16
ENDBRANCH   1   2
BRANCH   1  18
ATOM     18  C   UNL     1       8.183  47.982  52.365  1.00  0.00     0.027 C 
BRANCH  18  19
ATOM     19  C   UNL     1       9.505  47.406  52.917  1.00  0.00     0.017 C 
BRANCH  19  20
ATOM     20  C   UNL     1      10.221  46.500  51.899  1.00  0.00     0.008 C 
BRANCH  20  21
ATOM     21  C   UNL     1       9.410  45.345  51.308  1.00  0.00     0.022 CG0
ATOM     22  G   UNL     1       8.135  45.790  50.594  1.00  0.00     0.000 G0
ENDBRANCH  20  21
ENDBRANCH  19  20
BRANCH  19  23
ATOM     23  C   UNL     1       9.364  46.742  54.293  1.00  0.00     0.163 C 
BRANCH  23  24
ATOM     24  O   UNL     1       9.469  47.748  55.304  1.00  0.00    -0.384 OA
ATOM     25  C   UNL     1      10.657  47.592  56.069  1.00  0.00     0.194 C 
ENDBRANCH  23  24
ENDBRANCH  19  23
ENDBRANCH  18  19
ENDBRANCH   1  18
TORSDOF 4
ENDMDL
MODEL 8
REMARK VINA RESULT:    -5.912      1.921      2.661
REMARK INTER + INTRA:          -9.519
REMARK INTER:                  -9.789
REMARK INTRA:                   0.270
REMARK UNBOUND:                -0.151
REMARK SMILES CNc1nc(N2CCCC(COC)CC2)nc2ccccc12
REMARK SMILES IDX 15 1 6 2 5 3 3 4 4 5 22 6 21 7 17 8 16 9 20 10 18 11 19 12
REMARK SMILES IDX 2 13 1 14 7 16 14 18 10 19 9 20 8 21 11 23 12 24 13 25
REMARK H PARENT 2 15
REMARK Flexibility Score:   35.900
ROOT
ATOM      1  C   UNL     1       3.345  46.464  52.035  1.00  0.00     0.120 C 
ENDROOT
BRANCH   1   2
ATOM      2  N   UNL     1       4.295  45.501  51.503  1.00  0.00    -0.341 N 
BRANCH   2   3
ATOM      3  C   UNL     1       5.646  45.748  51.673  1.00  0.00     0.227 A 
ATOM      4  C   UNL     1       7.820  45.511  50.919  1.00  0.00     0.139 A 
ATOM      5  N   UNL     1       6.506  45.292  50.754  1.00  0.00    -0.195 NA
ATOM      6  C   UNL     1       8.323  46.180  52.044  1.00  0.00     0.043 A 
ATOM      7  C   UNL     1       9.696  46.416  52.316  1.00  0.00     0.014 A 
ATOM      8  C   UNL     1       7.354  46.625  52.944  1.00  0.00     0.078 A 
ATOM      9  N   UNL     1       6.048  46.417  52.761  1.00  0.00    -0.213 NA
ATOM     10  C   UNL     1      10.088  47.101  53.464  1.00  0.00     0.001 A 
ATOM     11  C   UNL     1       7.769  47.308  54.082  1.00  0.00     0.029 A 
ATOM     12  C   UNL     1       9.119  47.552  54.350  1.00  0.00     0.002 A 
BRANCH   4  13
ATOM     13  N   UNL     1       8.723  45.030  49.938  1.00  0.00    -0.372 N 
ATOM     14  C   UNL     1       8.212  43.922  49.146  1.00  0.00     0.141 C 
ATOM     15  H   UNL     1       8.995  45.813  49.350  1.00  0.00     0.161 HD
ENDBRANCH   4  13
ENDBRANCH   2   3
BRANCH   2  16
ATOM     16  C   UNL     1       3.865  44.200  51.023  1.00  0.00     0.119 CG0
ATOM     17  G   UNL     1       3.734  43.235  52.199  1.00  0.00     0.000 G0
ENDBRANCH   2  16
ENDBRANCH   1   2
BRANCH   1  18
ATOM     18  C   UNL     1       2.016  45.838  52.467  1.00  0.00     0.027 C 
BRANCH  18  19
ATOM     19  C   UNL     1       2.100  44.748  53.556  1.00  0.00     0.017 C 
BRANCH  19  20
ATOM     20  C   UNL     1       2.414  43.358  52.973  1.00  0.00     0.008 C 
BRANCH  20  21
ATOM     21  C   UNL     1       3.724  43.211  52.195  1.00  0.00     0.022 CG0
ATOM     22  G   UNL     1       3.871  44.204  51.044  1.00  0.00     0.000 G0
ENDBRANCH  20  21
ENDBRANCH  19  20
BRANCH  19  23
ATOM     23  C   UNL     1       0.894  44.725  54.505  1.00  0.00     0.163 C 
BRANCH  23  24
ATOM     24  O   UNL     1       1.072  45.734  55.502  1.00  0.00    -0.384 OA
ATOM     25  C   UNL     1       0.664  45.272  56.784  1.00  0.00     0.194 C 
ENDBRANCH  23  24
ENDBRANCH  19  23
ENDBRANCH  18  19
ENDBRANCH   1  18
TORSDOF 4
ENDMDL
MODEL 9
REMARK VINA RESULT:    -5.830      2.835      6.534
REMARK INTER + INTRA:          -9.390
REMARK INTER:                  -9.874
REMARK INTRA:                   0.484
REMARK UNBOUND:                -0.151
REMARK SMILES CNc1nc(N2CCCC(COC)CC2)nc2ccccc12
REMARK SMILES IDX 15 1 6 2 5 3 3 4 4 5 22 6 21 7 17 8 16 9 20 10 18 11 19 12
REMARK SMILES IDX 2 13 1 14 7 16 14 18 10 19 9 20 8 21 11 23 12 24 13 25
REMARK H PARENT 2 15
REMARK Flexibility Score:   35.900
ROOT
ATOM      1  C   UNL     1       6.873  45.604  53.588  1.00  0.00     0.120 C 
ENDROOT
BRANCH   1   2
ATOM      2  N   UNL     1       6.134  45.130  52.430  1.00  0.00    -0.341 N 
BRANCH   2   3
ATOM      3  C   UNL     1       4.885  44.570  52.631  1.00  0.00     0.227 A 
ATOM      4  C   UNL     1       3.289  43.004  52.038  1.00  0.00     0.139 A 
ATOM      5  N   UNL     1       4.507  43.542  51.862  1.00  0.00    -0.195 NA
ATOM      6  C   UNL     1       2.388  43.508  52.987  1.00  0.00     0.043 A 
ATOM      7  C   UNL     1       1.070  43.027  53.207  1.00  0.00     0.014 A 
ATOM      8  C   UNL     1       2.869  44.574  53.745  1.00  0.00     0.078 A 
ATOM      9  N   UNL     1       4.089  45.091  53.575  1.00  0.00    -0.213 NA
ATOM     10  C   UNL     1       0.257  43.597  54.185  1.00  0.00     0.001 A 
ATOM     11  C   UNL     1       2.041  45.126  54.717  1.00  0.00     0.029 A 
ATOM     12  C   UNL     1       0.747  44.650  54.946  1.00  0.00     0.002 A 
BRANCH   4  13
ATOM     13  N   UNL     1       2.899  41.912  51.224  1.00  0.00    -0.372 N 
ATOM     14  C   UNL     1       3.979  41.335  50.438  1.00  0.00     0.141 C 
ATOM     15  H   UNL     1       2.461  41.215  51.821  1.00  0.00     0.161 HD
ENDBRANCH   4  13
ENDBRANCH   2   3
BRANCH   2  16
ATOM     16  C   UNL     1       6.563  45.443  51.079  1.00  0.00     0.119 CG0
ATOM     17  G   UNL     1       8.031  45.863  51.088  1.00  0.00     0.000 G0
ENDBRANCH   2  16
ENDBRANCH   1   2
BRANCH   1  18
ATOM     18  C   UNL     1       7.004  47.129  53.649  1.00  0.00     0.027 C 
BRANCH  18  19
ATOM     19  C   UNL     1       8.218  47.737  52.916  1.00  0.00     0.017 C 
BRANCH  19  20
ATOM     20  C   UNL     1       8.258  47.351  51.426  1.00  0.00     0.008 C 
BRANCH  20  21
ATOM     21  C   UNL     1       8.044  45.874  51.086  1.00  0.00     0.022 CG0
ATOM     22  G   UNL     1       6.575  45.456  51.059  1.00  0.00     0.000 G0
ENDBRANCH  20  21
ENDBRANCH  19  20
BRANCH  19  23
ATOM     23  C   UNL     1       9.558  47.483  53.621  1.00  0.00     0.163 C 
BRANCH  23  24
ATOM     24  O   UNL     1       9.443  47.886  54.989  1.00  0.00    -0.384 OA
ATOM     25  C   UNL     1      10.614  47.556  55.726  1.00  0.00     0.194 C 
ENDBRANCH  23  24
ENDBRANCH  19  23
ENDBRANCH  18  19
ENDBRANCH   1  18
TORSDOF 4
ENDMDL
MODEL 10
REMARK VINA RESULT:    -5.749      1.972      3.807
REMARK INTER + INTRA:          -9.261
REMARK INTER:                  -9.352
REMARK INTRA:                   0.091
REMARK UNBOUND:                -0.151
REMARK SMILES CNc1nc(N2CCCC(COC)CC2)nc2ccccc12
REMARK SMILES IDX 15 1 6 2 5 3 3 4 4 5 22 6 21 7 17 8 16 9 20 10 18 11 19 12
REMARK SMILES IDX 2 13 1 14 7 16 14 18 10 19 9 20 8 21 11 23 12 24 13 25
REMARK H PARENT 2 15
REMARK Flexibility Score:   35.900
ROOT
ATOM      1  C   UNL     1       3.820  46.672  54.150  1.00  0.00     0.120 C 
ENDROOT
BRANCH   1   2
ATOM      2  N   UNL     1       3.848  46.597  52.698  1.00  0.00    -0.341 N 
BRANCH   2   3
ATOM      3  C   UNL     1       5.010  46.163  52.085  1.00  0.00     0.227 A 
ATOM      4  C   UNL     1       7.270  46.447  51.680  1.00  0.00     0.139 A 
ATOM      5  N   UNL     1       6.141  46.850  52.286  1.00  0.00    -0.195 NA
ATOM      6  C   UNL     1       7.292  45.341  50.818  1.00  0.00     0.043 A 
ATOM      7  C   UNL     1       8.429  44.874  50.107  1.00  0.00     0.014 A 
ATOM      8  C   UNL     1       6.071  44.684  50.675  1.00  0.00     0.078 A 
ATOM      9  N   UNL     1       4.958  45.082  51.295  1.00  0.00    -0.213 NA
ATOM     10  C   UNL     1       8.344  43.756  49.280  1.00  0.00     0.001 A 
ATOM     11  C   UNL     1       6.010  43.569  49.845  1.00  0.00     0.029 A 
ATOM     12  C   UNL     1       7.128  43.099  49.151  1.00  0.00     0.002 A 
BRANCH   4  13
ATOM     13  N   UNL     1       8.465  47.176  51.902  1.00  0.00    -0.372 N 
ATOM     14  C   UNL     1       8.684  47.557  53.289  1.00  0.00     0.141 C 
ATOM     15  H   UNL     1       9.240  46.627  51.541  1.00  0.00     0.161 HD
ENDBRANCH   4  13
ENDBRANCH   2   3
BRANCH   2  16
ATOM     16  C   UNL     1       2.637  46.734  51.910  1.00  0.00     0.119 CG0
ATOM     17  G   UNL     1       1.505  45.944  52.562  1.00  0.00     0.000 G0
ENDBRANCH   2  16
ENDBRANCH   1   2
BRANCH   1  18
ATOM     18  C   UNL     1       3.692  45.306  54.830  1.00  0.00     0.027 C 
BRANCH  18  19
ATOM     19  C   UNL     1       2.369  44.548  54.589  1.00  0.00     0.017 C 
BRANCH  19  20
ATOM     20  C   UNL     1       1.925  44.595  53.116  1.00  0.00     0.008 C 
BRANCH  20  21
ATOM     21  C   UNL     1       1.491  45.956  52.566  1.00  0.00     0.022 CG0
ATOM     22  G   UNL     1       2.620  46.740  51.902  1.00  0.00     0.000 G0
ENDBRANCH  20  21
ENDBRANCH  19  20
BRANCH  19  23
ATOM     23  C   UNL     1       1.242  44.948  55.552  1.00  0.00     0.163 C 
BRANCH  23  24
ATOM     24  O   UNL     1       1.817  45.582  56.698  1.00  0.00    -0.384 OA
ATOM     25  C   UNL     1       0.842  46.316  57.428  1.00  0.00     0.194 C 
ENDBRANCH  23  24
ENDBRANCH  19  23
ENDBRANCH  18  19
ENDBRANCH   1  18
TORSDOF 4
ENDMDL
