MODEL 1
REMARK VINA RESULT:    -9.643      0.000      0.000
REMARK INTER + INTRA:         -14.801
REMARK INTER:                 -13.871
REMARK INTRA:                  -0.931
REMARK UNBOUND:                -0.931
REMARK SMILES Cc1ccc(-c2noc(C[NH+]3CC[NH+](C(C)c4nc(N)nc(Nc5ccccc5)n4)CC3)n2)cc1
REMARK SMILES IDX 11 1 12 2 13 3 14 4 31 5 32 6 10 9 9 10 6 11 7 12 33 13 8 14
REMARK SMILES IDX 5 15 2 16 3 17 35 18 4 19 34 20 1 21 15 22 16 23 17 24 18 25
REMARK SMILES IDX 30 26 19 27 22 28 21 29 20 30 23 33 24 35 25 36 29 37 26 38
REMARK SMILES IDX 28 39 27 40
REMARK H PARENT 11 7 14 8 20 31 20 32 23 34
ROOT
ATOM      1  N   UNL     1      -0.462  43.951  52.788  1.00  0.00    -0.318 N 
ATOM      2  C   UNL     1       0.329  42.727  52.300  1.00  0.00     0.325 C 
ATOM      3  C   UNL     1       1.362  43.149  51.220  1.00  0.00     0.325 C 
ATOM      4  N   UNL     1       2.411  44.127  51.787  1.00  0.00    -0.317 N 
ATOM      5  C   UNL     1       1.860  45.023  52.907  1.00  0.00     0.325 C 
ATOM      6  C   UNL     1       0.336  45.264  52.733  1.00  0.00     0.325 C 
ATOM      7  H   UNL     1      -1.248  44.067  52.128  1.00  0.00     0.348 HD
ATOM      8  H   UNL     1       2.672  44.751  51.008  1.00  0.00     0.349 HD
ENDROOT
BRANCH   1   9
ATOM      9  C   UNL     1      -1.182  43.691  54.140  1.00  0.00     0.364 C 
BRANCH   9  10
ATOM     10  C   UNL     1      -0.828  44.614  55.249  1.00  0.00     0.282 A 
ATOM     11  C   UNL     1      -0.667  45.980  56.838  1.00  0.00     0.202 A 
ATOM     12  N   UNL     1       0.397  45.174  56.985  1.00  0.00    -0.057 NA
ATOM     13  N   UNL     1      -1.510  45.586  55.808  1.00  0.00    -0.186 NA
ATOM     14  O   UNL     1       0.328  44.321  55.901  1.00  0.00    -0.333 OA
BRANCH  11  15
ATOM     15  C   UNL     1      -0.926  47.118  57.704  1.00  0.00     0.023 A 
ATOM     16  C   UNL     1      -1.468  49.276  59.433  1.00  0.00    -0.051 A 
ATOM     17  C   UNL     1      -0.354  48.457  59.647  1.00  0.00     0.004 A 
ATOM     18  C   UNL     1      -2.324  48.993  58.365  1.00  0.00     0.004 A 
ATOM     19  C   UNL     1      -0.076  47.392  58.781  1.00  0.00     0.012 A 
ATOM     20  C   UNL     1      -2.056  47.923  57.506  1.00  0.00     0.012 A 
ATOM     21  C   UNL     1      -1.788  50.402  60.374  1.00  0.00     0.044 C 
ENDBRANCH  11  15
ENDBRANCH   9  10
ENDBRANCH   1   9
BRANCH   4  22
ATOM     22  C   UNL     1       3.780  43.455  52.203  1.00  0.00     0.250 C 
ATOM     23  C   UNL     1       4.249  44.118  53.502  1.00  0.00     0.084 C 
BRANCH  22  24
ATOM     24  C   UNL     1       4.862  43.476  51.126  1.00  0.00     0.193 A 
ATOM     25  N   UNL     1       4.933  42.405  50.333  1.00  0.00    -0.191 NA
ATOM     26  N   UNL     1       5.774  44.444  51.172  1.00  0.00    -0.191 NA
ATOM     27  C   UNL     1       5.975  42.370  49.522  1.00  0.00     0.225 A 
ATOM     28  C   UNL     1       6.769  44.342  50.285  1.00  0.00     0.232 A 
ATOM     29  N   UNL     1       6.916  43.286  49.490  1.00  0.00    -0.177 NA
BRANCH  27  30
ATOM     30  N   UNL     1       6.109  41.267  48.703  1.00  0.00    -0.368 N 
ATOM     31  H   UNL     1       5.197  40.860  48.528  1.00  0.00     0.159 HD
ATOM     32  H   UNL     1       6.557  41.570  47.840  1.00  0.00     0.159 HD
ENDBRANCH  27  30
BRANCH  28  33
ATOM     33  N   UNL     1       7.647  45.417  50.205  1.00  0.00    -0.324 N 
ATOM     34  H   UNL     1       7.988  45.575  49.265  1.00  0.00     0.170 HD
BRANCH  33  35
ATOM     35  C   UNL     1       8.306  46.140  51.212  1.00  0.00     0.041 A 
ATOM     36  C   UNL     1       7.698  47.176  51.934  1.00  0.00     0.026 A 
ATOM     37  C   UNL     1       9.619  45.781  51.557  1.00  0.00     0.026 A 
ATOM     38  C   UNL     1       8.386  47.856  52.946  1.00  0.00     0.002 A 
ATOM     39  C   UNL     1      10.305  46.450  52.576  1.00  0.00     0.002 A 
ATOM     40  C   UNL     1       9.687  47.486  53.270  1.00  0.00     0.000 A 
ENDBRANCH  33  35
ENDBRANCH  28  33
ENDBRANCH  22  24
ENDBRANCH   4  22
TORSDOF 8
ENDMDL
MODEL 2
REMARK VINA RESULT:    -9.428      1.877      2.755
REMARK INTER + INTRA:         -14.492
REMARK INTER:                 -13.591
REMARK INTRA:                  -0.901
REMARK UNBOUND:                -0.931
REMARK SMILES Cc1ccc(-c2noc(C[NH+]3CC[NH+](C(C)c4nc(N)nc(Nc5ccccc5)n4)CC3)n2)cc1
REMARK SMILES IDX 11 1 12 2 13 3 14 4 31 5 32 6 10 9 9 10 6 11 7 12 33 13 8 14
REMARK SMILES IDX 5 15 2 16 3 17 35 18 4 19 34 20 1 21 15 22 16 23 17 24 18 25
REMARK SMILES IDX 30 26 19 27 22 28 21 29 20 30 23 33 24 35 25 36 29 37 26 38
REMARK SMILES IDX 28 39 27 40
REMARK H PARENT 11 7 14 8 20 31 20 32 23 34
ROOT
ATOM      1  N   UNL     1      -0.991  43.857  52.555  1.00  0.00    -0.318 N 
ATOM      2  C   UNL     1      -0.064  42.806  51.924  1.00  0.00     0.325 C 
ATOM      3  C   UNL     1       0.644  43.395  50.673  1.00  0.00     0.325 C 
ATOM      4  N   UNL     1       1.550  44.588  51.040  1.00  0.00    -0.317 N 
ATOM      5  C   UNL     1       1.037  45.389  52.247  1.00  0.00     0.325 C 
ATOM      6  C   UNL     1      -0.510  45.304  52.359  1.00  0.00     0.325 C 
ATOM      7  H   UNL     1      -1.891  43.785  52.053  1.00  0.00     0.348 HD
ATOM      8  H   UNL     1       1.529  45.225  50.229  1.00  0.00     0.349 HD
ENDROOT
BRANCH   1   9
ATOM      9  C   UNL     1      -1.382  43.501  54.016  1.00  0.00     0.364 C 
BRANCH   9  10
ATOM     10  C   UNL     1      -0.954  44.472  55.055  1.00  0.00     0.282 A 
ATOM     11  C   UNL     1      -0.679  45.848  56.620  1.00  0.00     0.202 A 
ATOM     12  N   UNL     1       0.509  45.231  56.510  1.00  0.00    -0.057 NA
ATOM     13  N   UNL     1      -1.648  45.319  55.779  1.00  0.00    -0.186 NA
ATOM     14  O   UNL     1       0.348  44.376  55.438  1.00  0.00    -0.333 OA
BRANCH  11  15
ATOM     15  C   UNL     1      -0.927  46.930  57.558  1.00  0.00     0.023 A 
ATOM     16  C   UNL     1      -1.371  49.078  59.326  1.00  0.00    -0.051 A 
ATOM     17  C   UNL     1      -2.262  48.826  58.278  1.00  0.00     0.004 A 
ATOM     18  C   UNL     1      -0.243  48.265  59.470  1.00  0.00     0.004 A 
ATOM     19  C   UNL     1      -2.049  47.751  57.406  1.00  0.00     0.012 A 
ATOM     20  C   UNL     1      -0.021  47.199  58.593  1.00  0.00     0.012 A 
ATOM     21  C   UNL     1      -1.577  50.246  60.248  1.00  0.00     0.044 C 
ENDBRANCH  11  15
ENDBRANCH   9  10
ENDBRANCH   1   9
BRANCH   4  22
ATOM     22  C   UNL     1       3.082  44.229  51.192  1.00  0.00     0.250 C 
ATOM     23  C   UNL     1       3.202  42.702  51.209  1.00  0.00     0.084 C 
BRANCH  22  24
ATOM     24  C   UNL     1       3.779  44.872  52.388  1.00  0.00     0.193 A 
ATOM     25  N   UNL     1       3.310  44.549  53.595  1.00  0.00    -0.191 NA
ATOM     26  N   UNL     1       4.656  45.846  52.154  1.00  0.00    -0.191 NA
ATOM     27  C   UNL     1       3.815  45.239  54.601  1.00  0.00     0.225 A 
ATOM     28  C   UNL     1       5.140  46.459  53.238  1.00  0.00     0.232 A 
ATOM     29  N   UNL     1       4.692  46.208  54.465  1.00  0.00    -0.177 NA
BRANCH  27  30
ATOM     30  N   UNL     1       3.340  44.963  55.867  1.00  0.00    -0.368 N 
ATOM     31  H   UNL     1       4.077  45.114  56.548  1.00  0.00     0.159 HD
ATOM     32  H   UNL     1       2.539  45.566  56.041  1.00  0.00     0.159 HD
ENDBRANCH  27  30
BRANCH  28  33
ATOM     33  N   UNL     1       6.171  47.370  53.033  1.00  0.00    -0.324 N 
ATOM     34  H   UNL     1       5.837  48.278  52.738  1.00  0.00     0.170 HD
BRANCH  33  35
ATOM     35  C   UNL     1       7.558  47.177  52.935  1.00  0.00     0.041 A 
ATOM     36  C   UNL     1       8.431  47.330  54.019  1.00  0.00     0.026 A 
ATOM     37  C   UNL     1       8.099  46.759  51.708  1.00  0.00     0.026 A 
ATOM     38  C   UNL     1       9.806  47.106  53.881  1.00  0.00     0.002 A 
ATOM     39  C   UNL     1       9.471  46.523  51.570  1.00  0.00     0.002 A 
ATOM     40  C   UNL     1      10.323  46.695  52.657  1.00  0.00     0.000 A 
ENDBRANCH  33  35
ENDBRANCH  28  33
ENDBRANCH  22  24
ENDBRANCH   4  22
TORSDOF 8
ENDMDL
MODEL 3
REMARK VINA RESULT:    -9.391      2.757      7.258
REMARK INTER + INTRA:         -14.439
REMARK INTER:                 -12.534
REMARK INTRA:                  -1.905
REMARK UNBOUND:                -0.931
REMARK SMILES Cc1ccc(-c2noc(C[NH+]3CC[NH+](C(C)c4nc(N)nc(Nc5ccccc5)n4)CC3)n2)cc1
REMARK SMILES IDX 11 1 12 2 13 3 14 4 31 5 32 6 10 9 9 10 6 11 7 12 33 13 8 14
REMARK SMILES IDX 5 15 2 16 3 17 35 18 4 19 34 20 1 21 15 22 16 23 17 24 18 25
REMARK SMILES IDX 30 26 19 27 22 28 21 29 20 30 23 33 24 35 25 36 29 37 26 38
REMARK SMILES IDX 28 39 27 40
REMARK H PARENT 11 7 14 8 20 31 20 32 23 34
ROOT
ATOM      1  N   UNL     1       0.010  43.585  52.670  1.00  0.00    -0.318 N 
ATOM      2  C   UNL     1      -0.277  44.892  53.428  1.00  0.00     0.325 C 
ATOM      3  C   UNL     1      -0.244  44.643  54.961  1.00  0.00     0.325 C 
ATOM      4  N   UNL     1       1.150  44.182  55.434  1.00  0.00    -0.317 N 
ATOM      5  C   UNL     1       1.912  43.374  54.372  1.00  0.00     0.325 C 
ATOM      6  C   UNL     1       0.932  42.619  53.432  1.00  0.00     0.325 C 
ATOM      7  H   UNL     1      -0.897  43.101  52.578  1.00  0.00     0.348 HD
ATOM      8  H   UNL     1       0.987  43.547  56.231  1.00  0.00     0.349 HD
ENDROOT
BRANCH   1   9
ATOM      9  C   UNL     1       0.420  43.836  51.192  1.00  0.00     0.364 C 
BRANCH   9  10
ATOM     10  C   UNL     1       1.818  43.481  50.840  1.00  0.00     0.282 A 
ATOM     11  C   UNL     1       3.884  43.257  50.525  1.00  0.00     0.202 A 
ATOM     12  N   UNL     1       3.400  42.007  50.442  1.00  0.00    -0.057 NA
ATOM     13  N   UNL     1       2.920  44.193  50.873  1.00  0.00    -0.186 NA
ATOM     14  O   UNL     1       2.035  42.164  50.580  1.00  0.00    -0.333 OA
BRANCH  11  15
ATOM     15  C   UNL     1       5.285  43.581  50.314  1.00  0.00     0.023 A 
ATOM     16  C   UNL     1       7.981  44.246  49.836  1.00  0.00    -0.051 A 
ATOM     17  C   UNL     1       7.130  45.150  50.480  1.00  0.00     0.004 A 
ATOM     18  C   UNL     1       7.469  43.017  49.409  1.00  0.00     0.004 A 
ATOM     19  C   UNL     1       5.793  44.816  50.729  1.00  0.00     0.012 A 
ATOM     20  C   UNL     1       6.132  42.686  49.646  1.00  0.00     0.012 A 
ATOM     21  C   UNL     1       9.408  44.608  49.539  1.00  0.00     0.044 C 
ENDBRANCH  11  15
ENDBRANCH   9  10
ENDBRANCH   1   9
BRANCH   4  22
ATOM     22  C   UNL     1       2.049  45.328  56.045  1.00  0.00     0.250 C 
ATOM     23  C   UNL     1       1.126  46.293  56.796  1.00  0.00     0.084 C 
BRANCH  22  24
ATOM     24  C   UNL     1       2.942  46.052  55.041  1.00  0.00     0.193 A 
ATOM     25  N   UNL     1       2.367  46.431  53.898  1.00  0.00    -0.191 NA
ATOM     26  N   UNL     1       4.252  46.080  55.273  1.00  0.00    -0.191 NA
ATOM     27  C   UNL     1       3.190  46.904  52.980  1.00  0.00     0.225 A 
ATOM     28  C   UNL     1       4.998  46.614  54.302  1.00  0.00     0.232 A 
ATOM     29  N   UNL     1       4.493  46.980  53.127  1.00  0.00    -0.177 NA
BRANCH  27  30
ATOM     30  N   UNL     1       2.647  47.282  51.769  1.00  0.00    -0.368 N 
ATOM     31  H   UNL     1       2.033  48.077  51.905  1.00  0.00     0.159 HD
ATOM     32  H   UNL     1       3.413  47.502  51.136  1.00  0.00     0.159 HD
ENDBRANCH  27  30
BRANCH  28  33
ATOM     33  N   UNL     1       6.348  46.800  54.581  1.00  0.00    -0.324 N 
ATOM     34  H   UNL     1       6.518  47.045  55.548  1.00  0.00     0.170 HD
BRANCH  33  35
ATOM     35  C   UNL     1       7.451  46.940  53.723  1.00  0.00     0.041 A 
ATOM     36  C   UNL     1       7.518  47.909  52.713  1.00  0.00     0.026 A 
ATOM     37  C   UNL     1       8.568  46.110  53.913  1.00  0.00     0.026 A 
ATOM     38  C   UNL     1       8.648  48.027  51.894  1.00  0.00     0.002 A 
ATOM     39  C   UNL     1       9.703  46.234  53.105  1.00  0.00     0.002 A 
ATOM     40  C   UNL     1       9.742  47.193  52.098  1.00  0.00     0.000 A 
ENDBRANCH  33  35
ENDBRANCH  28  33
ENDBRANCH  22  24
ENDBRANCH   4  22
TORSDOF 8
ENDMDL
MODEL 4
REMARK VINA RESULT:    -9.309      3.094      7.728
REMARK INTER + INTRA:         -14.322
REMARK INTER:                 -11.709
REMARK INTRA:                  -2.613
REMARK UNBOUND:                -0.931
REMARK SMILES Cc1ccc(-c2noc(C[NH+]3CC[NH+](C(C)c4nc(N)nc(Nc5ccccc5)n4)CC3)n2)cc1
REMARK SMILES IDX 11 1 12 2 13 3 14 4 31 5 32 6 10 9 9 10 6 11 7 12 33 13 8 14
REMARK SMILES IDX 5 15 2 16 3 17 35 18 4 19 34 20 1 21 15 22 16 23 17 24 18 25
REMARK SMILES IDX 30 26 19 27 22 28 21 29 20 30 23 33 24 35 25 36 29 37 26 38
REMARK SMILES IDX 28 39 27 40
REMARK H PARENT 11 7 14 8 20 31 20 32 23 34
ROOT
ATOM      1  N   UNL     1      -2.106  44.472  52.008  1.00  0.00    -0.318 N 
ATOM      2  C   UNL     1      -1.211  45.143  53.063  1.00  0.00     0.325 C 
ATOM      3  C   UNL     1      -2.071  45.653  54.252  1.00  0.00     0.325 C 
ATOM      4  N   UNL     1      -2.782  44.493  54.980  1.00  0.00    -0.317 N 
ATOM      5  C   UNL     1      -3.131  43.320  54.052  1.00  0.00     0.325 C 
ATOM      6  C   UNL     1      -3.361  43.807  52.595  1.00  0.00     0.325 C 
ATOM      7  H   UNL     1      -2.445  45.230  51.395  1.00  0.00     0.348 HD
ATOM      8  H   UNL     1      -3.675  44.876  55.326  1.00  0.00     0.349 HD
ENDROOT
BRANCH   1   9
ATOM      9  C   UNL     1      -1.298  43.572  51.032  1.00  0.00     0.364 C 
BRANCH   9  10
ATOM     10  C   UNL     1       0.167  43.512  51.270  1.00  0.00     0.282 A 
ATOM     11  C   UNL     1       2.242  43.754  51.497  1.00  0.00     0.202 A 
ATOM     12  N   UNL     1       1.916  42.820  52.406  1.00  0.00    -0.057 NA
ATOM     13  N   UNL     1       1.140  44.277  50.836  1.00  0.00    -0.186 NA
ATOM     14  O   UNL     1       0.566  42.613  52.209  1.00  0.00    -0.333 OA
BRANCH  11  15
ATOM     15  C   UNL     1       3.607  44.196  51.269  1.00  0.00     0.023 A 
ATOM     16  C   UNL     1       6.241  45.051  50.746  1.00  0.00    -0.051 A 
ATOM     17  C   UNL     1       5.190  45.973  50.787  1.00  0.00     0.004 A 
ATOM     18  C   UNL     1       5.963  43.695  50.942  1.00  0.00     0.004 A 
ATOM     19  C   UNL     1       3.883  45.552  51.060  1.00  0.00     0.012 A 
ATOM     20  C   UNL     1       4.656  43.270  51.202  1.00  0.00     0.012 A 
ATOM     21  C   UNL     1       7.641  45.491  50.426  1.00  0.00     0.044 C 
ENDBRANCH  11  15
ENDBRANCH   9  10
ENDBRANCH   1   9
BRANCH   4  22
ATOM     22  C   UNL     1      -2.055  43.998  56.293  1.00  0.00     0.250 C 
ATOM     23  C   UNL     1      -3.007  44.233  57.470  1.00  0.00     0.084 C 
BRANCH  22  24
ATOM     24  C   UNL     1      -0.678  44.610  56.538  1.00  0.00     0.193 A 
ATOM     25  N   UNL     1      -0.601  45.538  57.493  1.00  0.00    -0.191 NA
ATOM     26  N   UNL     1       0.294  44.337  55.670  1.00  0.00    -0.191 NA
ATOM     27  C   UNL     1       0.555  46.171  57.576  1.00  0.00     0.225 A 
ATOM     28  C   UNL     1       1.439  44.998  55.859  1.00  0.00     0.232 A 
ATOM     29  N   UNL     1       1.572  45.957  56.771  1.00  0.00    -0.177 NA
BRANCH  27  30
ATOM     30  N   UNL     1       0.675  47.161  58.530  1.00  0.00    -0.368 N 
ATOM     31  H   UNL     1       1.566  47.633  58.420  1.00  0.00     0.159 HD
ATOM     32  H   UNL     1      -0.107  47.803  58.416  1.00  0.00     0.159 HD
ENDBRANCH  27  30
BRANCH  28  33
ATOM     33  N   UNL     1       2.518  44.619  55.068  1.00  0.00    -0.324 N 
ATOM     34  H   UNL     1       2.497  43.639  54.821  1.00  0.00     0.170 HD
BRANCH  33  35
ATOM     35  C   UNL     1       3.715  45.289  54.769  1.00  0.00     0.041 A 
ATOM     36  C   UNL     1       3.784  46.669  54.536  1.00  0.00     0.026 A 
ATOM     37  C   UNL     1       4.915  44.558  54.753  1.00  0.00     0.026 A 
ATOM     38  C   UNL     1       5.004  47.299  54.263  1.00  0.00     0.002 A 
ATOM     39  C   UNL     1       6.137  45.187  54.493  1.00  0.00     0.002 A 
ATOM     40  C   UNL     1       6.181  46.557  54.249  1.00  0.00     0.000 A 
ENDBRANCH  33  35
ENDBRANCH  28  33
ENDBRANCH  22  24
ENDBRANCH   4  22
TORSDOF 8
ENDMDL
MODEL 5
REMARK VINA RESULT:    -9.178      3.807      8.081
REMARK INTER + INTRA:         -14.133
REMARK INTER:                 -12.713
REMARK INTRA:                  -1.420
REMARK UNBOUND:                -0.931
REMARK SMILES Cc1ccc(-c2noc(C[NH+]3CC[NH+](C(C)c4nc(N)nc(Nc5ccccc5)n4)CC3)n2)cc1
REMARK SMILES IDX 11 1 12 2 13 3 14 4 31 5 32 6 10 9 9 10 6 11 7 12 33 13 8 14
REMARK SMILES IDX 5 15 2 16 3 17 35 18 4 19 34 20 1 21 15 22 16 23 17 24 18 25
REMARK SMILES IDX 30 26 19 27 22 28 21 29 20 30 23 33 24 35 25 36 29 37 26 38
REMARK SMILES IDX 28 39 27 40
REMARK H PARENT 11 7 14 8 20 31 20 32 23 34
ROOT
ATOM      1  N   UNL     1       1.114  44.987  52.707  1.00  0.00    -0.318 N 
ATOM      2  C   UNL     1       1.873  44.016  53.625  1.00  0.00     0.325 C 
ATOM      3  C   UNL     1       1.722  42.558  53.111  1.00  0.00     0.325 C 
ATOM      4  N   UNL     1       2.342  42.382  51.710  1.00  0.00    -0.317 N 
ATOM      5  C   UNL     1       2.269  43.654  50.851  1.00  0.00     0.325 C 
ATOM      6  C   UNL     1       1.044  44.524  51.242  1.00  0.00     0.325 C 
ATOM      7  H   UNL     1       0.139  45.002  53.048  1.00  0.00     0.348 HD
ATOM      8  H   UNL     1       1.773  41.667  51.232  1.00  0.00     0.349 HD
ENDROOT
BRANCH   1   9
ATOM      9  C   UNL     1       1.569  46.460  52.895  1.00  0.00     0.364 C 
BRANCH   9  10
ATOM     10  C   UNL     1       3.027  46.667  53.088  1.00  0.00     0.282 A 
ATOM     11  C   UNL     1       5.114  46.906  53.021  1.00  0.00     0.202 A 
ATOM     12  N   UNL     1       4.730  47.650  54.071  1.00  0.00    -0.057 NA
ATOM     13  N   UNL     1       4.048  46.355  52.324  1.00  0.00    -0.186 NA
ATOM     14  O   UNL     1       3.368  47.437  54.156  1.00  0.00    -0.333 OA
BRANCH  11  15
ATOM     15  C   UNL     1       6.505  46.739  52.634  1.00  0.00     0.023 A 
ATOM     16  C   UNL     1       9.201  46.339  51.918  1.00  0.00    -0.051 A 
ATOM     17  C   UNL     1       8.171  45.868  51.097  1.00  0.00     0.004 A 
ATOM     18  C   UNL     1       8.874  46.989  53.113  1.00  0.00     0.004 A 
ATOM     19  C   UNL     1       6.831  46.077  51.445  1.00  0.00     0.012 A 
ATOM     20  C   UNL     1       7.537  47.187  53.469  1.00  0.00     0.012 A 
ATOM     21  C   UNL     1      10.640  46.094  51.567  1.00  0.00     0.044 C 
ENDBRANCH  11  15
ENDBRANCH   9  10
ENDBRANCH   1   9
BRANCH   4  22
ATOM     22  C   UNL     1       3.797  41.764  51.707  1.00  0.00     0.250 C 
ATOM     23  C   UNL     1       4.711  42.721  52.478  1.00  0.00     0.084 C 
BRANCH  22  24
ATOM     24  C   UNL     1       4.353  41.428  50.326  1.00  0.00     0.193 A 
ATOM     25  N   UNL     1       5.426  42.116  49.933  1.00  0.00    -0.191 NA
ATOM     26  N   UNL     1       3.632  40.637  49.535  1.00  0.00    -0.191 NA
ATOM     27  C   UNL     1       5.789  41.931  48.677  1.00  0.00     0.225 A 
ATOM     28  C   UNL     1       4.101  40.480  48.294  1.00  0.00     0.232 A 
ATOM     29  N   UNL     1       5.146  41.160  47.830  1.00  0.00    -0.177 NA
BRANCH  27  30
ATOM     30  N   UNL     1       6.877  42.643  48.215  1.00  0.00    -0.368 N 
ATOM     31  H   UNL     1       7.002  43.477  48.777  1.00  0.00     0.159 HD
ATOM     32  H   UNL     1       7.693  42.035  48.258  1.00  0.00     0.159 HD
ENDBRANCH  27  30
BRANCH  28  33
ATOM     33  N   UNL     1       3.459  39.539  47.497  1.00  0.00    -0.324 N 
ATOM     34  H   UNL     1       3.461  38.613  47.905  1.00  0.00     0.170 HD
BRANCH  33  35
ATOM     35  C   UNL     1       3.037  39.604  46.159  1.00  0.00     0.041 A 
ATOM     36  C   UNL     1       2.316  40.686  45.635  1.00  0.00     0.026 A 
ATOM     37  C   UNL     1       3.397  38.568  45.283  1.00  0.00     0.026 A 
ATOM     38  C   UNL     1       1.935  40.720  44.289  1.00  0.00     0.002 A 
ATOM     39  C   UNL     1       3.028  38.604  43.934  1.00  0.00     0.002 A 
ATOM     40  C   UNL     1       2.299  39.681  43.438  1.00  0.00     0.000 A 
ENDBRANCH  33  35
ENDBRANCH  28  33
ENDBRANCH  22  24
ENDBRANCH   4  22
TORSDOF 8
ENDMDL
MODEL 6
REMARK VINA RESULT:    -9.177      2.608     10.154
REMARK INTER + INTRA:         -14.131
REMARK INTER:                 -13.027
REMARK INTRA:                  -1.103
REMARK UNBOUND:                -0.931
REMARK SMILES Cc1ccc(-c2noc(C[NH+]3CC[NH+](C(C)c4nc(N)nc(Nc5ccccc5)n4)CC3)n2)cc1
REMARK SMILES IDX 11 1 12 2 13 3 14 4 31 5 32 6 10 9 9 10 6 11 7 12 33 13 8 14
REMARK SMILES IDX 5 15 2 16 3 17 35 18 4 19 34 20 1 21 15 22 16 23 17 24 18 25
REMARK SMILES IDX 30 26 19 27 22 28 21 29 20 30 23 33 24 35 25 36 29 37 26 38
REMARK SMILES IDX 28 39 27 40
REMARK H PARENT 11 7 14 8 20 31 20 32 23 34
ROOT
ATOM      1  N   UNL     1       7.965  47.118  52.506  1.00  0.00    -0.318 N 
ATOM      2  C   UNL     1       7.956  45.949  53.505  1.00  0.00     0.325 C 
ATOM      3  C   UNL     1       6.866  46.175  54.588  1.00  0.00     0.325 C 
ATOM      4  N   UNL     1       5.452  46.213  53.973  1.00  0.00    -0.317 N 
ATOM      5  C   UNL     1       5.429  46.768  52.541  1.00  0.00     0.325 C 
ATOM      6  C   UNL     1       6.589  47.775  52.312  1.00  0.00     0.325 C 
ATOM      7  H   UNL     1       8.572  47.844  52.919  1.00  0.00     0.348 HD
ATOM      8  H   UNL     1       4.903  46.866  54.554  1.00  0.00     0.349 HD
ENDROOT
BRANCH   1   9
ATOM      9  C   UNL     1       8.701  46.762  51.185  1.00  0.00     0.364 C 
BRANCH   9  10
ATOM     10  C   UNL     1       8.331  45.463  50.568  1.00  0.00     0.282 A 
ATOM     11  C   UNL     1       7.504  43.774  49.631  1.00  0.00     0.202 A 
ATOM     12  N   UNL     1       8.825  43.656  49.418  1.00  0.00    -0.057 NA
ATOM     13  N   UNL     1       7.159  44.957  50.269  1.00  0.00    -0.186 NA
ATOM     14  O   UNL     1       9.373  44.729  50.093  1.00  0.00    -0.333 OA
BRANCH  11  15
ATOM     15  C   UNL     1       6.539  42.780  49.193  1.00  0.00     0.023 A 
ATOM     16  C   UNL     1       4.613  40.912  48.332  1.00  0.00    -0.051 A 
ATOM     17  C   UNL     1       5.418  41.580  47.404  1.00  0.00     0.004 A 
ATOM     18  C   UNL     1       4.758  41.203  49.692  1.00  0.00     0.004 A 
ATOM     19  C   UNL     1       6.385  42.499  47.831  1.00  0.00     0.012 A 
ATOM     20  C   UNL     1       5.713  42.130  50.120  1.00  0.00     0.012 A 
ATOM     21  C   UNL     1       3.554  39.947  47.881  1.00  0.00     0.044 C 
ENDBRANCH  11  15
ENDBRANCH   9  10
ENDBRANCH   1   9
BRANCH   4  22
ATOM     22  C   UNL     1       4.652  44.854  54.081  1.00  0.00     0.250 C 
ATOM     23  C   UNL     1       4.862  44.084  52.774  1.00  0.00     0.084 C 
BRANCH  22  24
ATOM     24  C   UNL     1       3.172  45.003  54.427  1.00  0.00     0.193 A 
ATOM     25  N   UNL     1       2.330  45.127  53.399  1.00  0.00    -0.191 NA
ATOM     26  N   UNL     1       2.842  45.199  55.701  1.00  0.00    -0.191 NA
ATOM     27  C   UNL     1       1.084  45.420  53.721  1.00  0.00     0.225 A 
ATOM     28  C   UNL     1       1.550  45.450  55.930  1.00  0.00     0.232 A 
ATOM     29  N   UNL     1       0.667  45.618  54.951  1.00  0.00    -0.177 NA
BRANCH  27  30
ATOM     30  N   UNL     1       0.181  45.588  52.691  1.00  0.00    -0.368 N 
ATOM     31  H   UNL     1      -0.404  46.395  52.879  1.00  0.00     0.159 HD
ATOM     32  H   UNL     1       0.707  45.699  51.826  1.00  0.00     0.159 HD
ENDBRANCH  27  30
BRANCH  28  33
ATOM     33  N   UNL     1       1.150  45.503  57.261  1.00  0.00    -0.324 N 
ATOM     34  H   UNL     1       1.250  44.616  57.736  1.00  0.00     0.170 HD
BRANCH  33  35
ATOM     35  C   UNL     1       0.429  46.482  57.964  1.00  0.00     0.041 A 
ATOM     36  C   UNL     1      -0.875  46.865  57.622  1.00  0.00     0.026 A 
ATOM     37  C   UNL     1       1.012  47.072  59.096  1.00  0.00     0.026 A 
ATOM     38  C   UNL     1      -1.566  47.830  58.364  1.00  0.00     0.002 A 
ATOM     39  C   UNL     1       0.320  48.028  59.847  1.00  0.00     0.002 A 
ATOM     40  C   UNL     1      -0.969  48.405  59.482  1.00  0.00     0.000 A 
ENDBRANCH  33  35
ENDBRANCH  28  33
ENDBRANCH  22  24
ENDBRANCH   4  22
TORSDOF 8
ENDMDL
MODEL 7
REMARK VINA RESULT:    -9.135      3.346      5.533
REMARK INTER + INTRA:         -14.071
REMARK INTER:                 -12.123
REMARK INTRA:                  -1.948
REMARK UNBOUND:                -0.931
REMARK SMILES Cc1ccc(-c2noc(C[NH+]3CC[NH+](C(C)c4nc(N)nc(Nc5ccccc5)n4)CC3)n2)cc1
REMARK SMILES IDX 11 1 12 2 13 3 14 4 31 5 32 6 10 9 9 10 6 11 7 12 33 13 8 14
REMARK SMILES IDX 5 15 2 16 3 17 35 18 4 19 34 20 1 21 15 22 16 23 17 24 18 25
REMARK SMILES IDX 30 26 19 27 22 28 21 29 20 30 23 33 24 35 25 36 29 37 26 38
REMARK SMILES IDX 28 39 27 40
REMARK H PARENT 11 7 14 8 20 31 20 32 23 34
ROOT
ATOM      1  N   UNL     1       0.375  44.386  53.170  1.00  0.00    -0.318 N 
ATOM      2  C   UNL     1       1.019  43.137  53.793  1.00  0.00     0.325 C 
ATOM      3  C   UNL     1       0.997  41.959  52.781  1.00  0.00     0.325 C 
ATOM      4  N   UNL     1       1.829  42.275  51.521  1.00  0.00    -0.317 N 
ATOM      5  C   UNL     1       1.845  43.770  51.166  1.00  0.00     0.325 C 
ATOM      6  C   UNL     1       0.545  44.473  51.645  1.00  0.00     0.325 C 
ATOM      7  H   UNL     1      -0.639  44.302  53.340  1.00  0.00     0.348 HD
ATOM      8  H   UNL     1       1.364  41.789  50.739  1.00  0.00     0.349 HD
ENDROOT
BRANCH   1   9
ATOM      9  C   UNL     1       0.747  45.687  53.935  1.00  0.00     0.364 C 
BRANCH   9  10
ATOM     10  C   UNL     1       2.083  46.258  53.630  1.00  0.00     0.282 A 
ATOM     11  C   UNL     1       4.099  46.772  53.329  1.00  0.00     0.202 A 
ATOM     12  N   UNL     1       3.440  47.445  52.372  1.00  0.00    -0.057 NA
ATOM     13  N   UNL     1       3.276  45.938  54.074  1.00  0.00    -0.186 NA
ATOM     14  O   UNL     1       2.110  47.161  52.613  1.00  0.00    -0.333 OA
BRANCH  11  15
ATOM     15  C   UNL     1       5.534  46.877  53.528  1.00  0.00     0.023 A 
ATOM     16  C   UNL     1       8.330  47.042  53.844  1.00  0.00    -0.051 A 
ATOM     17  C   UNL     1       7.645  47.990  53.076  1.00  0.00     0.004 A 
ATOM     18  C   UNL     1       7.612  45.996  54.432  1.00  0.00     0.004 A 
ATOM     19  C   UNL     1       6.254  47.917  52.929  1.00  0.00     0.012 A 
ATOM     20  C   UNL     1       6.225  45.913  54.276  1.00  0.00     0.012 A 
ATOM     21  C   UNL     1       9.824  47.097  53.983  1.00  0.00     0.044 C 
ENDBRANCH  11  15
ENDBRANCH   9  10
ENDBRANCH   1   9
BRANCH   4  22
ATOM     22  C   UNL     1       3.287  41.666  51.525  1.00  0.00     0.250 C 
ATOM     23  C   UNL     1       4.137  42.498  52.490  1.00  0.00     0.084 C 
BRANCH  22  24
ATOM     24  C   UNL     1       3.938  41.540  50.150  1.00  0.00     0.193 A 
ATOM     25  N   UNL     1       3.361  40.695  49.294  1.00  0.00    -0.191 NA
ATOM     26  N   UNL     1       5.126  42.111  49.964  1.00  0.00    -0.191 NA
ATOM     27  C   UNL     1       4.030  40.477  48.176  1.00  0.00     0.225 A 
ATOM     28  C   UNL     1       5.706  41.863  48.786  1.00  0.00     0.232 A 
ATOM     29  N   UNL     1       5.201  41.007  47.903  1.00  0.00    -0.177 NA
BRANCH  27  30
ATOM     30  N   UNL     1       3.489  39.588  47.271  1.00  0.00    -0.368 N 
ATOM     31  H   UNL     1       3.574  39.963  46.332  1.00  0.00     0.159 HD
ATOM     32  H   UNL     1       3.983  38.702  47.367  1.00  0.00     0.159 HD
ENDBRANCH  27  30
BRANCH  28  33
ATOM     33  N   UNL     1       6.870  42.570  48.502  1.00  0.00    -0.324 N 
ATOM     34  H   UNL     1       7.420  42.140  47.770  1.00  0.00     0.170 HD
BRANCH  33  35
ATOM     35  C   UNL     1       7.507  43.607  49.202  1.00  0.00     0.041 A 
ATOM     36  C   UNL     1       6.811  44.580  49.931  1.00  0.00     0.026 A 
ATOM     37  C   UNL     1       8.911  43.649  49.222  1.00  0.00     0.026 A 
ATOM     38  C   UNL     1       7.488  45.584  50.633  1.00  0.00     0.002 A 
ATOM     39  C   UNL     1       9.591  44.644  49.933  1.00  0.00     0.002 A 
ATOM     40  C   UNL     1       8.879  45.609  50.639  1.00  0.00     0.000 A 
ENDBRANCH  33  35
ENDBRANCH  28  33
ENDBRANCH  22  24
ENDBRANCH   4  22
TORSDOF 8
ENDMDL
MODEL 8
REMARK VINA RESULT:    -8.951      4.789      9.848
REMARK INTER + INTRA:         -13.807
REMARK INTER:                 -13.207
REMARK INTRA:                  -0.600
REMARK UNBOUND:                -0.931
REMARK SMILES Cc1ccc(-c2noc(C[NH+]3CC[NH+](C(C)c4nc(N)nc(Nc5ccccc5)n4)CC3)n2)cc1
REMARK SMILES IDX 11 1 12 2 13 3 14 4 31 5 32 6 10 9 9 10 6 11 7 12 33 13 8 14
REMARK SMILES IDX 5 15 2 16 3 17 35 18 4 19 34 20 1 21 15 22 16 23 17 24 18 25
REMARK SMILES IDX 30 26 19 27 22 28 21 29 20 30 23 33 24 35 25 36 29 37 26 38
REMARK SMILES IDX 28 39 27 40
REMARK H PARENT 11 7 14 8 20 31 20 32 23 34
ROOT
ATOM      1  N   UNL     1       5.005  41.181  49.280  1.00  0.00    -0.318 N 
ATOM      2  C   UNL     1       3.623  41.263  49.948  1.00  0.00     0.325 C 
ATOM      3  C   UNL     1       3.777  41.536  51.470  1.00  0.00     0.325 C 
ATOM      4  N   UNL     1       4.455  42.895  51.740  1.00  0.00    -0.317 N 
ATOM      5  C   UNL     1       5.454  43.300  50.645  1.00  0.00     0.325 C 
ATOM      6  C   UNL     1       6.074  42.051  49.962  1.00  0.00     0.325 C 
ATOM      7  H   UNL     1       5.320  40.204  49.390  1.00  0.00     0.348 HD
ATOM      8  H   UNL     1       4.997  42.777  52.610  1.00  0.00     0.349 HD
ENDROOT
BRANCH   1   9
ATOM      9  C   UNL     1       4.928  41.348  47.737  1.00  0.00     0.364 C 
BRANCH   9  10
ATOM     10  C   UNL     1       3.987  40.439  47.035  1.00  0.00     0.282 A 
ATOM     11  C   UNL     1       2.503  39.119  46.347  1.00  0.00     0.202 A 
ATOM     12  N   UNL     1       2.825  39.847  45.265  1.00  0.00    -0.057 NA
ATOM     13  N   UNL     1       3.152  39.540  47.500  1.00  0.00    -0.186 NA
ATOM     14  O   UNL     1       3.848  40.666  45.701  1.00  0.00    -0.333 OA
BRANCH  11  15
ATOM     15  C   UNL     1       1.538  38.034  46.314  1.00  0.00     0.023 A 
ATOM     16  C   UNL     1      -0.374  35.964  46.311  1.00  0.00    -0.051 A 
ATOM     17  C   UNL     1      -0.602  37.141  45.591  1.00  0.00     0.004 A 
ATOM     18  C   UNL     1       0.803  35.838  47.053  1.00  0.00     0.004 A 
ATOM     19  C   UNL     1       0.353  38.165  45.581  1.00  0.00     0.012 A 
ATOM     20  C   UNL     1       1.753  36.864  47.056  1.00  0.00     0.012 A 
ATOM     21  C   UNL     1      -1.406  34.873  46.350  1.00  0.00     0.044 C 
ENDBRANCH  11  15
ENDBRANCH   9  10
ENDBRANCH   1   9
BRANCH   4  22
ATOM     22  C   UNL     1       3.456  44.072  52.078  1.00  0.00     0.250 C 
ATOM     23  C   UNL     1       3.143  44.807  50.770  1.00  0.00     0.084 C 
BRANCH  22  24
ATOM     24  C   UNL     1       3.931  45.026  53.171  1.00  0.00     0.193 A 
ATOM     25  N   UNL     1       3.219  45.039  54.300  1.00  0.00    -0.191 NA
ATOM     26  N   UNL     1       4.877  45.910  52.866  1.00  0.00    -0.191 NA
ATOM     27  C   UNL     1       3.543  45.984  55.163  1.00  0.00     0.225 A 
ATOM     28  C   UNL     1       5.163  46.802  53.819  1.00  0.00     0.232 A 
ATOM     29  N   UNL     1       4.471  46.889  54.951  1.00  0.00    -0.177 NA
BRANCH  27  30
ATOM     30  N   UNL     1       2.815  46.057  56.334  1.00  0.00    -0.368 N 
ATOM     31  H   UNL     1       1.837  46.215  56.117  1.00  0.00     0.159 HD
ATOM     32  H   UNL     1       2.951  45.186  56.843  1.00  0.00     0.159 HD
ENDBRANCH  27  30
BRANCH  28  33
ATOM     33  N   UNL     1       6.252  47.635  53.588  1.00  0.00    -0.324 N 
ATOM     34  H   UNL     1       5.989  48.608  53.501  1.00  0.00     0.170 HD
BRANCH  33  35
ATOM     35  C   UNL     1       7.576  47.336  53.228  1.00  0.00     0.041 A 
ATOM     36  C   UNL     1       8.002  47.231  51.897  1.00  0.00     0.026 A 
ATOM     37  C   UNL     1       8.537  47.186  54.241  1.00  0.00     0.026 A 
ATOM     38  C   UNL     1       9.338  46.952  51.583  1.00  0.00     0.002 A 
ATOM     39  C   UNL     1       9.875  46.919  53.930  1.00  0.00     0.002 A 
ATOM     40  C   UNL     1      10.274  46.805  52.602  1.00  0.00     0.000 A 
ENDBRANCH  33  35
ENDBRANCH  28  33
ENDBRANCH  22  24
ENDBRANCH   4  22
TORSDOF 8
ENDMDL
MODEL 9
REMARK VINA RESULT:    -8.930      3.064      6.106
REMARK INTER + INTRA:         -13.776
REMARK INTER:                 -12.661
REMARK INTRA:                  -1.115
REMARK UNBOUND:                -0.931
REMARK SMILES Cc1ccc(-c2noc(C[NH+]3CC[NH+](C(C)c4nc(N)nc(Nc5ccccc5)n4)CC3)n2)cc1
REMARK SMILES IDX 11 1 12 2 13 3 14 4 31 5 32 6 10 9 9 10 6 11 7 12 33 13 8 14
REMARK SMILES IDX 5 15 2 16 3 17 35 18 4 19 34 20 1 21 15 22 16 23 17 24 18 25
REMARK SMILES IDX 30 26 19 27 22 28 21 29 20 30 23 33 24 35 25 36 29 37 26 38
REMARK SMILES IDX 28 39 27 40
REMARK H PARENT 11 7 14 8 20 31 20 32 23 34
ROOT
ATOM      1  N   UNL     1       0.249  45.302  54.194  1.00  0.00    -0.318 N 
ATOM      2  C   UNL     1       0.418  45.493  52.678  1.00  0.00     0.325 C 
ATOM      3  C   UNL     1       1.897  45.826  52.339  1.00  0.00     0.325 C 
ATOM      4  N   UNL     1       2.843  44.670  52.724  1.00  0.00    -0.317 N 
ATOM      5  C   UNL     1       2.355  43.868  53.940  1.00  0.00     0.325 C 
ATOM      6  C   UNL     1       1.505  44.754  54.891  1.00  0.00     0.325 C 
ATOM      7  H   UNL     1       0.093  46.244  54.587  1.00  0.00     0.348 HD
ATOM      8  H   UNL     1       3.736  45.109  52.996  1.00  0.00     0.349 HD
ENDROOT
BRANCH   1   9
ATOM      9  C   UNL     1      -1.065  44.555  54.554  1.00  0.00     0.364 C 
BRANCH   9  10
ATOM     10  C   UNL     1      -1.824  43.993  53.409  1.00  0.00     0.282 A 
ATOM     11  C   UNL     1      -2.773  42.892  51.890  1.00  0.00     0.202 A 
ATOM     12  N   UNL     1      -3.570  43.958  52.073  1.00  0.00    -0.057 NA
ATOM     13  N   UNL     1      -1.717  42.841  52.789  1.00  0.00    -0.186 NA
ATOM     14  O   UNL     1      -2.910  44.714  53.022  1.00  0.00    -0.333 OA
BRANCH  11  15
ATOM     15  C   UNL     1      -3.024  41.879  50.880  1.00  0.00     0.023 A 
ATOM     16  C   UNL     1      -3.589  39.938  48.917  1.00  0.00    -0.051 A 
ATOM     17  C   UNL     1      -3.231  41.238  48.547  1.00  0.00     0.004 A 
ATOM     18  C   UNL     1      -3.689  39.620  50.275  1.00  0.00     0.004 A 
ATOM     19  C   UNL     1      -2.938  42.200  49.521  1.00  0.00     0.012 A 
ATOM     20  C   UNL     1      -3.409  40.583  51.250  1.00  0.00     0.012 A 
ATOM     21  C   UNL     1      -3.934  38.908  47.879  1.00  0.00     0.044 C 
ENDBRANCH  11  15
ENDBRANCH   9  10
ENDBRANCH   1   9
BRANCH   4  22
ATOM     22  C   UNL     1       3.243  43.721  51.525  1.00  0.00     0.250 C 
ATOM     23  C   UNL     1       3.110  42.274  52.013  1.00  0.00     0.084 C 
BRANCH  22  24
ATOM     24  C   UNL     1       4.615  43.996  50.915  1.00  0.00     0.193 A 
ATOM     25  N   UNL     1       5.133  43.030  50.155  1.00  0.00    -0.191 NA
ATOM     26  N   UNL     1       5.283  45.070  51.331  1.00  0.00    -0.191 NA
ATOM     27  C   UNL     1       6.383  43.218  49.774  1.00  0.00     0.225 A 
ATOM     28  C   UNL     1       6.527  45.193  50.860  1.00  0.00     0.232 A 
ATOM     29  N   UNL     1       7.114  44.252  50.126  1.00  0.00    -0.177 NA
BRANCH  27  30
ATOM     30  N   UNL     1       6.974  42.231  49.011  1.00  0.00    -0.368 N 
ATOM     31  H   UNL     1       7.778  41.856  49.502  1.00  0.00     0.159 HD
ATOM     32  H   UNL     1       6.275  41.513  48.830  1.00  0.00     0.159 HD
ENDBRANCH  27  30
BRANCH  28  33
ATOM     33  N   UNL     1       7.191  46.380  51.151  1.00  0.00    -0.324 N 
ATOM     34  H   UNL     1       7.162  47.042  50.387  1.00  0.00     0.170 HD
BRANCH  33  35
ATOM     35  C   UNL     1       8.070  46.707  52.196  1.00  0.00     0.041 A 
ATOM     36  C   UNL     1       7.640  47.226  53.425  1.00  0.00     0.026 A 
ATOM     37  C   UNL     1       9.442  46.454  52.032  1.00  0.00     0.026 A 
ATOM     38  C   UNL     1       8.550  47.517  54.448  1.00  0.00     0.002 A 
ATOM     39  C   UNL     1      10.352  46.733  53.057  1.00  0.00     0.002 A 
ATOM     40  C   UNL     1       9.906  47.262  54.264  1.00  0.00     0.000 A 
ENDBRANCH  33  35
ENDBRANCH  28  33
ENDBRANCH  22  24
ENDBRANCH   4  22
TORSDOF 8
ENDMDL
MODEL 10
REMARK VINA RESULT:    -8.629      3.023      5.363
REMARK INTER + INTRA:         -13.343
REMARK INTER:                 -11.994
REMARK INTRA:                  -1.349
REMARK UNBOUND:                -0.931
REMARK SMILES Cc1ccc(-c2noc(C[NH+]3CC[NH+](C(C)c4nc(N)nc(Nc5ccccc5)n4)CC3)n2)cc1
REMARK SMILES IDX 11 1 12 2 13 3 14 4 31 5 32 6 10 9 9 10 6 11 7 12 33 13 8 14
REMARK SMILES IDX 5 15 2 16 3 17 35 18 4 19 34 20 1 21 15 22 16 23 17 24 18 25
REMARK SMILES IDX 30 26 19 27 22 28 21 29 20 30 23 33 24 35 25 36 29 37 26 38
REMARK SMILES IDX 28 39 27 40
REMARK H PARENT 11 7 14 8 20 31 20 32 23 34
ROOT
ATOM      1  N   UNL     1      -0.647  43.627  55.076  1.00  0.00    -0.318 N 
ATOM      2  C   UNL     1       0.168  44.931  55.052  1.00  0.00     0.325 C 
ATOM      3  C   UNL     1       1.668  44.624  54.790  1.00  0.00     0.325 C 
ATOM      4  N   UNL     1       1.882  43.969  53.410  1.00  0.00    -0.317 N 
ATOM      5  C   UNL     1       0.693  43.109  52.957  1.00  0.00     0.325 C 
ATOM      6  C   UNL     1      -0.071  42.523  54.175  1.00  0.00     0.325 C 
ATOM      7  H   UNL     1      -0.585  43.268  56.042  1.00  0.00     0.348 HD
ATOM      8  H   UNL     1       2.687  43.332  53.516  1.00  0.00     0.349 HD
ENDROOT
BRANCH   1   9
ATOM      9  C   UNL     1      -2.170  43.877  54.896  1.00  0.00     0.364 C 
BRANCH   9  10
ATOM     10  C   UNL     1      -2.551  44.764  53.768  1.00  0.00     0.282 A 
ATOM     11  C   UNL     1      -3.108  45.729  51.986  1.00  0.00     0.202 A 
ATOM     12  N   UNL     1      -3.570  46.534  52.956  1.00  0.00    -0.057 NA
ATOM     13  N   UNL     1      -2.547  44.556  52.472  1.00  0.00    -0.186 NA
ATOM     14  O   UNL     1      -3.144  45.934  54.125  1.00  0.00    -0.333 OA
BRANCH  11  15
ATOM     15  C   UNL     1      -3.227  46.041  50.572  1.00  0.00     0.023 A 
ATOM     16  C   UNL     1      -3.378  46.663  47.828  1.00  0.00    -0.051 A 
ATOM     17  C   UNL     1      -3.015  45.378  48.245  1.00  0.00     0.004 A 
ATOM     18  C   UNL     1      -3.639  47.643  48.790  1.00  0.00     0.004 A 
ATOM     19  C   UNL     1      -2.952  45.064  49.608  1.00  0.00     0.012 A 
ATOM     20  C   UNL     1      -3.564  47.335  50.152  1.00  0.00     0.012 A 
ATOM     21  C   UNL     1      -3.419  47.016  46.368  1.00  0.00     0.044 C 
ENDBRANCH  11  15
ENDBRANCH   9  10
ENDBRANCH   1   9
BRANCH   4  22
ATOM     22  C   UNL     1       2.343  44.966  52.274  1.00  0.00     0.250 C 
ATOM     23  C   UNL     1       1.202  45.073  51.257  1.00  0.00     0.084 C 
BRANCH  22  24
ATOM     24  C   UNL     1       3.672  44.617  51.609  1.00  0.00     0.193 A 
ATOM     25  N   UNL     1       3.831  43.348  51.228  1.00  0.00    -0.191 NA
ATOM     26  N   UNL     1       4.644  45.525  51.634  1.00  0.00    -0.191 NA
ATOM     27  C   UNL     1       5.043  43.030  50.809  1.00  0.00     0.225 A 
ATOM     28  C   UNL     1       5.823  45.122  51.153  1.00  0.00     0.232 A 
ATOM     29  N   UNL     1       6.057  43.865  50.787  1.00  0.00    -0.177 NA
BRANCH  27  30
ATOM     30  N   UNL     1       5.266  41.722  50.431  1.00  0.00    -0.368 N 
ATOM     31  H   UNL     1       5.235  41.649  49.420  1.00  0.00     0.159 HD
ATOM     32  H   UNL     1       6.171  41.438  50.801  1.00  0.00     0.159 HD
ENDBRANCH  27  30
BRANCH  28  33
ATOM     33  N   UNL     1       6.810  46.093  51.020  1.00  0.00    -0.324 N 
ATOM     34  H   UNL     1       6.899  46.434  50.072  1.00  0.00     0.170 HD
BRANCH  33  35
ATOM     35  C   UNL     1       7.831  46.489  51.899  1.00  0.00     0.041 A 
ATOM     36  C   UNL     1       7.587  47.175  53.097  1.00  0.00     0.026 A 
ATOM     37  C   UNL     1       9.157  46.137  51.601  1.00  0.00     0.026 A 
ATOM     38  C   UNL     1       8.635  47.530  53.955  1.00  0.00     0.002 A 
ATOM     39  C   UNL     1      10.205  46.481  52.462  1.00  0.00     0.002 A 
ATOM     40  C   UNL     1       9.942  47.175  53.639  1.00  0.00     0.000 A 
ENDBRANCH  33  35
ENDBRANCH  28  33
ENDBRANCH  22  24
ENDBRANCH   4  22
TORSDOF 8
ENDMDL
