MODEL 1
REMARK VINA RESULT:   -10.003      0.000      0.000
REMARK INTER + INTRA:         -13.972
REMARK INTER:                 -12.926
REMARK INTRA:                  -1.046
REMARK UNBOUND:                -1.046
REMARK SMILES O=C(CSc1nc(Nc2ccccc2)c2ccccc2n1)N1CCCC1
REMARK SMILES IDX 4 1 3 2 2 3 22 4 23 5 26 6 24 7 25 8 1 9 5 10 6 11 21 12
REMARK SMILES IDX 7 13 20 14 15 15 19 16 16 17 18 18 17 19 8 20 9 22 10 23
REMARK SMILES IDX 14 24 11 25 13 26 12 27
REMARK H PARENT 8 21
ROOT
ATOM      1  S   UNL     1       4.018  47.759  53.780  1.00  0.00    -0.076 SA
ENDROOT
BRANCH   1   2
ATOM      2  C   UNL     1       2.759  46.962  52.732  1.00  0.00     0.178 C 
BRANCH   2   3
ATOM      3  C   UNL     1       2.174  45.768  53.468  1.00  0.00     0.233 C 
ATOM      4  N   UNL     1       1.664  44.736  52.707  1.00  0.00    -0.342 N 
ATOM      5  C   UNL     1       1.119  43.543  53.331  1.00  0.00     0.119 C 
ATOM      6  C   UNL     1       1.548  44.674  51.259  1.00  0.00     0.119 C 
ATOM      7  C   UNL     1       0.924  42.568  52.179  1.00  0.00     0.023 C 
ATOM      8  C   UNL     1       0.626  43.489  51.005  1.00  0.00     0.023 C 
ATOM      9  O   UNL     1       2.163  45.719  54.700  1.00  0.00    -0.274 OA
ENDBRANCH   2   3
ENDBRANCH   1   2
BRANCH   1  10
ATOM     10  C   UNL     1       5.518  47.160  53.051  1.00  0.00     0.190 A 
ATOM     11  N   UNL     1       5.454  46.364  51.984  1.00  0.00    -0.204 NA
ATOM     12  N   UNL     1       6.654  47.562  53.632  1.00  0.00    -0.222 NA
ATOM     13  C   UNL     1       6.606  45.916  51.459  1.00  0.00     0.142 A 
ATOM     14  C   UNL     1       7.800  47.114  53.116  1.00  0.00     0.077 A 
ATOM     15  C   UNL     1       7.853  46.262  52.007  1.00  0.00     0.043 A 
ATOM     16  C   UNL     1       8.993  47.510  53.709  1.00  0.00     0.029 A 
ATOM     17  C   UNL     1       9.114  45.814  51.532  1.00  0.00     0.014 A 
ATOM     18  C   UNL     1      10.235  47.080  53.234  1.00  0.00     0.002 A 
ATOM     19  C   UNL     1      10.295  46.224  52.144  1.00  0.00     0.001 A 
BRANCH  13  20
ATOM     20  N   UNL     1       6.563  45.083  50.308  1.00  0.00    -0.340 N 
ATOM     21  H   UNL     1       6.309  45.640  49.502  1.00  0.00     0.168 HD
BRANCH  20  22
ATOM     22  C   UNL     1       6.061  43.764  50.204  1.00  0.00     0.040 A 
ATOM     23  C   UNL     1       4.946  43.398  50.971  1.00  0.00     0.026 A 
ATOM     24  C   UNL     1       6.554  42.834  49.283  1.00  0.00     0.026 A 
ATOM     25  C   UNL     1       4.385  42.119  50.871  1.00  0.00     0.002 A 
ATOM     26  C   UNL     1       5.999  41.555  49.179  1.00  0.00     0.002 A 
ATOM     27  C   UNL     1       4.919  41.194  49.979  1.00  0.00     0.000 A 
ENDBRANCH  20  22
ENDBRANCH  13  20
ENDBRANCH   1  10
TORSDOF 5
ENDMDL
MODEL 2
REMARK VINA RESULT:    -9.918      0.741      1.417
REMARK INTER + INTRA:         -13.863
REMARK INTER:                 -12.917
REMARK INTRA:                  -0.946
REMARK UNBOUND:                -1.046
REMARK SMILES O=C(CSc1nc(Nc2ccccc2)c2ccccc2n1)N1CCCC1
REMARK SMILES IDX 4 1 3 2 2 3 22 4 23 5 26 6 24 7 25 8 1 9 5 10 6 11 21 12
REMARK SMILES IDX 7 13 20 14 15 15 19 16 16 17 18 18 17 19 8 20 9 22 10 23
REMARK SMILES IDX 14 24 11 25 13 26 12 27
REMARK H PARENT 8 21
ROOT
ATOM      1  S   UNL     1       4.178  47.476  54.555  1.00  0.00    -0.076 SA
ENDROOT
BRANCH   1   2
ATOM      2  C   UNL     1       3.159  45.968  54.473  1.00  0.00     0.178 C 
BRANCH   2   3
ATOM      3  C   UNL     1       2.230  46.053  53.273  1.00  0.00     0.233 C 
ATOM      4  N   UNL     1       1.523  44.918  52.931  1.00  0.00    -0.342 N 
ATOM      5  C   UNL     1       0.587  44.924  51.820  1.00  0.00     0.119 C 
ATOM      6  C   UNL     1       1.609  43.602  53.542  1.00  0.00     0.119 C 
ATOM      7  C   UNL     1      -0.160  43.604  51.947  1.00  0.00     0.023 C 
ATOM      8  C   UNL     1       0.883  42.685  52.567  1.00  0.00     0.023 C 
ATOM      9  O   UNL     1       2.105  47.100  52.634  1.00  0.00    -0.274 OA
ENDBRANCH   2   3
ENDBRANCH   1   2
BRANCH   1  10
ATOM     10  C   UNL     1       5.599  46.996  53.611  1.00  0.00     0.190 A 
ATOM     11  N   UNL     1       5.431  46.308  52.482  1.00  0.00    -0.204 NA
ATOM     12  N   UNL     1       6.785  47.371  54.103  1.00  0.00    -0.222 NA
ATOM     13  C   UNL     1       6.525  45.948  51.792  1.00  0.00     0.142 A 
ATOM     14  C   UNL     1       7.874  47.010  53.424  1.00  0.00     0.077 A 
ATOM     15  C   UNL     1       7.819  46.274  52.234  1.00  0.00     0.043 A 
ATOM     16  C   UNL     1       9.118  47.380  53.921  1.00  0.00     0.029 A 
ATOM     17  C   UNL     1       9.027  45.912  51.582  1.00  0.00     0.014 A 
ATOM     18  C   UNL     1      10.308  47.035  53.273  1.00  0.00     0.002 A 
ATOM     19  C   UNL     1      10.262  46.294  52.101  1.00  0.00     0.001 A 
BRANCH  13  20
ATOM     20  N   UNL     1       6.371  45.232  50.574  1.00  0.00    -0.340 N 
ATOM     21  H   UNL     1       6.052  45.867  49.852  1.00  0.00     0.168 HD
BRANCH  20  22
ATOM     22  C   UNL     1       5.846  43.932  50.387  1.00  0.00     0.040 A 
ATOM     23  C   UNL     1       6.575  43.005  49.628  1.00  0.00     0.026 A 
ATOM     24  C   UNL     1       4.682  43.483  51.022  1.00  0.00     0.026 A 
ATOM     25  C   UNL     1       6.119  41.693  49.452  1.00  0.00     0.002 A 
ATOM     26  C   UNL     1       4.221  42.175  50.849  1.00  0.00     0.002 A 
ATOM     27  C   UNL     1       4.936  41.281  50.056  1.00  0.00     0.000 A 
ENDBRANCH  20  22
ENDBRANCH  13  20
ENDBRANCH   1  10
TORSDOF 5
ENDMDL
MODEL 3
REMARK VINA RESULT:    -9.733      1.568      2.105
REMARK INTER + INTRA:         -13.623
REMARK INTER:                 -12.952
REMARK INTRA:                  -0.671
REMARK UNBOUND:                -1.046
REMARK SMILES O=C(CSc1nc(Nc2ccccc2)c2ccccc2n1)N1CCCC1
REMARK SMILES IDX 4 1 3 2 2 3 22 4 23 5 26 6 24 7 25 8 1 9 5 10 6 11 21 12
REMARK SMILES IDX 7 13 20 14 15 15 19 16 16 17 18 18 17 19 8 20 9 22 10 23
REMARK SMILES IDX 14 24 11 25 13 26 12 27
REMARK H PARENT 8 21
ROOT
ATOM      1  S   UNL     1       4.007  47.180  54.574  1.00  0.00    -0.076 SA
ENDROOT
BRANCH   1   2
ATOM      2  C   UNL     1       3.638  45.560  55.321  1.00  0.00     0.178 C 
BRANCH   2   3
ATOM      3  C   UNL     1       2.460  44.929  54.598  1.00  0.00     0.233 C 
ATOM      4  N   UNL     1       1.232  44.962  55.227  1.00  0.00    -0.342 N 
ATOM      5  C   UNL     1       0.048  44.413  54.589  1.00  0.00     0.119 C 
ATOM      6  C   UNL     1       0.929  45.472  56.554  1.00  0.00     0.119 C 
ATOM      7  C   UNL     1      -1.105  44.882  55.465  1.00  0.00     0.023 C 
ATOM      8  C   UNL     1      -0.472  44.952  56.847  1.00  0.00     0.023 C 
ATOM      9  O   UNL     1       2.594  44.414  53.485  1.00  0.00    -0.274 OA
ENDBRANCH   2   3
ENDBRANCH   1   2
BRANCH   1  10
ATOM     10  C   UNL     1       5.485  46.822  53.663  1.00  0.00     0.190 A 
ATOM     11  N   UNL     1       5.397  46.168  52.505  1.00  0.00    -0.204 NA
ATOM     12  N   UNL     1       6.629  47.248  54.209  1.00  0.00    -0.222 NA
ATOM     13  C   UNL     1       6.533  45.901  51.841  1.00  0.00     0.142 A 
ATOM     14  C   UNL     1       7.760  46.979  53.555  1.00  0.00     0.077 A 
ATOM     15  C   UNL     1       7.789  46.288  52.339  1.00  0.00     0.043 A 
ATOM     16  C   UNL     1       8.963  47.404  54.108  1.00  0.00     0.029 A 
ATOM     17  C   UNL     1       9.038  46.023  51.716  1.00  0.00     0.014 A 
ATOM     18  C   UNL     1      10.191  47.156  53.490  1.00  0.00     0.002 A 
ATOM     19  C   UNL     1      10.229  46.459  52.292  1.00  0.00     0.001 A 
BRANCH  13  20
ATOM     20  N   UNL     1       6.462  45.223  50.593  1.00  0.00    -0.340 N 
ATOM     21  H   UNL     1       6.121  45.863  49.885  1.00  0.00     0.168 HD
BRANCH  20  22
ATOM     22  C   UNL     1       6.033  43.899  50.344  1.00  0.00     0.040 A 
ATOM     23  C   UNL     1       4.915  43.404  51.031  1.00  0.00     0.026 A 
ATOM     24  C   UNL     1       6.602  43.090  49.354  1.00  0.00     0.026 A 
ATOM     25  C   UNL     1       4.426  42.115  50.786  1.00  0.00     0.002 A 
ATOM     26  C   UNL     1       6.118  41.802  49.106  1.00  0.00     0.002 A 
ATOM     27  C   UNL     1       5.034  41.311  49.828  1.00  0.00     0.000 A 
ENDBRANCH  20  22
ENDBRANCH  13  20
ENDBRANCH   1  10
TORSDOF 5
ENDMDL
MODEL 4
REMARK VINA RESULT:    -9.318      2.117      5.116
REMARK INTER + INTRA:         -13.088
REMARK INTER:                 -12.244
REMARK INTRA:                  -0.844
REMARK UNBOUND:                -1.046
REMARK SMILES O=C(CSc1nc(Nc2ccccc2)c2ccccc2n1)N1CCCC1
REMARK SMILES IDX 4 1 3 2 2 3 22 4 23 5 26 6 24 7 25 8 1 9 5 10 6 11 21 12
REMARK SMILES IDX 7 13 20 14 15 15 19 16 16 17 18 18 17 19 8 20 9 22 10 23
REMARK SMILES IDX 14 24 11 25 13 26 12 27
REMARK H PARENT 8 21
ROOT
ATOM      1  S   UNL     1       2.156  46.024  53.144  1.00  0.00    -0.076 SA
ENDROOT
BRANCH   1   2
ATOM      2  C   UNL     1       2.084  44.935  54.602  1.00  0.00     0.178 C 
BRANCH   2   3
ATOM      3  C   UNL     1       0.810  44.109  54.552  1.00  0.00     0.233 C 
ATOM      4  N   UNL     1      -0.258  44.536  55.314  1.00  0.00    -0.342 N 
ATOM      5  C   UNL     1      -1.525  43.824  55.295  1.00  0.00     0.119 C 
ATOM      6  C   UNL     1      -0.298  45.659  56.235  1.00  0.00     0.119 C 
ATOM      7  C   UNL     1      -2.487  44.744  56.031  1.00  0.00     0.023 C 
ATOM      8  C   UNL     1      -1.581  45.452  57.029  1.00  0.00     0.023 C 
ATOM      9  O   UNL     1       0.730  43.099  53.848  1.00  0.00    -0.274 OA
ENDBRANCH   2   3
ENDBRANCH   1   2
BRANCH   1  10
ATOM     10  C   UNL     1       3.515  45.326  52.245  1.00  0.00     0.190 A 
ATOM     11  N   UNL     1       4.580  46.082  51.981  1.00  0.00    -0.204 NA
ATOM     12  N   UNL     1       3.383  44.045  51.883  1.00  0.00    -0.222 NA
ATOM     13  C   UNL     1       5.591  45.531  51.289  1.00  0.00     0.142 A 
ATOM     14  C   UNL     1       4.382  43.497  51.191  1.00  0.00     0.077 A 
ATOM     15  C   UNL     1       5.542  44.199  50.844  1.00  0.00     0.043 A 
ATOM     16  C   UNL     1       4.264  42.169  50.795  1.00  0.00     0.029 A 
ATOM     17  C   UNL     1       6.552  43.548  50.087  1.00  0.00     0.014 A 
ATOM     18  C   UNL     1       5.263  41.523  50.061  1.00  0.00     0.002 A 
ATOM     19  C   UNL     1       6.409  42.217  49.702  1.00  0.00     0.001 A 
BRANCH  13  20
ATOM     20  N   UNL     1       6.747  46.311  51.014  1.00  0.00    -0.340 N 
ATOM     21  H   UNL     1       7.048  46.136  50.063  1.00  0.00     0.168 HD
BRANCH  20  22
ATOM     22  C   UNL     1       7.846  46.572  51.864  1.00  0.00     0.040 A 
ATOM     23  C   UNL     1       9.103  46.044  51.535  1.00  0.00     0.026 A 
ATOM     24  C   UNL     1       7.767  47.431  52.966  1.00  0.00     0.026 A 
ATOM     25  C   UNL     1      10.230  46.310  52.322  1.00  0.00     0.002 A 
ATOM     26  C   UNL     1       8.889  47.700  53.756  1.00  0.00     0.002 A 
ATOM     27  C   UNL     1      10.120  47.132  53.438  1.00  0.00     0.000 A 
ENDBRANCH  20  22
ENDBRANCH  13  20
ENDBRANCH   1  10
TORSDOF 5
ENDMDL
MODEL 5
REMARK VINA RESULT:    -9.185      1.904      4.985
REMARK INTER + INTRA:         -12.916
REMARK INTER:                 -12.041
REMARK INTRA:                  -0.875
REMARK UNBOUND:                -1.046
REMARK SMILES O=C(CSc1nc(Nc2ccccc2)c2ccccc2n1)N1CCCC1
REMARK SMILES IDX 4 1 3 2 2 3 22 4 23 5 26 6 24 7 25 8 1 9 5 10 6 11 21 12
REMARK SMILES IDX 7 13 20 14 15 15 19 16 16 17 18 18 17 19 8 20 9 22 10 23
REMARK SMILES IDX 14 24 11 25 13 26 12 27
REMARK H PARENT 8 21
ROOT
ATOM      1  S   UNL     1       2.221  44.555  54.063  1.00  0.00    -0.076 SA
ENDROOT
BRANCH   1   2
ATOM      2  C   UNL     1       0.890  43.602  53.265  1.00  0.00     0.178 C 
BRANCH   2   3
ATOM      3  C   UNL     1       0.057  44.531  52.397  1.00  0.00     0.233 C 
ATOM      4  N   UNL     1      -1.049  43.996  51.768  1.00  0.00    -0.342 N 
ATOM      5  C   UNL     1      -1.919  44.823  50.949  1.00  0.00     0.119 C 
ATOM      6  C   UNL     1      -1.488  42.611  51.772  1.00  0.00     0.119 C 
ATOM      7  C   UNL     1      -3.129  43.943  50.674  1.00  0.00     0.023 C 
ATOM      8  C   UNL     1      -2.532  42.542  50.665  1.00  0.00     0.023 C 
ATOM      9  O   UNL     1       0.353  45.721  52.267  1.00  0.00    -0.274 OA
ENDBRANCH   2   3
ENDBRANCH   1   2
BRANCH   1  10
ATOM     10  C   UNL     1       3.539  44.374  52.892  1.00  0.00     0.190 A 
ATOM     11  N   UNL     1       4.384  45.385  52.697  1.00  0.00    -0.204 NA
ATOM     12  N   UNL     1       3.607  43.195  52.262  1.00  0.00    -0.222 NA
ATOM     13  C   UNL     1       5.367  45.225  51.796  1.00  0.00     0.142 A 
ATOM     14  C   UNL     1       4.578  43.034  51.362  1.00  0.00     0.077 A 
ATOM     15  C   UNL     1       5.513  44.033  51.066  1.00  0.00     0.043 A 
ATOM     16  C   UNL     1       4.663  41.822  50.688  1.00  0.00     0.029 A 
ATOM     17  C   UNL     1       6.505  43.789  50.079  1.00  0.00     0.014 A 
ATOM     18  C   UNL     1       5.647  41.576  49.726  1.00  0.00     0.002 A 
ATOM     19  C   UNL     1       6.568  42.566  49.417  1.00  0.00     0.001 A 
BRANCH  13  20
ATOM     20  N   UNL     1       6.293  46.283  51.587  1.00  0.00    -0.340 N 
ATOM     21  H   UNL     1       6.398  46.442  50.592  1.00  0.00     0.168 HD
BRANCH  20  22
ATOM     22  C   UNL     1       7.500  46.535  52.280  1.00  0.00     0.040 A 
ATOM     23  C   UNL     1       8.718  46.408  51.597  1.00  0.00     0.026 A 
ATOM     24  C   UNL     1       7.535  47.019  53.593  1.00  0.00     0.026 A 
ATOM     25  C   UNL     1       9.936  46.690  52.228  1.00  0.00     0.002 A 
ATOM     26  C   UNL     1       8.748  47.301  54.228  1.00  0.00     0.002 A 
ATOM     27  C   UNL     1       9.950  47.128  53.547  1.00  0.00     0.000 A 
ENDBRANCH  20  22
ENDBRANCH  13  20
ENDBRANCH   1  10
TORSDOF 5
ENDMDL
MODEL 6
REMARK VINA RESULT:    -9.133      1.751      6.249
REMARK INTER + INTRA:         -12.849
REMARK INTER:                 -11.924
REMARK INTRA:                  -0.925
REMARK UNBOUND:                -1.046
REMARK SMILES O=C(CSc1nc(Nc2ccccc2)c2ccccc2n1)N1CCCC1
REMARK SMILES IDX 4 1 3 2 2 3 22 4 23 5 26 6 24 7 25 8 1 9 5 10 6 11 21 12
REMARK SMILES IDX 7 13 20 14 15 15 19 16 16 17 18 18 17 19 8 20 9 22 10 23
REMARK SMILES IDX 14 24 11 25 13 26 12 27
REMARK H PARENT 8 21
ROOT
ATOM      1  S   UNL     1       4.252  45.792  55.395  1.00  0.00    -0.076 SA
ENDROOT
BRANCH   1   2
ATOM      2  C   UNL     1       5.996  45.818  54.869  1.00  0.00     0.178 C 
BRANCH   2   3
ATOM      3  C   UNL     1       6.219  46.985  53.922  1.00  0.00     0.233 C 
ATOM      4  N   UNL     1       7.446  47.074  53.295  1.00  0.00    -0.342 N 
ATOM      5  C   UNL     1       7.727  48.138  52.347  1.00  0.00     0.119 C 
ATOM      6  C   UNL     1       8.602  46.214  53.483  1.00  0.00     0.119 C 
ATOM      7  C   UNL     1       9.043  47.730  51.700  1.00  0.00     0.023 C 
ATOM      8  C   UNL     1       9.745  46.967  52.814  1.00  0.00     0.023 C 
ATOM      9  O   UNL     1       5.333  47.817  53.714  1.00  0.00    -0.274 OA
ENDBRANCH   2   3
ENDBRANCH   1   2
BRANCH   1  10
ATOM     10  C   UNL     1       3.481  44.972  54.026  1.00  0.00     0.190 A 
ATOM     11  N   UNL     1       4.239  44.342  53.130  1.00  0.00    -0.204 NA
ATOM     12  N   UNL     1       2.145  45.035  53.981  1.00  0.00    -0.222 NA
ATOM     13  C   UNL     1       3.629  43.738  52.097  1.00  0.00     0.142 A 
ATOM     14  C   UNL     1       1.536  44.441  52.953  1.00  0.00     0.077 A 
ATOM     15  C   UNL     1       2.232  43.763  51.946  1.00  0.00     0.043 A 
ATOM     16  C   UNL     1       0.149  44.501  52.880  1.00  0.00     0.029 A 
ATOM     17  C   UNL     1       1.510  43.176  50.874  1.00  0.00     0.014 A 
ATOM     18  C   UNL     1      -0.564  43.912  51.832  1.00  0.00     0.002 A 
ATOM     19  C   UNL     1       0.120  43.251  50.823  1.00  0.00     0.001 A 
BRANCH  13  20
ATOM     20  N   UNL     1       4.416  43.042  51.139  1.00  0.00    -0.340 N 
ATOM     21  H   UNL     1       4.385  42.050  51.340  1.00  0.00     0.168 HD
BRANCH  20  22
ATOM     22  C   UNL     1       5.666  43.421  50.597  1.00  0.00     0.040 A 
ATOM     23  C   UNL     1       6.371  42.504  49.803  1.00  0.00     0.026 A 
ATOM     24  C   UNL     1       6.187  44.714  50.718  1.00  0.00     0.026 A 
ATOM     25  C   UNL     1       7.590  42.848  49.207  1.00  0.00     0.002 A 
ATOM     26  C   UNL     1       7.405  45.063  50.127  1.00  0.00     0.002 A 
ATOM     27  C   UNL     1       8.111  44.126  49.378  1.00  0.00     0.000 A 
ENDBRANCH  20  22
ENDBRANCH  13  20
ENDBRANCH   1  10
TORSDOF 5
ENDMDL
MODEL 7
REMARK VINA RESULT:    -9.113      1.741      6.338
REMARK INTER + INTRA:         -12.822
REMARK INTER:                 -12.348
REMARK INTRA:                  -0.474
REMARK UNBOUND:                -1.046
REMARK SMILES O=C(CSc1nc(Nc2ccccc2)c2ccccc2n1)N1CCCC1
REMARK SMILES IDX 4 1 3 2 2 3 22 4 23 5 26 6 24 7 25 8 1 9 5 10 6 11 21 12
REMARK SMILES IDX 7 13 20 14 15 15 19 16 16 17 18 18 17 19 8 20 9 22 10 23
REMARK SMILES IDX 14 24 11 25 13 26 12 27
REMARK H PARENT 8 21
ROOT
ATOM      1  S   UNL     1       4.297  47.314  54.304  1.00  0.00    -0.076 SA
ENDROOT
BRANCH   1   2
ATOM      2  C   UNL     1       5.600  47.159  53.041  1.00  0.00     0.178 C 
BRANCH   2   3
ATOM      3  C   UNL     1       6.945  46.979  53.724  1.00  0.00     0.233 C 
ATOM      4  N   UNL     1       8.033  46.683  52.927  1.00  0.00    -0.342 N 
ATOM      5  C   UNL     1       9.360  46.531  53.497  1.00  0.00     0.119 C 
ATOM      6  C   UNL     1       8.043  46.448  51.493  1.00  0.00     0.119 C 
ATOM      7  C   UNL     1      10.286  46.485  52.290  1.00  0.00     0.023 C 
ATOM      8  C   UNL     1       9.415  45.845  51.219  1.00  0.00     0.023 C 
ATOM      9  O   UNL     1       7.063  47.101  54.946  1.00  0.00    -0.274 OA
ENDBRANCH   2   3
ENDBRANCH   1   2
BRANCH   1  10
ATOM     10  C   UNL     1       3.321  45.869  53.986  1.00  0.00     0.190 A 
ATOM     11  N   UNL     1       3.874  44.832  53.357  1.00  0.00    -0.204 NA
ATOM     12  N   UNL     1       2.055  45.909  54.417  1.00  0.00    -0.222 NA
ATOM     13  C   UNL     1       3.110  43.754  53.120  1.00  0.00     0.142 A 
ATOM     14  C   UNL     1       1.291  44.842  54.178  1.00  0.00     0.077 A 
ATOM     15  C   UNL     1       1.761  43.704  53.513  1.00  0.00     0.043 A 
ATOM     16  C   UNL     1      -0.031  44.865  54.607  1.00  0.00     0.029 A 
ATOM     17  C   UNL     1       0.876  42.618  53.279  1.00  0.00     0.014 A 
ATOM     18  C   UNL     1      -0.899  43.791  54.390  1.00  0.00     0.002 A 
ATOM     19  C   UNL     1      -0.445  42.665  53.719  1.00  0.00     0.001 A 
BRANCH  13  20
ATOM     20  N   UNL     1       3.683  42.629  52.469  1.00  0.00    -0.340 N 
ATOM     21  H   UNL     1       3.954  41.944  53.164  1.00  0.00     0.168 HD
BRANCH  20  22
ATOM     22  C   UNL     1       4.562  42.617  51.360  1.00  0.00     0.040 A 
ATOM     23  C   UNL     1       5.358  43.744  51.109  1.00  0.00     0.026 A 
ATOM     24  C   UNL     1       4.763  41.485  50.562  1.00  0.00     0.026 A 
ATOM     25  C   UNL     1       6.274  43.763  50.052  1.00  0.00     0.002 A 
ATOM     26  C   UNL     1       5.676  41.499  49.504  1.00  0.00     0.002 A 
ATOM     27  C   UNL     1       6.427  42.642  49.243  1.00  0.00     0.000 A 
ENDBRANCH  20  22
ENDBRANCH  13  20
ENDBRANCH   1  10
TORSDOF 5
ENDMDL
MODEL 8
REMARK VINA RESULT:    -9.095      2.001      4.997
REMARK INTER + INTRA:         -12.799
REMARK INTER:                 -11.959
REMARK INTRA:                  -0.840
REMARK UNBOUND:                -1.046
REMARK SMILES O=C(CSc1nc(Nc2ccccc2)c2ccccc2n1)N1CCCC1
REMARK SMILES IDX 4 1 3 2 2 3 22 4 23 5 26 6 24 7 25 8 1 9 5 10 6 11 21 12
REMARK SMILES IDX 7 13 20 14 15 15 19 16 16 17 18 18 17 19 8 20 9 22 10 23
REMARK SMILES IDX 14 24 11 25 13 26 12 27
REMARK H PARENT 8 21
ROOT
ATOM      1  S   UNL     1       2.723  44.518  54.184  1.00  0.00    -0.076 SA
ENDROOT
BRANCH   1   2
ATOM      2  C   UNL     1       1.591  45.751  53.466  1.00  0.00     0.178 C 
BRANCH   2   3
ATOM      3  C   UNL     1       0.462  45.036  52.742  1.00  0.00     0.233 C 
ATOM      4  N   UNL     1      -0.662  44.710  53.474  1.00  0.00    -0.342 N 
ATOM      5  C   UNL     1      -1.800  44.058  52.849  1.00  0.00     0.119 C 
ATOM      6  C   UNL     1      -0.879  44.902  54.898  1.00  0.00     0.119 C 
ATOM      7  C   UNL     1      -2.897  44.122  53.903  1.00  0.00     0.023 C 
ATOM      8  C   UNL     1      -2.115  44.068  55.207  1.00  0.00     0.023 C 
ATOM      9  O   UNL     1       0.543  44.766  51.541  1.00  0.00    -0.274 OA
ENDBRANCH   2   3
ENDBRANCH   1   2
BRANCH   1  10
ATOM     10  C   UNL     1       3.925  44.345  52.892  1.00  0.00     0.190 A 
ATOM     11  N   UNL     1       4.783  45.337  52.661  1.00  0.00    -0.204 NA
ATOM     12  N   UNL     1       3.897  43.192  52.215  1.00  0.00    -0.222 NA
ATOM     13  C   UNL     1       5.675  45.184  51.670  1.00  0.00     0.142 A 
ATOM     14  C   UNL     1       4.778  43.038  51.226  1.00  0.00     0.077 A 
ATOM     15  C   UNL     1       5.716  44.019  50.885  1.00  0.00     0.043 A 
ATOM     16  C   UNL     1       4.761  41.852  50.502  1.00  0.00     0.029 A 
ATOM     17  C   UNL     1       6.606  43.786  49.803  1.00  0.00     0.014 A 
ATOM     18  C   UNL     1       5.646  41.616  49.446  1.00  0.00     0.002 A 
ATOM     19  C   UNL     1       6.569  42.589  49.092  1.00  0.00     0.001 A 
BRANCH  13  20
ATOM     20  N   UNL     1       6.615  46.221  51.418  1.00  0.00    -0.340 N 
ATOM     21  H   UNL     1       6.756  46.307  50.419  1.00  0.00     0.168 HD
BRANCH  20  22
ATOM     22  C   UNL     1       7.797  46.520  52.135  1.00  0.00     0.040 A 
ATOM     23  C   UNL     1       9.036  46.162  51.584  1.00  0.00     0.026 A 
ATOM     24  C   UNL     1       7.799  47.262  53.321  1.00  0.00     0.026 A 
ATOM     25  C   UNL     1      10.236  46.475  52.235  1.00  0.00     0.002 A 
ATOM     26  C   UNL     1       8.994  47.577  53.975  1.00  0.00     0.002 A 
ATOM     27  C   UNL     1      10.213  47.176  53.436  1.00  0.00     0.000 A 
ENDBRANCH  20  22
ENDBRANCH  13  20
ENDBRANCH   1  10
TORSDOF 5
ENDMDL
MODEL 9
REMARK VINA RESULT:    -8.928      2.556      4.563
REMARK INTER + INTRA:         -12.583
REMARK INTER:                 -11.047
REMARK INTRA:                  -1.536
REMARK UNBOUND:                -1.046
REMARK SMILES O=C(CSc1nc(Nc2ccccc2)c2ccccc2n1)N1CCCC1
REMARK SMILES IDX 4 1 3 2 2 3 22 4 23 5 26 6 24 7 25 8 1 9 5 10 6 11 21 12
REMARK SMILES IDX 7 13 20 14 15 15 19 16 16 17 18 18 17 19 8 20 9 22 10 23
REMARK SMILES IDX 14 24 11 25 13 26 12 27
REMARK H PARENT 8 21
ROOT
ATOM      1  S   UNL     1       7.209  43.950  49.070  1.00  0.00    -0.076 SA
ENDROOT
BRANCH   1   2
ATOM      2  C   UNL     1       6.955  42.360  49.922  1.00  0.00     0.178 C 
BRANCH   2   3
ATOM      3  C   UNL     1       5.583  41.811  49.564  1.00  0.00     0.233 C 
ATOM      4  N   UNL     1       4.531  42.127  50.400  1.00  0.00    -0.342 N 
ATOM      5  C   UNL     1       3.182  41.672  50.110  1.00  0.00     0.119 C 
ATOM      6  C   UNL     1       4.581  42.876  51.644  1.00  0.00     0.119 C 
ATOM      7  C   UNL     1       2.306  42.440  51.090  1.00  0.00     0.023 C 
ATOM      8  C   UNL     1       3.224  42.626  52.289  1.00  0.00     0.023 C 
ATOM      9  O   UNL     1       5.416  41.116  48.559  1.00  0.00    -0.274 OA
ENDBRANCH   2   3
ENDBRANCH   1   2
BRANCH   1  10
ATOM     10  C   UNL     1       7.332  45.070  50.438  1.00  0.00     0.190 A 
ATOM     11  N   UNL     1       6.232  45.670  50.891  1.00  0.00    -0.204 NA
ATOM     12  N   UNL     1       8.556  45.243  50.947  1.00  0.00    -0.222 NA
ATOM     13  C   UNL     1       6.355  46.522  51.922  1.00  0.00     0.142 A 
ATOM     14  C   UNL     1       8.683  46.094  51.967  1.00  0.00     0.077 A 
ATOM     15  C   UNL     1       7.600  46.790  52.515  1.00  0.00     0.043 A 
ATOM     16  C   UNL     1       9.948  46.297  52.507  1.00  0.00     0.029 A 
ATOM     17  C   UNL     1       7.823  47.694  53.588  1.00  0.00     0.014 A 
ATOM     18  C   UNL     1      10.167  47.176  53.571  1.00  0.00     0.002 A 
ATOM     19  C   UNL     1       9.101  47.881  54.110  1.00  0.00     0.001 A 
BRANCH  13  20
ATOM     20  N   UNL     1       5.192  47.158  52.437  1.00  0.00    -0.340 N 
ATOM     21  H   UNL     1       5.467  47.974  52.970  1.00  0.00     0.168 HD
BRANCH  20  22
ATOM     22  C   UNL     1       4.034  46.553  52.978  1.00  0.00     0.040 A 
ATOM     23  C   UNL     1       4.108  45.950  54.242  1.00  0.00     0.026 A 
ATOM     24  C   UNL     1       2.780  46.626  52.361  1.00  0.00     0.026 A 
ATOM     25  C   UNL     1       2.979  45.376  54.838  1.00  0.00     0.002 A 
ATOM     26  C   UNL     1       1.649  46.054  52.951  1.00  0.00     0.002 A 
ATOM     27  C   UNL     1       1.750  45.421  54.187  1.00  0.00     0.000 A 
ENDBRANCH  20  22
ENDBRANCH  13  20
ENDBRANCH   1  10
TORSDOF 5
ENDMDL
MODEL 10
REMARK VINA RESULT:    -8.826      1.819      6.413
REMARK INTER + INTRA:         -12.452
REMARK INTER:                 -11.537
REMARK INTRA:                  -0.915
REMARK UNBOUND:                -1.046
REMARK SMILES O=C(CSc1nc(Nc2ccccc2)c2ccccc2n1)N1CCCC1
REMARK SMILES IDX 4 1 3 2 2 3 22 4 23 5 26 6 24 7 25 8 1 9 5 10 6 11 21 12
REMARK SMILES IDX 7 13 20 14 15 15 19 16 16 17 18 18 17 19 8 20 9 22 10 23
REMARK SMILES IDX 14 24 11 25 13 26 12 27
REMARK H PARENT 8 21
ROOT
ATOM      1  S   UNL     1       4.529  46.696  53.950  1.00  0.00    -0.076 SA
ENDROOT
BRANCH   1   2
ATOM      2  C   UNL     1       5.894  47.458  53.016  1.00  0.00     0.178 C 
BRANCH   2   3
ATOM      3  C   UNL     1       7.211  47.160  53.713  1.00  0.00     0.233 C 
ATOM      4  N   UNL     1       8.281  46.786  52.925  1.00  0.00    -0.342 N 
ATOM      5  C   UNL     1       9.584  46.519  53.509  1.00  0.00     0.119 C 
ATOM      6  C   UNL     1       8.290  46.569  51.489  1.00  0.00     0.119 C 
ATOM      7  C   UNL     1      10.519  46.412  52.313  1.00  0.00     0.023 C 
ATOM      8  C   UNL     1       9.612  45.859  51.223  1.00  0.00     0.023 C 
ATOM      9  O   UNL     1       7.322  47.257  54.938  1.00  0.00    -0.274 OA
ENDBRANCH   2   3
ENDBRANCH   1   2
BRANCH   1  10
ATOM     10  C   UNL     1       4.292  45.181  53.060  1.00  0.00     0.190 A 
ATOM     11  N   UNL     1       3.231  44.423  53.333  1.00  0.00    -0.204 NA
ATOM     12  N   UNL     1       5.218  44.890  52.140  1.00  0.00    -0.222 NA
ATOM     13  C   UNL     1       3.081  43.276  52.651  1.00  0.00     0.142 A 
ATOM     14  C   UNL     1       5.076  43.749  51.465  1.00  0.00     0.077 A 
ATOM     15  C   UNL     1       4.009  42.868  51.678  1.00  0.00     0.043 A 
ATOM     16  C   UNL     1       6.031  43.420  50.510  1.00  0.00     0.029 A 
ATOM     17  C   UNL     1       3.942  41.661  50.931  1.00  0.00     0.014 A 
ATOM     18  C   UNL     1       5.959  42.239  49.766  1.00  0.00     0.002 A 
ATOM     19  C   UNL     1       4.912  41.354  49.981  1.00  0.00     0.001 A 
BRANCH  13  20
ATOM     20  N   UNL     1       1.946  42.461  52.909  1.00  0.00    -0.340 N 
ATOM     21  H   UNL     1       2.121  41.525  52.563  1.00  0.00     0.168 HD
BRANCH  20  22
ATOM     22  C   UNL     1       0.579  42.807  52.794  1.00  0.00     0.040 A 
ATOM     23  C   UNL     1      -0.020  42.803  51.526  1.00  0.00     0.026 A 
ATOM     24  C   UNL     1      -0.241  43.044  53.903  1.00  0.00     0.026 A 
ATOM     25  C   UNL     1      -1.380  43.096  51.366  1.00  0.00     0.002 A 
ATOM     26  C   UNL     1      -1.599  43.338  53.749  1.00  0.00     0.002 A 
ATOM     27  C   UNL     1      -2.167  43.372  52.478  1.00  0.00     0.000 A 
ENDBRANCH  20  22
ENDBRANCH  13  20
ENDBRANCH   1  10
TORSDOF 5
ENDMDL
