MODEL 1
REMARK VINA RESULT:    -9.159      0.000      0.000
REMARK INTER + INTRA:         -11.855
REMARK INTER:                 -11.301
REMARK INTRA:                  -0.553
REMARK UNBOUND:                -0.553
REMARK SMILES FCC1CN(c2nc(Nc3ccccc3)c3[nH]cnc3n2)CCO1
REMARK SMILES IDX 6 1 7 2 8 3 16 4 17 5 18 6 19 7 20 8 21 9 5 11 3 12 4 13
REMARK SMILES IDX 24 14 23 15 22 16 2 17 1 18 9 19 10 21 11 22 15 23 12 24
REMARK SMILES IDX 14 25 13 26
REMARK H PARENT 17 10 9 20
ROOT
ATOM      1  C   UNL     1       4.023  44.221  52.160  1.00  0.00     0.229 A 
ATOM      2  N   UNL     1       4.986  45.114  51.834  1.00  0.00    -0.193 NA
ATOM      3  C   UNL     1       5.990  44.781  50.997  1.00  0.00     0.162 A 
ATOM      4  C   UNL     1       5.949  43.512  50.468  1.00  0.00     0.128 A 
ATOM      5  N   UNL     1       6.711  42.814  49.574  1.00  0.00    -0.340 N 
ATOM      6  C   UNL     1       6.156  41.571  49.448  1.00  0.00     0.199 A 
ATOM      7  N   UNL     1       5.083  41.438  50.198  1.00  0.00    -0.217 NA
ATOM      8  C   UNL     1       4.944  42.646  50.832  1.00  0.00     0.184 A 
ATOM      9  N   UNL     1       3.968  42.969  51.690  1.00  0.00    -0.191 NA
ATOM     10  H   UNL     1       7.534  43.161  49.102  1.00  0.00     0.168 HD
ENDROOT
BRANCH   1  11
ATOM     11  N   UNL     1       3.041  44.630  53.075  1.00  0.00    -0.336 N 
ATOM     12  C   UNL     1       0.790  44.349  54.062  1.00  0.00     0.168 C 
ATOM     13  C   UNL     1       1.841  43.773  53.091  1.00  0.00     0.154 C 
ATOM     14  O   UNL     1       1.346  44.554  55.377  1.00  0.00    -0.372 OA
ATOM     15  C   UNL     1       2.445  45.477  55.309  1.00  0.00     0.182 C 
ATOM     16  C   UNL     1       3.571  44.949  54.410  1.00  0.00     0.148 C 
BRANCH  12  17
ATOM     17  C   UNL     1      -0.394  43.398  54.183  1.00  0.00     0.248 C 
ATOM     18  F   UNL     1      -0.005  42.136  53.861  1.00  0.00    -0.248 F 
ENDBRANCH  12  17
ENDBRANCH   1  11
BRANCH   3  19
ATOM     19  N   UNL     1       6.957  45.746  50.685  1.00  0.00    -0.338 N 
ATOM     20  H   UNL     1       6.463  46.510  50.224  1.00  0.00     0.168 HD
BRANCH  19  21
ATOM     21  C   UNL     1       7.962  46.251  51.538  1.00  0.00     0.040 A 
ATOM     22  C   UNL     1       9.304  45.864  51.440  1.00  0.00     0.026 A 
ATOM     23  C   UNL     1       7.584  47.096  52.588  1.00  0.00     0.026 A 
ATOM     24  C   UNL     1      10.255  46.357  52.337  1.00  0.00     0.002 A 
ATOM     25  C   UNL     1       8.532  47.591  53.486  1.00  0.00     0.002 A 
ATOM     26  C   UNL     1       9.869  47.225  53.356  1.00  0.00     0.000 A 
ENDBRANCH  19  21
ENDBRANCH   3  19
TORSDOF 4
ENDMDL
MODEL 2
REMARK VINA RESULT:    -8.947      1.334      2.010
REMARK INTER + INTRA:         -11.593
REMARK INTER:                 -10.902
REMARK INTRA:                  -0.692
REMARK UNBOUND:                -0.553
REMARK SMILES FCC1CN(c2nc(Nc3ccccc3)c3[nH]cnc3n2)CCO1
REMARK SMILES IDX 6 1 7 2 8 3 16 4 17 5 18 6 19 7 20 8 21 9 5 11 3 12 4 13
REMARK SMILES IDX 24 14 23 15 22 16 2 17 1 18 9 19 10 21 11 22 15 23 12 24
REMARK SMILES IDX 14 25 13 26
REMARK H PARENT 17 10 9 20
ROOT
ATOM      1  C   UNL     1       3.651  43.807  52.363  1.00  0.00     0.229 A 
ATOM      2  N   UNL     1       4.360  44.961  52.371  1.00  0.00    -0.193 NA
ATOM      3  C   UNL     1       5.465  45.103  51.610  1.00  0.00     0.162 A 
ATOM      4  C   UNL     1       5.794  44.039  50.805  1.00  0.00     0.128 A 
ATOM      5  N   UNL     1       6.767  43.795  49.876  1.00  0.00    -0.340 N 
ATOM      6  C   UNL     1       6.571  42.528  49.402  1.00  0.00     0.199 A 
ATOM      7  N   UNL     1       5.529  41.954  49.964  1.00  0.00    -0.217 NA
ATOM      8  C   UNL     1       5.035  42.892  50.834  1.00  0.00     0.184 A 
ATOM      9  N   UNL     1       3.959  42.740  51.617  1.00  0.00    -0.191 NA
ATOM     10  H   UNL     1       7.495  44.440  49.601  1.00  0.00     0.168 HD
ENDROOT
BRANCH   1  11
ATOM     11  N   UNL     1       2.543  43.722  53.218  1.00  0.00    -0.336 N 
ATOM     12  C   UNL     1       1.332  44.498  55.231  1.00  0.00     0.168 C 
ATOM     13  C   UNL     1       2.539  44.725  54.298  1.00  0.00     0.154 C 
ATOM     14  O   UNL     1       0.094  44.473  54.491  1.00  0.00    -0.372 OA
ATOM     15  C   UNL     1       0.119  43.410  53.525  1.00  0.00     0.182 C 
ATOM     16  C   UNL     1       1.258  43.594  52.512  1.00  0.00     0.148 C 
BRANCH  12  17
ATOM     17  C   UNL     1       1.250  45.611  56.268  1.00  0.00     0.248 C 
ATOM     18  F   UNL     1       0.900  45.092  57.475  1.00  0.00    -0.248 F 
ENDBRANCH  12  17
ENDBRANCH   1  11
BRANCH   3  19
ATOM     19  N   UNL     1       6.158  46.321  51.649  1.00  0.00    -0.338 N 
ATOM     20  H   UNL     1       5.469  47.037  51.879  1.00  0.00     0.168 HD
BRANCH  19  21
ATOM     21  C   UNL     1       7.382  46.584  52.302  1.00  0.00     0.040 A 
ATOM     22  C   UNL     1       7.454  46.989  53.640  1.00  0.00     0.026 A 
ATOM     23  C   UNL     1       8.563  46.534  51.553  1.00  0.00     0.026 A 
ATOM     24  C   UNL     1       8.686  47.282  54.230  1.00  0.00     0.002 A 
ATOM     25  C   UNL     1       9.796  46.825  52.140  1.00  0.00     0.002 A 
ATOM     26  C   UNL     1       9.857  47.194  53.481  1.00  0.00     0.000 A 
ENDBRANCH  19  21
ENDBRANCH   3  19
TORSDOF 4
ENDMDL
MODEL 3
REMARK VINA RESULT:    -8.947      2.947      5.273
REMARK INTER + INTRA:         -11.592
REMARK INTER:                 -10.922
REMARK INTRA:                  -0.670
REMARK UNBOUND:                -0.553
REMARK SMILES FCC1CN(c2nc(Nc3ccccc3)c3[nH]cnc3n2)CCO1
REMARK SMILES IDX 6 1 7 2 8 3 16 4 17 5 18 6 19 7 20 8 21 9 5 11 3 12 4 13
REMARK SMILES IDX 24 14 23 15 22 16 2 17 1 18 9 19 10 21 11 22 15 23 12 24
REMARK SMILES IDX 14 25 13 26
REMARK H PARENT 17 10 9 20
ROOT
ATOM      1  C   UNL     1       4.214  44.124  52.420  1.00  0.00     0.229 A 
ATOM      2  N   UNL     1       5.130  45.046  52.802  1.00  0.00    -0.193 NA
ATOM      3  C   UNL     1       4.917  45.833  53.878  1.00  0.00     0.162 A 
ATOM      4  C   UNL     1       3.754  45.612  54.577  1.00  0.00     0.128 A 
ATOM      5  N   UNL     1       3.197  46.130  55.712  1.00  0.00    -0.340 N 
ATOM      6  C   UNL     1       2.003  45.493  55.908  1.00  0.00     0.199 A 
ATOM      7  N   UNL     1       1.771  44.596  54.974  1.00  0.00    -0.217 NA
ATOM      8  C   UNL     1       2.861  44.659  54.145  1.00  0.00     0.184 A 
ATOM      9  N   UNL     1       3.058  43.904  53.056  1.00  0.00    -0.191 NA
ATOM     10  H   UNL     1       3.600  46.854  56.290  1.00  0.00     0.168 HD
ENDROOT
BRANCH   1  11
ATOM     11  N   UNL     1       4.488  43.380  51.263  1.00  0.00    -0.336 N 
ATOM     12  C   UNL     1       6.006  42.820  49.391  1.00  0.00     0.168 C 
ATOM     13  C   UNL     1       5.831  43.615  50.702  1.00  0.00     0.154 C 
ATOM     14  O   UNL     1       5.721  41.419  49.585  1.00  0.00    -0.372 OA
ATOM     15  C   UNL     1       4.366  41.250  50.033  1.00  0.00     0.182 C 
ATOM     16  C   UNL     1       4.122  41.959  51.372  1.00  0.00     0.148 C 
BRANCH  12  17
ATOM     17  C   UNL     1       7.435  42.954  48.880  1.00  0.00     0.248 C 
ATOM     18  F   UNL     1       8.058  43.979  49.519  1.00  0.00    -0.248 F 
ENDBRANCH  12  17
ENDBRANCH   1  11
BRANCH   3  19
ATOM     19  N   UNL     1       5.901  46.764  54.236  1.00  0.00    -0.338 N 
ATOM     20  H   UNL     1       6.027  46.677  55.244  1.00  0.00     0.168 HD
BRANCH  19  21
ATOM     21  C   UNL     1       7.143  46.977  53.599  1.00  0.00     0.040 A 
ATOM     22  C   UNL     1       7.259  47.617  52.359  1.00  0.00     0.026 A 
ATOM     23  C   UNL     1       8.295  46.439  54.185  1.00  0.00     0.026 A 
ATOM     24  C   UNL     1       8.506  47.765  51.747  1.00  0.00     0.002 A 
ATOM     25  C   UNL     1       9.544  46.585  53.575  1.00  0.00     0.002 A 
ATOM     26  C   UNL     1       9.649  47.253  52.358  1.00  0.00     0.000 A 
ENDBRANCH  19  21
ENDBRANCH   3  19
TORSDOF 4
ENDMDL
MODEL 4
REMARK VINA RESULT:    -8.689      3.567      6.768
REMARK INTER + INTRA:         -11.275
REMARK INTER:                 -11.166
REMARK INTRA:                  -0.108
REMARK UNBOUND:                -0.553
REMARK SMILES FCC1CN(c2nc(Nc3ccccc3)c3[nH]cnc3n2)CCO1
REMARK SMILES IDX 6 1 7 2 8 3 16 4 17 5 18 6 19 7 20 8 21 9 5 11 3 12 4 13
REMARK SMILES IDX 24 14 23 15 22 16 2 17 1 18 9 19 10 21 11 22 15 23 12 24
REMARK SMILES IDX 14 25 13 26
REMARK H PARENT 17 10 9 20
ROOT
ATOM      1  C   UNL     1       5.585  46.348  53.652  1.00  0.00     0.229 A 
ATOM      2  N   UNL     1       5.260  45.389  52.753  1.00  0.00    -0.193 NA
ATOM      3  C   UNL     1       4.170  44.613  52.927  1.00  0.00     0.162 A 
ATOM      4  C   UNL     1       3.397  44.882  54.031  1.00  0.00     0.128 A 
ATOM      5  N   UNL     1       2.226  44.389  54.534  1.00  0.00    -0.340 N 
ATOM      6  C   UNL     1       1.955  45.075  55.685  1.00  0.00     0.199 A 
ATOM      7  N   UNL     1       2.874  45.981  55.940  1.00  0.00    -0.217 NA
ATOM      8  C   UNL     1       3.773  45.872  54.910  1.00  0.00     0.184 A 
ATOM      9  N   UNL     1       4.874  46.617  54.754  1.00  0.00    -0.191 NA
ATOM     10  H   UNL     1       1.674  43.649  54.124  1.00  0.00     0.168 HD
ENDROOT
BRANCH   1  11
ATOM     11  N   UNL     1       6.759  47.080  53.424  1.00  0.00    -0.336 N 
ATOM     12  C   UNL     1       9.058  47.697  54.101  1.00  0.00     0.168 C 
ATOM     13  C   UNL     1       7.843  46.787  54.380  1.00  0.00     0.154 C 
ATOM     14  O   UNL     1       9.484  47.595  52.726  1.00  0.00    -0.372 OA
ATOM     15  C   UNL     1       8.418  47.992  51.849  1.00  0.00     0.182 C 
ATOM     16  C   UNL     1       7.186  47.092  52.016  1.00  0.00     0.148 C 
BRANCH  12  17
ATOM     17  C   UNL     1      10.226  47.306  54.997  1.00  0.00     0.248 C 
ATOM     18  F   UNL     1      10.340  48.195  56.020  1.00  0.00    -0.248 F 
ENDBRANCH  12  17
ENDBRANCH   1  11
BRANCH   3  19
ATOM     19  N   UNL     1       3.874  43.641  51.961  1.00  0.00    -0.338 N 
ATOM     20  H   UNL     1       3.016  43.944  51.501  1.00  0.00     0.168 HD
BRANCH  19  21
ATOM     21  C   UNL     1       4.764  43.074  51.023  1.00  0.00     0.040 A 
ATOM     22  C   UNL     1       5.820  43.794  50.449  1.00  0.00     0.026 A 
ATOM     23  C   UNL     1       4.521  41.771  50.574  1.00  0.00     0.026 A 
ATOM     24  C   UNL     1       6.647  43.204  49.491  1.00  0.00     0.002 A 
ATOM     25  C   UNL     1       5.347  41.178  49.616  1.00  0.00     0.002 A 
ATOM     26  C   UNL     1       6.414  41.894  49.079  1.00  0.00     0.000 A 
ENDBRANCH  19  21
ENDBRANCH   3  19
TORSDOF 4
ENDMDL
MODEL 5
REMARK VINA RESULT:    -8.667      2.554      4.780
REMARK INTER + INTRA:         -11.247
REMARK INTER:                 -10.761
REMARK INTRA:                  -0.487
REMARK UNBOUND:                -0.553
REMARK SMILES FCC1CN(c2nc(Nc3ccccc3)c3[nH]cnc3n2)CCO1
REMARK SMILES IDX 6 1 7 2 8 3 16 4 17 5 18 6 19 7 20 8 21 9 5 11 3 12 4 13
REMARK SMILES IDX 24 14 23 15 22 16 2 17 1 18 9 19 10 21 11 22 15 23 12 24
REMARK SMILES IDX 14 25 13 26
REMARK H PARENT 17 10 9 20
ROOT
ATOM      1  C   UNL     1       4.827  43.905  51.953  1.00  0.00     0.229 A 
ATOM      2  N   UNL     1       5.574  45.010  52.187  1.00  0.00    -0.193 NA
ATOM      3  C   UNL     1       5.174  45.945  53.073  1.00  0.00     0.162 A 
ATOM      4  C   UNL     1       4.004  45.687  53.748  1.00  0.00     0.128 A 
ATOM      5  N   UNL     1       3.295  46.321  54.730  1.00  0.00    -0.340 N 
ATOM      6  C   UNL     1       2.190  45.560  54.992  1.00  0.00     0.199 A 
ATOM      7  N   UNL     1       2.157  44.477  54.246  1.00  0.00    -0.217 NA
ATOM      8  C   UNL     1       3.287  44.546  53.472  1.00  0.00     0.184 A 
ATOM      9  N   UNL     1       3.669  43.637  52.566  1.00  0.00    -0.191 NA
ATOM     10  H   UNL     1       3.549  47.194  55.170  1.00  0.00     0.168 HD
ENDROOT
BRANCH   1  11
ATOM     11  N   UNL     1       5.289  43.005  50.981  1.00  0.00    -0.336 N 
ATOM     12  C   UNL     1       4.843  41.158  49.396  1.00  0.00     0.168 C 
ATOM     13  C   UNL     1       4.229  42.169  50.387  1.00  0.00     0.154 C 
ATOM     14  O   UNL     1       5.652  41.822  48.403  1.00  0.00    -0.372 OA
ATOM     15  C   UNL     1       6.726  42.534  49.037  1.00  0.00     0.182 C 
ATOM     16  C   UNL     1       6.200  43.611  49.997  1.00  0.00     0.148 C 
BRANCH  12  17
ATOM     17  C   UNL     1       3.742  40.385  48.682  1.00  0.00     0.248 C 
ATOM     18  F   UNL     1       3.103  39.571  49.564  1.00  0.00    -0.248 F 
ENDBRANCH  12  17
ENDBRANCH   1  11
BRANCH   3  19
ATOM     19  N   UNL     1       5.989  47.066  53.285  1.00  0.00    -0.338 N 
ATOM     20  H   UNL     1       5.648  47.513  54.136  1.00  0.00     0.168 HD
BRANCH  19  21
ATOM     21  C   UNL     1       7.399  47.114  53.233  1.00  0.00     0.040 A 
ATOM     22  C   UNL     1       8.116  47.024  52.033  1.00  0.00     0.026 A 
ATOM     23  C   UNL     1       8.111  47.154  54.437  1.00  0.00     0.026 A 
ATOM     24  C   UNL     1       9.513  47.032  52.036  1.00  0.00     0.002 A 
ATOM     25  C   UNL     1       9.508  47.162  54.443  1.00  0.00     0.002 A 
ATOM     26  C   UNL     1      10.208  47.106  53.241  1.00  0.00     0.000 A 
ENDBRANCH  19  21
ENDBRANCH   3  19
TORSDOF 4
ENDMDL
MODEL 6
REMARK VINA RESULT:    -8.483      2.351      4.665
REMARK INTER + INTRA:         -11.020
REMARK INTER:                 -10.848
REMARK INTRA:                  -0.173
REMARK UNBOUND:                -0.553
REMARK SMILES FCC1CN(c2nc(Nc3ccccc3)c3[nH]cnc3n2)CCO1
REMARK SMILES IDX 6 1 7 2 8 3 16 4 17 5 18 6 19 7 20 8 21 9 5 11 3 12 4 13
REMARK SMILES IDX 24 14 23 15 22 16 2 17 1 18 9 19 10 21 11 22 15 23 12 24
REMARK SMILES IDX 14 25 13 26
REMARK H PARENT 17 10 9 20
ROOT
ATOM      1  C   UNL     1       5.724  46.600  53.864  1.00  0.00     0.229 A 
ATOM      2  N   UNL     1       6.104  46.242  52.615  1.00  0.00    -0.193 NA
ATOM      3  C   UNL     1       7.384  46.379  52.211  1.00  0.00     0.162 A 
ATOM      4  C   UNL     1       8.273  46.853  53.147  1.00  0.00     0.128 A 
ATOM      5  N   UNL     1       9.620  47.085  53.170  1.00  0.00    -0.340 N 
ATOM      6  C   UNL     1       9.930  47.568  54.410  1.00  0.00     0.199 A 
ATOM      7  N   UNL     1       8.867  47.648  55.181  1.00  0.00    -0.217 NA
ATOM      8  C   UNL     1       7.831  47.198  54.403  1.00  0.00     0.184 A 
ATOM      9  N   UNL     1       6.553  47.094  54.790  1.00  0.00    -0.191 NA
ATOM     10  H   UNL     1      10.258  46.929  52.402  1.00  0.00     0.168 HD
ENDROOT
BRANCH   1  11
ATOM     11  N   UNL     1       4.366  46.471  54.190  1.00  0.00    -0.336 N 
ATOM     12  C   UNL     1       2.031  46.045  53.490  1.00  0.00     0.168 C 
ATOM     13  C   UNL     1       3.511  46.077  53.055  1.00  0.00     0.154 C 
ATOM     14  O   UNL     1       1.843  45.204  54.647  1.00  0.00    -0.372 OA
ATOM     15  C   UNL     1       2.622  45.699  55.748  1.00  0.00     0.182 C 
ATOM     16  C   UNL     1       4.122  45.704  55.422  1.00  0.00     0.148 C 
BRANCH  12  17
ATOM     17  C   UNL     1       1.161  45.511  52.360  1.00  0.00     0.248 C 
ATOM     18  F   UNL     1       1.849  45.551  51.189  1.00  0.00    -0.248 F 
ENDBRANCH  12  17
ENDBRANCH   1  11
BRANCH   3  19
ATOM     19  N   UNL     1       7.727  45.984  50.911  1.00  0.00    -0.338 N 
ATOM     20  H   UNL     1       8.732  46.128  50.821  1.00  0.00     0.168 HD
BRANCH  19  21
ATOM     21  C   UNL     1       7.338  44.798  50.251  1.00  0.00     0.040 A 
ATOM     22  C   UNL     1       8.081  44.232  49.208  1.00  0.00     0.026 A 
ATOM     23  C   UNL     1       6.108  44.220  50.587  1.00  0.00     0.026 A 
ATOM     24  C   UNL     1       7.632  43.082  48.555  1.00  0.00     0.002 A 
ATOM     25  C   UNL     1       5.656  43.069  49.936  1.00  0.00     0.002 A 
ATOM     26  C   UNL     1       6.422  42.497  48.924  1.00  0.00     0.000 A 
ENDBRANCH  19  21
ENDBRANCH   3  19
TORSDOF 4
ENDMDL
MODEL 7
REMARK VINA RESULT:    -8.382      3.047      6.629
REMARK INTER + INTRA:         -10.895
REMARK INTER:                 -10.225
REMARK INTRA:                  -0.670
REMARK UNBOUND:                -0.553
REMARK SMILES FCC1CN(c2nc(Nc3ccccc3)c3[nH]cnc3n2)CCO1
REMARK SMILES IDX 6 1 7 2 8 3 16 4 17 5 18 6 19 7 20 8 21 9 5 11 3 12 4 13
REMARK SMILES IDX 24 14 23 15 22 16 2 17 1 18 9 19 10 21 11 22 15 23 12 24
REMARK SMILES IDX 14 25 13 26
REMARK H PARENT 17 10 9 20
ROOT
ATOM      1  C   UNL     1       5.354  44.151  52.222  1.00  0.00     0.229 A 
ATOM      2  N   UNL     1       4.239  43.714  52.856  1.00  0.00    -0.193 NA
ATOM      3  C   UNL     1       3.487  42.722  52.337  1.00  0.00     0.162 A 
ATOM      4  C   UNL     1       3.941  42.158  51.168  1.00  0.00     0.128 A 
ATOM      5  N   UNL     1       3.526  41.133  50.365  1.00  0.00    -0.340 N 
ATOM      6  C   UNL     1       4.406  41.047  49.323  1.00  0.00     0.199 A 
ATOM      7  N   UNL     1       5.361  41.947  49.418  1.00  0.00    -0.217 NA
ATOM      8  C   UNL     1       5.082  42.639  50.568  1.00  0.00     0.184 A 
ATOM      9  N   UNL     1       5.807  43.648  51.068  1.00  0.00    -0.191 NA
ATOM     10  H   UNL     1       2.712  40.554  50.521  1.00  0.00     0.168 HD
ENDROOT
BRANCH   1  11
ATOM     11  N   UNL     1       6.053  45.219  52.802  1.00  0.00    -0.336 N 
ATOM     12  C   UNL     1       7.664  47.085  52.589  1.00  0.00     0.168 C 
ATOM     13  C   UNL     1       6.870  45.990  51.847  1.00  0.00     0.154 C 
ATOM     14  O   UNL     1       6.792  47.921  53.378  1.00  0.00    -0.372 OA
ATOM     15  C   UNL     1       6.102  47.128  54.357  1.00  0.00     0.182 C 
ATOM     16  C   UNL     1       5.232  46.049  53.698  1.00  0.00     0.148 C 
BRANCH  12  17
ATOM     17  C   UNL     1       8.404  47.967  51.592  1.00  0.00     0.248 C 
ATOM     18  F   UNL     1       8.034  49.264  51.761  1.00  0.00    -0.248 F 
ENDBRANCH  12  17
ENDBRANCH   1  11
BRANCH   3  19
ATOM     19  N   UNL     1       2.349  42.301  53.038  1.00  0.00    -0.338 N 
ATOM     20  H   UNL     1       2.680  41.925  53.926  1.00  0.00     0.168 HD
BRANCH  19  21
ATOM     21  C   UNL     1       1.149  43.023  53.224  1.00  0.00     0.040 A 
ATOM     22  C   UNL     1       0.961  43.922  54.280  1.00  0.00     0.026 A 
ATOM     23  C   UNL     1       0.070  42.752  52.375  1.00  0.00     0.026 A 
ATOM     24  C   UNL     1      -0.260  44.579  54.448  1.00  0.00     0.002 A 
ATOM     25  C   UNL     1      -1.153  43.408  52.540  1.00  0.00     0.002 A 
ATOM     26  C   UNL     1      -1.315  44.325  53.575  1.00  0.00     0.000 A 
ENDBRANCH  19  21
ENDBRANCH   3  19
TORSDOF 4
ENDMDL
MODEL 8
REMARK VINA RESULT:    -8.089      1.878      4.355
REMARK INTER + INTRA:         -10.535
REMARK INTER:                  -9.817
REMARK INTRA:                  -0.718
REMARK UNBOUND:                -0.553
REMARK SMILES FCC1CN(c2nc(Nc3ccccc3)c3[nH]cnc3n2)CCO1
REMARK SMILES IDX 6 1 7 2 8 3 16 4 17 5 18 6 19 7 20 8 21 9 5 11 3 12 4 13
REMARK SMILES IDX 24 14 23 15 22 16 2 17 1 18 9 19 10 21 11 22 15 23 12 24
REMARK SMILES IDX 14 25 13 26
REMARK H PARENT 17 10 9 20
ROOT
ATOM      1  C   UNL     1       3.527  45.978  54.108  1.00  0.00     0.229 A 
ATOM      2  N   UNL     1       3.738  45.551  52.840  1.00  0.00    -0.193 NA
ATOM      3  C   UNL     1       4.940  45.699  52.247  1.00  0.00     0.162 A 
ATOM      4  C   UNL     1       5.935  46.259  53.013  1.00  0.00     0.128 A 
ATOM      5  N   UNL     1       7.261  46.531  52.825  1.00  0.00    -0.340 N 
ATOM      6  C   UNL     1       7.728  47.103  53.976  1.00  0.00     0.199 A 
ATOM      7  N   UNL     1       6.785  47.202  54.887  1.00  0.00    -0.217 NA
ATOM      8  C   UNL     1       5.666  46.672  54.298  1.00  0.00     0.184 A 
ATOM      9  N   UNL     1       4.462  46.556  54.872  1.00  0.00    -0.191 NA
ATOM     10  H   UNL     1       7.788  46.344  51.984  1.00  0.00     0.168 HD
ENDROOT
BRANCH   1  11
ATOM     11  N   UNL     1       2.236  45.831  54.636  1.00  0.00    -0.336 N 
ATOM     12  C   UNL     1      -0.013  44.805  54.528  1.00  0.00     0.168 C 
ATOM     13  C   UNL     1       1.410  44.834  53.932  1.00  0.00     0.154 C 
ATOM     14  O   UNL     1       0.021  44.593  55.955  1.00  0.00    -0.372 OA
ATOM     15  C   UNL     1       0.752  45.652  56.593  1.00  0.00     0.182 C 
ATOM     16  C   UNL     1       2.205  45.711  56.102  1.00  0.00     0.148 C 
BRANCH  12  17
ATOM     17  C   UNL     1      -0.828  43.685  53.894  1.00  0.00     0.248 C 
ATOM     18  F   UNL     1      -0.181  42.500  54.050  1.00  0.00    -0.248 F 
ENDBRANCH  12  17
ENDBRANCH   1  11
BRANCH   3  19
ATOM     19  N   UNL     1       5.108  45.231  50.937  1.00  0.00    -0.338 N 
ATOM     20  H   UNL     1       5.655  45.937  50.446  1.00  0.00     0.168 HD
BRANCH  19  21
ATOM     21  C   UNL     1       5.505  43.935  50.540  1.00  0.00     0.040 A 
ATOM     22  C   UNL     1       4.781  42.785  50.878  1.00  0.00     0.026 A 
ATOM     23  C   UNL     1       6.723  43.786  49.868  1.00  0.00     0.026 A 
ATOM     24  C   UNL     1       5.238  41.520  50.502  1.00  0.00     0.002 A 
ATOM     25  C   UNL     1       7.182  42.522  49.489  1.00  0.00     0.002 A 
ATOM     26  C   UNL     1       6.436  41.389  49.802  1.00  0.00     0.000 A 
ENDBRANCH  19  21
ENDBRANCH   3  19
TORSDOF 4
ENDMDL
MODEL 9
REMARK VINA RESULT:    -7.863      3.206      6.481
REMARK INTER + INTRA:         -10.255
REMARK INTER:                  -9.612
REMARK INTRA:                  -0.643
REMARK UNBOUND:                -0.553
REMARK SMILES FCC1CN(c2nc(Nc3ccccc3)c3[nH]cnc3n2)CCO1
REMARK SMILES IDX 6 1 7 2 8 3 16 4 17 5 18 6 19 7 20 8 21 9 5 11 3 12 4 13
REMARK SMILES IDX 24 14 23 15 22 16 2 17 1 18 9 19 10 21 11 22 15 23 12 24
REMARK SMILES IDX 14 25 13 26
REMARK H PARENT 17 10 9 20
ROOT
ATOM      1  C   UNL     1       4.601  44.491  52.984  1.00  0.00     0.229 A 
ATOM      2  N   UNL     1       4.875  43.359  52.293  1.00  0.00    -0.193 NA
ATOM      3  C   UNL     1       3.896  42.492  51.961  1.00  0.00     0.162 A 
ATOM      4  C   UNL     1       2.618  42.847  52.321  1.00  0.00     0.128 A 
ATOM      5  N   UNL     1       1.377  42.302  52.140  1.00  0.00    -0.340 N 
ATOM      6  C   UNL     1       0.474  43.135  52.739  1.00  0.00     0.199 A 
ATOM      7  N   UNL     1       1.061  44.180  53.281  1.00  0.00    -0.217 NA
ATOM      8  C   UNL     1       2.396  44.011  53.019  1.00  0.00     0.184 A 
ATOM      9  N   UNL     1       3.374  44.852  53.378  1.00  0.00    -0.191 NA
ATOM     10  H   UNL     1       1.177  41.439  51.654  1.00  0.00     0.168 HD
ENDROOT
BRANCH   1  11
ATOM     11  N   UNL     1       5.680  45.316  53.333  1.00  0.00    -0.336 N 
ATOM     12  C   UNL     1       7.701  46.582  52.676  1.00  0.00     0.168 C 
ATOM     13  C   UNL     1       6.496  45.755  52.186  1.00  0.00     0.154 C 
ATOM     14  O   UNL     1       7.279  47.681  53.511  1.00  0.00    -0.372 OA
ATOM     15  C   UNL     1       6.580  47.183  54.664  1.00  0.00     0.182 C 
ATOM     16  C   UNL     1       5.323  46.397  54.266  1.00  0.00     0.148 C 
BRANCH  12  17
ATOM     17  C   UNL     1       8.470  47.149  51.489  1.00  0.00     0.248 C 
ATOM     18  F   UNL     1       9.806  47.073  51.726  1.00  0.00    -0.248 F 
ENDBRANCH  12  17
ENDBRANCH   1  11
BRANCH   3  19
ATOM     19  N   UNL     1       4.233  41.341  51.237  1.00  0.00    -0.338 N 
ATOM     20  H   UNL     1       3.628  40.596  51.582  1.00  0.00     0.168 HD
BRANCH  19  21
ATOM     21  C   UNL     1       4.400  41.233  49.839  1.00  0.00     0.040 A 
ATOM     22  C   UNL     1       3.506  40.531  49.021  1.00  0.00     0.026 A 
ATOM     23  C   UNL     1       5.559  41.764  49.262  1.00  0.00     0.026 A 
ATOM     24  C   UNL     1       3.738  40.414  47.648  1.00  0.00     0.002 A 
ATOM     25  C   UNL     1       5.794  41.649  47.890  1.00  0.00     0.002 A 
ATOM     26  C   UNL     1       4.879  40.978  47.082  1.00  0.00     0.000 A 
ENDBRANCH  19  21
ENDBRANCH   3  19
TORSDOF 4
ENDMDL
MODEL 10
REMARK VINA RESULT:    -7.788      3.358      6.820
REMARK INTER + INTRA:         -10.162
REMARK INTER:                  -9.482
REMARK INTRA:                  -0.680
REMARK UNBOUND:                -0.553
REMARK SMILES FCC1CN(c2nc(Nc3ccccc3)c3[nH]cnc3n2)CCO1
REMARK SMILES IDX 6 1 7 2 8 3 16 4 17 5 18 6 19 7 20 8 21 9 5 11 3 12 4 13
REMARK SMILES IDX 24 14 23 15 22 16 2 17 1 18 9 19 10 21 11 22 15 23 12 24
REMARK SMILES IDX 14 25 13 26
REMARK H PARENT 17 10 9 20
ROOT
ATOM      1  C   UNL     1       5.978  45.625  51.915  1.00  0.00     0.229 A 
ATOM      2  N   UNL     1       4.790  46.153  52.294  1.00  0.00    -0.193 NA
ATOM      3  C   UNL     1       3.642  45.461  52.145  1.00  0.00     0.162 A 
ATOM      4  C   UNL     1       3.756  44.189  51.635  1.00  0.00     0.128 A 
ATOM      5  N   UNL     1       2.884  43.168  51.381  1.00  0.00    -0.340 N 
ATOM      6  C   UNL     1       3.609  42.130  50.866  1.00  0.00     0.199 A 
ATOM      7  N   UNL     1       4.889  42.423  50.787  1.00  0.00    -0.217 NA
ATOM      8  C   UNL     1       4.990  43.702  51.270  1.00  0.00     0.184 A 
ATOM      9  N   UNL     1       6.124  44.405  51.387  1.00  0.00    -0.191 NA
ATOM     10  H   UNL     1       1.887  43.190  51.544  1.00  0.00     0.168 HD
ENDROOT
BRANCH   1  11
ATOM     11  N   UNL     1       7.120  46.428  52.058  1.00  0.00    -0.336 N 
ATOM     12  C   UNL     1       8.721  47.624  53.516  1.00  0.00     0.168 C 
ATOM     13  C   UNL     1       7.513  46.667  53.459  1.00  0.00     0.154 C 
ATOM     14  O   UNL     1       9.813  47.139  52.706  1.00  0.00    -0.372 OA
ATOM     15  C   UNL     1       9.397  47.025  51.336  1.00  0.00     0.182 C 
ATOM     16  C   UNL     1       8.233  46.036  51.179  1.00  0.00     0.148 C 
BRANCH  12  17
ATOM     17  C   UNL     1       9.213  47.767  54.950  1.00  0.00     0.248 C 
ATOM     18  F   UNL     1      10.541  47.480  55.013  1.00  0.00    -0.248 F 
ENDBRANCH  12  17
ENDBRANCH   1  11
BRANCH   3  19
ATOM     19  N   UNL     1       2.441  46.050  52.562  1.00  0.00    -0.338 N 
ATOM     20  H   UNL     1       1.872  46.171  51.724  1.00  0.00     0.168 HD
BRANCH  19  21
ATOM     21  C   UNL     1       1.635  45.657  53.653  1.00  0.00     0.040 A 
ATOM     22  C   UNL     1       2.100  45.648  54.974  1.00  0.00     0.026 A 
ATOM     23  C   UNL     1       0.351  45.163  53.392  1.00  0.00     0.026 A 
ATOM     24  C   UNL     1       1.279  45.208  56.015  1.00  0.00     0.002 A 
ATOM     25  C   UNL     1      -0.472  44.723  54.431  1.00  0.00     0.002 A 
ATOM     26  C   UNL     1      -0.009  44.751  55.744  1.00  0.00     0.000 A 
ENDBRANCH  19  21
ENDBRANCH   3  19
TORSDOF 4
ENDMDL
