MODEL 1
REMARK VINA RESULT:    -8.613      0.000      0.000
REMARK INTER + INTRA:         -11.929
REMARK INTER:                 -11.131
REMARK INTRA:                  -0.798
REMARK UNBOUND:                -0.798
REMARK SMILES O=C(c1ncnc2[nH]ccc12)N1CCCC(OCC2CC2)C1
REMARK SMILES IDX 12 1 13 2 14 3 15 4 16 5 22 6 2 7 1 8 3 9 4 10 11 11 5 12
REMARK SMILES IDX 10 13 7 14 6 15 9 16 8 17 17 19 18 20 19 21 20 22 21 23
REMARK H PARENT 8 18
ROOT
ATOM      1  N   UNL     1       4.438  45.298  52.730  1.00  0.00    -0.335 N 
ATOM      2  C   UNL     1       3.566  44.905  53.831  1.00  0.00     0.120 C 
ATOM      3  C   UNL     1       3.946  45.573  55.153  1.00  0.00     0.024 C 
ATOM      4  C   UNL     1       4.356  47.031  54.939  1.00  0.00     0.036 C 
ATOM      5  C   UNL     1       5.521  47.170  53.935  1.00  0.00     0.137 C 
ATOM      6  C   UNL     1       5.718  45.888  53.110  1.00  0.00     0.151 C 
ENDROOT
BRANCH   1   7
ATOM      7  C   UNL     1       4.088  44.881  51.442  1.00  0.00     0.273 C 
ATOM      8  O   UNL     1       3.276  45.508  50.758  1.00  0.00    -0.267 OA
BRANCH   7   9
ATOM      9  C   UNL     1       4.728  43.676  50.852  1.00  0.00     0.141 A 
ATOM     10  N   UNL     1       4.083  42.479  50.949  1.00  0.00    -0.230 NA
ATOM     11  C   UNL     1       6.000  43.735  50.278  1.00  0.00     0.050 A 
ATOM     12  C   UNL     1       4.707  41.395  50.455  1.00  0.00     0.225 A 
ATOM     13  C   UNL     1       6.988  44.725  50.006  1.00  0.00     0.032 A 
ATOM     14  C   UNL     1       6.507  42.532  49.813  1.00  0.00     0.141 A 
ATOM     15  N   UNL     1       5.915  41.330  49.867  1.00  0.00    -0.219 NA
ATOM     16  C   UNL     1       8.052  44.099  49.389  1.00  0.00     0.085 A 
ATOM     17  N   UNL     1       7.745  42.767  49.278  1.00  0.00    -0.346 N 
ATOM     18  H   UNL     1       8.329  42.048  48.874  1.00  0.00     0.167 HD
ENDBRANCH   7   9
ENDBRANCH   1   7
BRANCH   5  19
ATOM     19  O   UNL     1       6.745  47.426  54.634  1.00  0.00    -0.376 OA
BRANCH  19  20
ATOM     20  C   UNL     1       7.825  46.610  54.178  1.00  0.00     0.164 C 
BRANCH  20  21
ATOM     21  C   UNL     1       8.852  47.438  53.465  1.00  0.00     0.015 C 
ATOM     22  C   UNL     1       8.878  47.553  51.962  1.00  0.00     0.006 C 
ATOM     23  C   UNL     1       9.970  46.804  52.678  1.00  0.00     0.006 C 
ENDBRANCH  20  21
ENDBRANCH  19  20
ENDBRANCH   5  19
TORSDOF 5
ENDMDL
MODEL 2
REMARK VINA RESULT:    -7.928      1.939      4.611
REMARK INTER + INTRA:         -11.044
REMARK INTER:                 -10.195
REMARK INTRA:                  -0.848
REMARK UNBOUND:                -0.798
REMARK SMILES O=C(c1ncnc2[nH]ccc12)N1CCCC(OCC2CC2)C1
REMARK SMILES IDX 12 1 13 2 14 3 15 4 16 5 22 6 2 7 1 8 3 9 4 10 11 11 5 12
REMARK SMILES IDX 10 13 7 14 6 15 9 16 8 17 17 19 18 20 19 21 20 22 21 23
REMARK H PARENT 8 18
ROOT
ATOM      1  N   UNL     1       5.975  44.227  50.705  1.00  0.00    -0.335 N 
ATOM      2  C   UNL     1       6.690  43.470  49.684  1.00  0.00     0.120 C 
ATOM      3  C   UNL     1       7.988  44.148  49.245  1.00  0.00     0.024 C 
ATOM      4  C   UNL     1       8.718  44.770  50.437  1.00  0.00     0.036 C 
ATOM      5  C   UNL     1       7.837  45.783  51.200  1.00  0.00     0.137 C 
ATOM      6  C   UNL     1       6.351  45.633  50.837  1.00  0.00     0.151 C 
ENDROOT
BRANCH   1   7
ATOM      7  C   UNL     1       4.862  43.626  51.302  1.00  0.00     0.273 C 
ATOM      8  O   UNL     1       4.566  42.451  51.079  1.00  0.00    -0.267 OA
BRANCH   7   9
ATOM      9  C   UNL     1       4.027  44.398  52.260  1.00  0.00     0.141 A 
ATOM     10  N   UNL     1       2.821  44.876  51.839  1.00  0.00    -0.230 NA
ATOM     11  C   UNL     1       4.486  44.704  53.543  1.00  0.00     0.050 A 
ATOM     12  C   UNL     1       2.109  45.614  52.708  1.00  0.00     0.225 A 
ATOM     13  C   UNL     1       5.636  44.440  54.341  1.00  0.00     0.032 A 
ATOM     14  C   UNL     1       3.635  45.475  54.319  1.00  0.00     0.141 A 
ATOM     15  N   UNL     1       2.435  45.959  53.965  1.00  0.00    -0.219 NA
ATOM     16  C   UNL     1       5.448  45.049  55.565  1.00  0.00     0.085 A 
ATOM     17  N   UNL     1       4.227  45.674  55.537  1.00  0.00    -0.346 N 
ATOM     18  H   UNL     1       3.810  46.210  56.284  1.00  0.00     0.167 HD
ENDBRANCH   7   9
ENDBRANCH   1   7
BRANCH   5  19
ATOM     19  O   UNL     1       8.227  47.121  50.871  1.00  0.00    -0.376 OA
BRANCH  19  20
ATOM     20  C   UNL     1       8.312  47.972  52.015  1.00  0.00     0.164 C 
BRANCH  20  21
ATOM     21  C   UNL     1       8.689  47.185  53.234  1.00  0.00     0.015 C 
ATOM     22  C   UNL     1       9.199  47.853  54.487  1.00  0.00     0.006 C 
ATOM     23  C   UNL     1      10.129  47.014  53.651  1.00  0.00     0.006 C 
ENDBRANCH  20  21
ENDBRANCH  19  20
ENDBRANCH   5  19
TORSDOF 5
ENDMDL
MODEL 3
REMARK VINA RESULT:    -7.820      2.649      4.709
REMARK INTER + INTRA:         -10.904
REMARK INTER:                 -10.036
REMARK INTRA:                  -0.868
REMARK UNBOUND:                -0.798
REMARK SMILES O=C(c1ncnc2[nH]ccc12)N1CCCC(OCC2CC2)C1
REMARK SMILES IDX 12 1 13 2 14 3 15 4 16 5 22 6 2 7 1 8 3 9 4 10 11 11 5 12
REMARK SMILES IDX 10 13 7 14 6 15 9 16 8 17 17 19 18 20 19 21 20 22 21 23
REMARK H PARENT 8 18
ROOT
ATOM      1  N   UNL     1       4.835  44.580  53.145  1.00  0.00    -0.335 N 
ATOM      2  C   UNL     1       5.365  44.381  54.490  1.00  0.00     0.120 C 
ATOM      3  C   UNL     1       6.332  45.487  54.914  1.00  0.00     0.024 C 
ATOM      4  C   UNL     1       5.846  46.859  54.441  1.00  0.00     0.036 C 
ATOM      5  C   UNL     1       5.638  46.911  52.912  1.00  0.00     0.137 C 
ATOM      6  C   UNL     1       5.583  45.503  52.296  1.00  0.00     0.151 C 
ENDROOT
BRANCH   1   7
ATOM      7  C   UNL     1       3.817  43.725  52.714  1.00  0.00     0.273 C 
ATOM      8  O   UNL     1       4.047  42.555  52.399  1.00  0.00    -0.267 OA
BRANCH   7   9
ATOM      9  C   UNL     1       2.412  44.209  52.664  1.00  0.00     0.141 A 
ATOM     10  N   UNL     1       1.789  44.285  51.454  1.00  0.00    -0.230 NA
ATOM     11  C   UNL     1       1.755  44.655  53.814  1.00  0.00     0.050 A 
ATOM     12  C   UNL     1       0.537  44.776  51.430  1.00  0.00     0.225 A 
ATOM     13  C   UNL     1       2.029  44.768  55.207  1.00  0.00     0.032 A 
ATOM     14  C   UNL     1       0.468  45.132  53.624  1.00  0.00     0.141 A 
ATOM     15  N   UNL     1      -0.200  45.217  52.464  1.00  0.00    -0.219 NA
ATOM     16  C   UNL     1       0.911  45.301  55.814  1.00  0.00     0.085 A 
ATOM     17  N   UNL     1      -0.030  45.517  54.840  1.00  0.00    -0.346 N 
ATOM     18  H   UNL     1      -0.953  45.905  54.973  1.00  0.00     0.167 HD
ENDBRANCH   7   9
ENDBRANCH   1   7
BRANCH   5  19
ATOM     19  O   UNL     1       6.724  47.610  52.291  1.00  0.00    -0.376 OA
BRANCH  19  20
ATOM     20  C   UNL     1       7.697  46.733  51.725  1.00  0.00     0.164 C 
BRANCH  20  21
ATOM     21  C   UNL     1       9.085  47.226  52.009  1.00  0.00     0.015 C 
ATOM     22  C   UNL     1      10.278  46.303  51.985  1.00  0.00     0.006 C 
ATOM     23  C   UNL     1       9.799  46.881  53.291  1.00  0.00     0.006 C 
ENDBRANCH  20  21
ENDBRANCH  19  20
ENDBRANCH   5  19
TORSDOF 5
ENDMDL
MODEL 4
REMARK VINA RESULT:    -7.713      2.650      4.305
REMARK INTER + INTRA:         -10.766
REMARK INTER:                  -9.914
REMARK INTRA:                  -0.852
REMARK UNBOUND:                -0.798
REMARK SMILES O=C(c1ncnc2[nH]ccc12)N1CCCC(OCC2CC2)C1
REMARK SMILES IDX 12 1 13 2 14 3 15 4 16 5 22 6 2 7 1 8 3 9 4 10 11 11 5 12
REMARK SMILES IDX 10 13 7 14 6 15 9 16 8 17 17 19 18 20 19 21 20 22 21 23
REMARK H PARENT 8 18
ROOT
ATOM      1  N   UNL     1       4.502  45.667  52.317  1.00  0.00    -0.335 N 
ATOM      2  C   UNL     1       4.896  44.538  53.152  1.00  0.00     0.120 C 
ATOM      3  C   UNL     1       6.102  44.850  54.039  1.00  0.00     0.024 C 
ATOM      4  C   UNL     1       6.023  46.272  54.600  1.00  0.00     0.036 C 
ATOM      5  C   UNL     1       5.909  47.335  53.488  1.00  0.00     0.137 C 
ATOM      6  C   UNL     1       5.508  46.711  52.141  1.00  0.00     0.151 C 
ENDROOT
BRANCH   1   7
ATOM      7  C   UNL     1       3.315  45.554  51.589  1.00  0.00     0.273 C 
ATOM      8  O   UNL     1       3.097  46.250  50.595  1.00  0.00    -0.267 OA
BRANCH   7   9
ATOM      9  C   UNL     1       2.293  44.548  51.985  1.00  0.00     0.141 A 
ATOM     10  N   UNL     1       2.030  43.514  51.137  1.00  0.00    -0.230 NA
ATOM     11  C   UNL     1       1.552  44.689  53.161  1.00  0.00     0.050 A 
ATOM     12  C   UNL     1       1.065  42.648  51.495  1.00  0.00     0.225 A 
ATOM     13  C   UNL     1       1.489  45.586  54.265  1.00  0.00     0.032 A 
ATOM     14  C   UNL     1       0.595  43.713  53.389  1.00  0.00     0.141 A 
ATOM     15  N   UNL     1       0.302  42.668  52.601  1.00  0.00    -0.219 NA
ATOM     16  C   UNL     1       0.507  45.132  55.122  1.00  0.00     0.085 A 
ATOM     17  N   UNL     1      -0.027  43.992  54.576  1.00  0.00    -0.346 N 
ATOM     18  H   UNL     1      -0.771  43.431  54.967  1.00  0.00     0.167 HD
ENDBRANCH   7   9
ENDBRANCH   1   7
BRANCH   5  19
ATOM     19  O   UNL     1       7.169  47.990  53.301  1.00  0.00    -0.376 OA
BRANCH  19  20
ATOM     20  C   UNL     1       7.818  47.609  52.087  1.00  0.00     0.164 C 
BRANCH  20  21
ATOM     21  C   UNL     1       9.293  47.450  52.301  1.00  0.00     0.015 C 
ATOM     22  C   UNL     1       9.964  46.100  52.248  1.00  0.00     0.006 C 
ATOM     23  C   UNL     1       9.847  46.831  53.560  1.00  0.00     0.006 C 
ENDBRANCH  20  21
ENDBRANCH  19  20
ENDBRANCH   5  19
TORSDOF 5
ENDMDL
MODEL 5
REMARK VINA RESULT:    -7.700      2.326      3.288
REMARK INTER + INTRA:         -10.749
REMARK INTER:                 -10.230
REMARK INTRA:                  -0.519
REMARK UNBOUND:                -0.798
REMARK SMILES O=C(c1ncnc2[nH]ccc12)N1CCCC(OCC2CC2)C1
REMARK SMILES IDX 12 1 13 2 14 3 15 4 16 5 22 6 2 7 1 8 3 9 4 10 11 11 5 12
REMARK SMILES IDX 10 13 7 14 6 15 9 16 8 17 17 19 18 20 19 21 20 22 21 23
REMARK H PARENT 8 18
ROOT
ATOM      1  N   UNL     1       4.245  45.275  53.824  1.00  0.00    -0.335 N 
ATOM      2  C   UNL     1       5.141  44.698  54.820  1.00  0.00     0.120 C 
ATOM      3  C   UNL     1       6.532  45.332  54.802  1.00  0.00     0.024 C 
ATOM      4  C   UNL     1       6.449  46.843  54.580  1.00  0.00     0.036 C 
ATOM      5  C   UNL     1       5.699  47.204  53.281  1.00  0.00     0.137 C 
ATOM      6  C   UNL     1       4.888  46.014  52.742  1.00  0.00     0.151 C 
ENDROOT
BRANCH   1   7
ATOM      7  C   UNL     1       2.901  44.892  53.858  1.00  0.00     0.273 C 
ATOM      8  O   UNL     1       2.193  45.105  54.844  1.00  0.00    -0.267 OA
BRANCH   7   9
ATOM      9  C   UNL     1       2.284  44.244  52.670  1.00  0.00     0.141 A 
ATOM     10  N   UNL     1       1.042  44.647  52.277  1.00  0.00    -0.230 NA
ATOM     11  C   UNL     1       2.913  43.188  52.008  1.00  0.00     0.050 A 
ATOM     12  C   UNL     1       0.484  44.010  51.233  1.00  0.00     0.225 A 
ATOM     13  C   UNL     1       4.141  42.470  52.098  1.00  0.00     0.032 A 
ATOM     14  C   UNL     1       2.209  42.635  50.950  1.00  0.00     0.141 A 
ATOM     15  N   UNL     1       0.996  42.999  50.509  1.00  0.00    -0.219 NA
ATOM     16  C   UNL     1       4.145  41.517  51.101  1.00  0.00     0.085 A 
ATOM     17  N   UNL     1       2.965  41.629  50.411  1.00  0.00    -0.346 N 
ATOM     18  H   UNL     1       2.672  41.064  49.627  1.00  0.00     0.167 HD
ENDBRANCH   7   9
ENDBRANCH   1   7
BRANCH   5  19
ATOM     19  O   UNL     1       6.632  47.586  52.263  1.00  0.00    -0.376 OA
BRANCH  19  20
ATOM     20  C   UNL     1       7.583  46.563  51.970  1.00  0.00     0.164 C 
BRANCH  20  21
ATOM     21  C   UNL     1       8.978  47.113  51.991  1.00  0.00     0.015 C 
ATOM     22  C   UNL     1      10.188  46.220  51.873  1.00  0.00     0.006 C 
ATOM     23  C   UNL     1       9.889  46.913  53.176  1.00  0.00     0.006 C 
ENDBRANCH  20  21
ENDBRANCH  19  20
ENDBRANCH   5  19
TORSDOF 5
ENDMDL
MODEL 6
REMARK VINA RESULT:    -7.668      2.029      4.882
REMARK INTER + INTRA:         -10.707
REMARK INTER:                 -10.046
REMARK INTRA:                  -0.662
REMARK UNBOUND:                -0.798
REMARK SMILES O=C(c1ncnc2[nH]ccc12)N1CCCC(OCC2CC2)C1
REMARK SMILES IDX 12 1 13 2 14 3 15 4 16 5 22 6 2 7 1 8 3 9 4 10 11 11 5 12
REMARK SMILES IDX 10 13 7 14 6 15 9 16 8 17 17 19 18 20 19 21 20 22 21 23
REMARK H PARENT 8 18
ROOT
ATOM      1  N   UNL     1       5.809  44.499  51.113  1.00  0.00    -0.335 N 
ATOM      2  C   UNL     1       6.487  43.770  50.046  1.00  0.00     0.120 C 
ATOM      3  C   UNL     1       7.741  44.486  49.545  1.00  0.00     0.024 C 
ATOM      4  C   UNL     1       8.519  45.115  50.702  1.00  0.00     0.036 C 
ATOM      5  C   UNL     1       7.656  46.098  51.522  1.00  0.00     0.137 C 
ATOM      6  C   UNL     1       6.156  45.912  51.238  1.00  0.00     0.151 C 
ENDROOT
BRANCH   1   7
ATOM      7  C   UNL     1       4.747  43.864  51.762  1.00  0.00     0.273 C 
ATOM      8  O   UNL     1       4.332  42.762  51.396  1.00  0.00    -0.267 OA
BRANCH   7   9
ATOM      9  C   UNL     1       4.115  44.501  52.948  1.00  0.00     0.141 A 
ATOM     10  N   UNL     1       4.851  44.640  54.086  1.00  0.00    -0.230 NA
ATOM     11  C   UNL     1       2.770  44.881  52.939  1.00  0.00     0.050 A 
ATOM     12  C   UNL     1       4.241  45.170  55.160  1.00  0.00     0.225 A 
ATOM     13  C   UNL     1       1.684  44.892  52.017  1.00  0.00     0.032 A 
ATOM     14  C   UNL     1       2.288  45.413  54.124  1.00  0.00     0.141 A 
ATOM     15  N   UNL     1       2.967  45.588  55.267  1.00  0.00    -0.219 NA
ATOM     16  C   UNL     1       0.589  45.426  52.663  1.00  0.00     0.085 A 
ATOM     17  N   UNL     1       0.971  45.738  53.943  1.00  0.00    -0.346 N 
ATOM     18  H   UNL     1       0.387  46.141  54.662  1.00  0.00     0.167 HD
ENDBRANCH   7   9
ENDBRANCH   1   7
BRANCH   5  19
ATOM     19  O   UNL     1       7.994  47.449  51.187  1.00  0.00    -0.376 OA
BRANCH  19  20
ATOM     20  C   UNL     1       8.271  48.252  52.334  1.00  0.00     0.164 C 
BRANCH  20  21
ATOM     21  C   UNL     1       8.627  47.393  53.510  1.00  0.00     0.015 C 
ATOM     22  C   UNL     1       9.182  47.979  54.785  1.00  0.00     0.006 C 
ATOM     23  C   UNL     1      10.063  47.139  53.898  1.00  0.00     0.006 C 
ENDBRANCH  20  21
ENDBRANCH  19  20
ENDBRANCH   5  19
TORSDOF 5
ENDMDL
MODEL 7
REMARK VINA RESULT:    -7.622      3.203      4.699
REMARK INTER + INTRA:         -10.647
REMARK INTER:                  -9.941
REMARK INTRA:                  -0.706
REMARK UNBOUND:                -0.798
REMARK SMILES O=C(c1ncnc2[nH]ccc12)N1CCCC(OCC2CC2)C1
REMARK SMILES IDX 12 1 13 2 14 3 15 4 16 5 22 6 2 7 1 8 3 9 4 10 11 11 5 12
REMARK SMILES IDX 10 13 7 14 6 15 9 16 8 17 17 19 18 20 19 21 20 22 21 23
REMARK H PARENT 8 18
ROOT
ATOM      1  N   UNL     1       3.951  46.150  53.330  1.00  0.00    -0.335 N 
ATOM      2  C   UNL     1       4.315  44.740  53.413  1.00  0.00     0.120 C 
ATOM      3  C   UNL     1       5.737  44.526  53.931  1.00  0.00     0.024 C 
ATOM      4  C   UNL     1       6.070  45.505  55.058  1.00  0.00     0.036 C 
ATOM      5  C   UNL     1       5.892  46.977  54.627  1.00  0.00     0.137 C 
ATOM      6  C   UNL     1       5.063  47.097  53.338  1.00  0.00     0.151 C 
ENDROOT
BRANCH   1   7
ATOM      7  C   UNL     1       2.622  46.463  53.029  1.00  0.00     0.273 C 
ATOM      8  O   UNL     1       2.328  47.453  52.356  1.00  0.00    -0.267 OA
BRANCH   7   9
ATOM      9  C   UNL     1       1.526  45.570  53.492  1.00  0.00     0.141 A 
ATOM     10  N   UNL     1       1.189  45.580  54.813  1.00  0.00    -0.230 NA
ATOM     11  C   UNL     1       0.900  44.676  52.622  1.00  0.00     0.050 A 
ATOM     12  C   UNL     1       0.232  44.726  55.216  1.00  0.00     0.225 A 
ATOM     13  C   UNL     1       0.957  44.336  51.240  1.00  0.00     0.032 A 
ATOM     14  C   UNL     1      -0.068  43.862  53.189  1.00  0.00     0.141 A 
ATOM     15  N   UNL     1      -0.451  43.837  54.474  1.00  0.00    -0.219 NA
ATOM     16  C   UNL     1       0.032  43.338  51.012  1.00  0.00     0.085 A 
ATOM     17  N   UNL     1      -0.584  43.061  52.206  1.00  0.00    -0.346 N 
ATOM     18  H   UNL     1      -1.306  42.371  52.363  1.00  0.00     0.167 HD
ENDBRANCH   7   9
ENDBRANCH   1   7
BRANCH   5  19
ATOM     19  O   UNL     1       7.169  47.574  54.375  1.00  0.00    -0.376 OA
BRANCH  19  20
ATOM     20  C   UNL     1       7.568  47.476  53.007  1.00  0.00     0.164 C 
BRANCH  20  21
ATOM     21  C   UNL     1       9.060  47.553  52.882  1.00  0.00     0.015 C 
ATOM     22  C   UNL     1       9.903  46.326  52.642  1.00  0.00     0.006 C 
ATOM     23  C   UNL     1       9.972  47.038  53.968  1.00  0.00     0.006 C 
ENDBRANCH  20  21
ENDBRANCH  19  20
ENDBRANCH   5  19
TORSDOF 5
ENDMDL
MODEL 8
REMARK VINA RESULT:    -7.570      1.076      1.369
REMARK INTER + INTRA:         -10.581
REMARK INTER:                 -10.291
REMARK INTRA:                  -0.290
REMARK UNBOUND:                -0.798
REMARK SMILES O=C(c1ncnc2[nH]ccc12)N1CCCC(OCC2CC2)C1
REMARK SMILES IDX 12 1 13 2 14 3 15 4 16 5 22 6 2 7 1 8 3 9 4 10 11 11 5 12
REMARK SMILES IDX 10 13 7 14 6 15 9 16 8 17 17 19 18 20 19 21 20 22 21 23
REMARK H PARENT 8 18
ROOT
ATOM      1  N   UNL     1       3.922  45.247  52.950  1.00  0.00    -0.335 N 
ATOM      2  C   UNL     1       3.227  46.525  52.850  1.00  0.00     0.120 C 
ATOM      3  C   UNL     1       4.025  47.681  53.453  1.00  0.00     0.024 C 
ATOM      4  C   UNL     1       5.515  47.554  53.130  1.00  0.00     0.036 C 
ATOM      5  C   UNL     1       6.106  46.211  53.611  1.00  0.00     0.137 C 
ATOM      6  C   UNL     1       5.005  45.186  53.928  1.00  0.00     0.151 C 
ENDROOT
BRANCH   1   7
ATOM      7  C   UNL     1       3.366  44.150  52.287  1.00  0.00     0.273 C 
ATOM      8  O   UNL     1       2.161  43.897  52.353  1.00  0.00    -0.267 OA
BRANCH   7   9
ATOM      9  C   UNL     1       4.226  43.277  51.444  1.00  0.00     0.141 A 
ATOM     10  N   UNL     1       3.934  41.948  51.368  1.00  0.00    -0.230 NA
ATOM     11  C   UNL     1       5.362  43.777  50.802  1.00  0.00     0.050 A 
ATOM     12  C   UNL     1       4.758  41.171  50.643  1.00  0.00     0.225 A 
ATOM     13  C   UNL     1       6.017  45.032  50.645  1.00  0.00     0.032 A 
ATOM     14  C   UNL     1       6.109  42.850  50.093  1.00  0.00     0.141 A 
ATOM     15  N   UNL     1       5.862  41.537  49.970  1.00  0.00    -0.219 NA
ATOM     16  C   UNL     1       7.127  44.831  49.852  1.00  0.00     0.085 A 
ATOM     17  N   UNL     1       7.170  43.500  49.523  1.00  0.00    -0.346 N 
ATOM     18  H   UNL     1       7.871  43.044  48.956  1.00  0.00     0.167 HD
ENDBRANCH   7   9
ENDBRANCH   1   7
BRANCH   5  19
ATOM     19  O   UNL     1       6.869  46.408  54.807  1.00  0.00    -0.376 OA
BRANCH  19  20
ATOM     20  C   UNL     1       8.113  47.068  54.569  1.00  0.00     0.164 C 
BRANCH  20  21
ATOM     21  C   UNL     1       8.837  46.435  53.418  1.00  0.00     0.015 C 
ATOM     22  C   UNL     1      10.270  46.779  53.094  1.00  0.00     0.006 C 
ATOM     23  C   UNL     1       9.164  47.212  52.168  1.00  0.00     0.006 C 
ENDBRANCH  20  21
ENDBRANCH  19  20
ENDBRANCH   5  19
TORSDOF 5
ENDMDL
MODEL 9
REMARK VINA RESULT:    -7.534      2.590      5.421
REMARK INTER + INTRA:         -10.534
REMARK INTER:                  -9.913
REMARK INTRA:                  -0.621
REMARK UNBOUND:                -0.798
REMARK SMILES O=C(c1ncnc2[nH]ccc12)N1CCCC(OCC2CC2)C1
REMARK SMILES IDX 12 1 13 2 14 3 15 4 16 5 22 6 2 7 1 8 3 9 4 10 11 11 5 12
REMARK SMILES IDX 10 13 7 14 6 15 9 16 8 17 17 19 18 20 19 21 20 22 21 23
REMARK H PARENT 8 18
ROOT
ATOM      1  N   UNL     1       5.923  46.652  53.227  1.00  0.00    -0.335 N 
ATOM      2  C   UNL     1       7.109  46.834  54.056  1.00  0.00     0.120 C 
ATOM      3  C   UNL     1       8.389  46.356  53.370  1.00  0.00     0.024 C 
ATOM      4  C   UNL     1       8.389  46.719  51.883  1.00  0.00     0.036 C 
ATOM      5  C   UNL     1       7.161  46.149  51.141  1.00  0.00     0.137 C 
ATOM      6  C   UNL     1       6.058  45.710  52.119  1.00  0.00     0.151 C 
ENDROOT
BRANCH   1   7
ATOM      7  C   UNL     1       4.721  47.202  53.681  1.00  0.00     0.273 C 
ATOM      8  O   UNL     1       4.556  48.421  53.756  1.00  0.00    -0.267 OA
BRANCH   7   9
ATOM      9  C   UNL     1       3.589  46.311  54.050  1.00  0.00     0.141 A 
ATOM     10  N   UNL     1       3.448  45.939  55.354  1.00  0.00    -0.230 NA
ATOM     11  C   UNL     1       2.727  45.791  53.082  1.00  0.00     0.050 A 
ATOM     12  C   UNL     1       2.449  45.090  55.653  1.00  0.00     0.225 A 
ATOM     13  C   UNL     1       2.539  45.893  51.674  1.00  0.00     0.032 A 
ATOM     14  C   UNL     1       1.746  44.930  53.550  1.00  0.00     0.141 A 
ATOM     15  N   UNL     1       1.550  44.541  54.818  1.00  0.00    -0.219 NA
ATOM     16  C   UNL     1       1.461  45.102  51.333  1.00  0.00     0.085 A 
ATOM     17  N   UNL     1       0.989  44.523  52.484  1.00  0.00    -0.346 N 
ATOM     18  H   UNL     1       0.209  43.886  52.559  1.00  0.00     0.167 HD
ENDBRANCH   7   9
ENDBRANCH   1   7
BRANCH   5  19
ATOM     19  O   UNL     1       7.538  45.001  50.373  1.00  0.00    -0.376 OA
BRANCH  19  20
ATOM     20  C   UNL     1       6.452  44.102  50.148  1.00  0.00     0.164 C 
BRANCH  20  21
ATOM     21  C   UNL     1       6.927  42.855  49.465  1.00  0.00     0.015 C 
ATOM     22  C   UNL     1       6.010  42.016  48.611  1.00  0.00     0.006 C 
ATOM     23  C   UNL     1       6.501  41.486  49.933  1.00  0.00     0.006 C 
ENDBRANCH  20  21
ENDBRANCH  19  20
ENDBRANCH   5  19
TORSDOF 5
ENDMDL
MODEL 10
REMARK VINA RESULT:    -7.426      3.084      5.328
REMARK INTER + INTRA:         -10.394
REMARK INTER:                  -9.764
REMARK INTRA:                  -0.630
REMARK UNBOUND:                -0.798
REMARK SMILES O=C(c1ncnc2[nH]ccc12)N1CCCC(OCC2CC2)C1
REMARK SMILES IDX 12 1 13 2 14 3 15 4 16 5 22 6 2 7 1 8 3 9 4 10 11 11 5 12
REMARK SMILES IDX 10 13 7 14 6 15 9 16 8 17 17 19 18 20 19 21 20 22 21 23
REMARK H PARENT 8 18
ROOT
ATOM      1  N   UNL     1       3.332  44.477  52.328  1.00  0.00    -0.335 N 
ATOM      2  C   UNL     1       2.765  45.222  51.210  1.00  0.00     0.120 C 
ATOM      3  C   UNL     1       3.632  46.409  50.789  1.00  0.00     0.024 C 
ATOM      4  C   UNL     1       5.120  46.053  50.841  1.00  0.00     0.036 C 
ATOM      5  C   UNL     1       5.556  45.562  52.238  1.00  0.00     0.137 C 
ATOM      6  C   UNL     1       4.349  45.176  53.109  1.00  0.00     0.151 C 
ENDROOT
BRANCH   1   7
ATOM      7  C   UNL     1       2.713  43.277  52.691  1.00  0.00     0.273 C 
ATOM      8  O   UNL     1       3.329  42.210  52.702  1.00  0.00    -0.267 OA
BRANCH   7   9
ATOM      9  C   UNL     1       1.287  43.276  53.114  1.00  0.00     0.141 A 
ATOM     10  N   UNL     1       0.369  42.662  52.316  1.00  0.00    -0.230 NA
ATOM     11  C   UNL     1       0.868  43.955  54.261  1.00  0.00     0.050 A 
ATOM     12  C   UNL     1      -0.920  42.721  52.693  1.00  0.00     0.225 A 
ATOM     13  C   UNL     1       1.460  44.710  55.313  1.00  0.00     0.032 A 
ATOM     14  C   UNL     1      -0.494  43.922  54.515  1.00  0.00     0.141 A 
ATOM     15  N   UNL     1      -1.440  43.323  53.777  1.00  0.00    -0.219 NA
ATOM     16  C   UNL     1       0.450  45.107  56.166  1.00  0.00     0.085 A 
ATOM     17  N   UNL     1      -0.732  44.620  55.668  1.00  0.00    -0.346 N 
ATOM     18  H   UNL     1      -1.650  44.749  56.069  1.00  0.00     0.167 HD
ENDBRANCH   7   9
ENDBRANCH   1   7
BRANCH   5  19
ATOM     19  O   UNL     1       6.268  46.599  52.924  1.00  0.00    -0.376 OA
BRANCH  19  20
ATOM     20  C   UNL     1       7.525  46.161  53.440  1.00  0.00     0.164 C 
BRANCH  20  21
ATOM     21  C   UNL     1       8.601  47.159  53.134  1.00  0.00     0.015 C 
ATOM     22  C   UNL     1       9.897  46.756  52.477  1.00  0.00     0.006 C 
ATOM     23  C   UNL     1       9.890  47.197  53.917  1.00  0.00     0.006 C 
ENDBRANCH  20  21
ENDBRANCH  19  20
ENDBRANCH   5  19
TORSDOF 5
ENDMDL
