MODEL 1
REMARK VINA RESULT:    -9.758      0.000      0.000
REMARK INTER + INTRA:         -12.923
REMARK INTER:                 -12.039
REMARK INTRA:                  -0.884
REMARK UNBOUND:                -0.884
REMARK SMILES C[NH+]1CC[NH+](C2CCN(c3nc(Nc4ccccc4)c4[nH]cnc4n3)C2)CC1
REMARK SMILES IDX 10 1 11 2 12 3 20 4 21 5 22 6 23 7 24 8 25 9 9 11 6 12 7 13
REMARK SMILES IDX 26 14 8 15 5 16 2 17 3 18 28 19 4 20 27 21 1 22 13 25 14 27
REMARK SMILES IDX 15 28 19 29 16 30 18 31 17 32
REMARK H PARENT 21 10 2 23 5 24 13 26
ROOT
ATOM      1  C   UNL     1       4.025  44.048  51.539  1.00  0.00     0.229 A 
ATOM      2  N   UNL     1       4.948  45.025  51.366  1.00  0.00    -0.193 NA
ATOM      3  C   UNL     1       6.103  44.749  50.705  1.00  0.00     0.162 A 
ATOM      4  C   UNL     1       6.263  43.449  50.256  1.00  0.00     0.128 A 
ATOM      5  N   UNL     1       7.235  42.758  49.583  1.00  0.00    -0.340 N 
ATOM      6  C   UNL     1       6.817  41.461  49.467  1.00  0.00     0.199 A 
ATOM      7  N   UNL     1       5.646  41.282  50.038  1.00  0.00    -0.217 NA
ATOM      8  C   UNL     1       5.295  42.503  50.528  1.00  0.00     0.184 A 
ATOM      9  N   UNL     1       4.163  42.776  51.193  1.00  0.00    -0.191 NA
ATOM     10  H   UNL     1       8.122  43.123  49.247  1.00  0.00     0.168 HD
ENDROOT
BRANCH   1  11
ATOM     11  N   UNL     1       2.875  44.471  52.193  1.00  0.00    -0.335 N 
ATOM     12  C   UNL     1       1.711  45.840  53.598  1.00  0.00     0.205 C 
ATOM     13  C   UNL     1       0.861  45.705  52.326  1.00  0.00     0.088 C 
ATOM     14  C   UNL     1       3.126  45.613  53.063  1.00  0.00     0.184 C 
ATOM     15  C   UNL     1       1.705  44.826  51.371  1.00  0.00     0.126 C 
BRANCH  12  16
ATOM     16  N   UNL     1       1.306  44.794  54.688  1.00  0.00    -0.322 N 
ATOM     17  N   UNL     1      -0.774  45.927  56.311  1.00  0.00    -0.328 N 
ATOM     18  C   UNL     1      -1.151  44.677  55.551  1.00  0.00     0.324 C 
ATOM     19  C   UNL     1       0.575  45.826  56.985  1.00  0.00     0.324 C 
ATOM     20  C   UNL     1      -0.103  44.228  54.487  1.00  0.00     0.324 C 
ATOM     21  C   UNL     1       1.632  45.044  56.163  1.00  0.00     0.324 C 
ATOM     22  C   UNL     1      -1.859  46.326  57.292  1.00  0.00     0.333 C 
ATOM     23  H   UNL     1      -0.716  46.761  55.686  1.00  0.00     0.348 HD
ATOM     24  H   UNL     1       1.934  44.011  54.443  1.00  0.00     0.348 HD
ENDBRANCH  12  16
ENDBRANCH   1  11
BRANCH   3  25
ATOM     25  N   UNL     1       7.037  45.774  50.507  1.00  0.00    -0.338 N 
ATOM     26  H   UNL     1       7.585  45.587  49.668  1.00  0.00     0.168 HD
BRANCH  25  27
ATOM     27  C   UNL     1       7.949  46.226  51.498  1.00  0.00     0.040 A 
ATOM     28  C   UNL     1       9.303  45.898  51.349  1.00  0.00     0.026 A 
ATOM     29  C   UNL     1       7.573  47.044  52.572  1.00  0.00     0.026 A 
ATOM     30  C   UNL     1      10.256  46.358  52.260  1.00  0.00     0.002 A 
ATOM     31  C   UNL     1       8.530  47.505  53.480  1.00  0.00     0.002 A 
ATOM     32  C   UNL     1       9.869  47.162  53.324  1.00  0.00     0.000 A 
ENDBRANCH  25  27
ENDBRANCH   3  25
TORSDOF 4
ENDMDL
MODEL 2
REMARK VINA RESULT:    -9.420      1.577      2.501
REMARK INTER + INTRA:         -12.507
REMARK INTER:                 -11.939
REMARK INTRA:                  -0.568
REMARK UNBOUND:                -0.884
REMARK SMILES C[NH+]1CC[NH+](C2CCN(c3nc(Nc4ccccc4)c4[nH]cnc4n3)C2)CC1
REMARK SMILES IDX 10 1 11 2 12 3 20 4 21 5 22 6 23 7 24 8 25 9 9 11 6 12 7 13
REMARK SMILES IDX 26 14 8 15 5 16 2 17 3 18 28 19 4 20 27 21 1 22 13 25 14 27
REMARK SMILES IDX 15 28 19 29 16 30 18 31 17 32
REMARK H PARENT 21 10 2 23 5 24 13 26
ROOT
ATOM      1  C   UNL     1       3.898  44.212  52.283  1.00  0.00     0.229 A 
ATOM      2  N   UNL     1       4.812  45.184  52.050  1.00  0.00    -0.193 NA
ATOM      3  C   UNL     1       5.826  44.957  51.174  1.00  0.00     0.162 A 
ATOM      4  C   UNL     1       5.860  43.708  50.578  1.00  0.00     0.128 A 
ATOM      5  N   UNL     1       6.676  43.073  49.680  1.00  0.00    -0.340 N 
ATOM      6  C   UNL     1       6.197  41.803  49.511  1.00  0.00     0.199 A 
ATOM      7  N   UNL     1       5.135  41.587  50.256  1.00  0.00    -0.217 NA
ATOM      8  C   UNL     1       4.918  42.757  50.919  1.00  0.00     0.184 A 
ATOM      9  N   UNL     1       3.928  42.980  51.795  1.00  0.00    -0.191 NA
ATOM     10  H   UNL     1       7.505  43.454  49.233  1.00  0.00     0.168 HD
ENDROOT
BRANCH   1  11
ATOM     11  N   UNL     1       2.893  44.586  53.167  1.00  0.00    -0.335 N 
ATOM     12  C   UNL     1       1.076  44.181  54.483  1.00  0.00     0.205 C 
ATOM     13  C   UNL     1       2.046  45.014  55.334  1.00  0.00     0.088 C 
ATOM     14  C   UNL     1       2.026  43.470  53.518  1.00  0.00     0.184 C 
ATOM     15  C   UNL     1       3.292  45.217  54.437  1.00  0.00     0.126 C 
BRANCH  12  16
ATOM     16  N   UNL     1       0.026  45.075  53.745  1.00  0.00    -0.322 N 
ATOM     17  N   UNL     1      -1.789  43.364  52.323  1.00  0.00    -0.328 N 
ATOM     18  C   UNL     1      -2.413  44.224  53.396  1.00  0.00     0.324 C 
ATOM     19  C   UNL     1      -0.812  44.119  51.451  1.00  0.00     0.324 C 
ATOM     20  C   UNL     1      -1.387  44.947  54.321  1.00  0.00     0.324 C 
ATOM     21  C   UNL     1       0.029  45.173  52.216  1.00  0.00     0.324 C 
ATOM     22  C   UNL     1      -2.846  42.659  51.494  1.00  0.00     0.333 C 
ATOM     23  H   UNL     1      -1.249  42.566  52.727  1.00  0.00     0.348 HD
ATOM     24  H   UNL     1       0.338  46.016  54.036  1.00  0.00     0.348 HD
ENDBRANCH  12  16
ENDBRANCH   1  11
BRANCH   3  25
ATOM     25  N   UNL     1       6.748  45.979  50.919  1.00  0.00    -0.338 N 
ATOM     26  H   UNL     1       7.194  45.828  50.015  1.00  0.00     0.168 HD
BRANCH  25  27
ATOM     27  C   UNL     1       7.777  46.371  51.819  1.00  0.00     0.040 A 
ATOM     28  C   UNL     1       9.097  46.021  51.507  1.00  0.00     0.026 A 
ATOM     29  C   UNL     1       7.543  47.150  52.960  1.00  0.00     0.026 A 
ATOM     30  C   UNL     1      10.156  46.424  52.322  1.00  0.00     0.002 A 
ATOM     31  C   UNL     1       8.605  47.553  53.773  1.00  0.00     0.002 A 
ATOM     32  C   UNL     1       9.911  47.190  53.454  1.00  0.00     0.000 A 
ENDBRANCH  25  27
ENDBRANCH   3  25
TORSDOF 4
ENDMDL
MODEL 3
REMARK VINA RESULT:    -9.140      1.434      2.375
REMARK INTER + INTRA:         -12.161
REMARK INTER:                 -11.494
REMARK INTRA:                  -0.667
REMARK UNBOUND:                -0.884
REMARK SMILES C[NH+]1CC[NH+](C2CCN(c3nc(Nc4ccccc4)c4[nH]cnc4n3)C2)CC1
REMARK SMILES IDX 10 1 11 2 12 3 20 4 21 5 22 6 23 7 24 8 25 9 9 11 6 12 7 13
REMARK SMILES IDX 26 14 8 15 5 16 2 17 3 18 28 19 4 20 27 21 1 22 13 25 14 27
REMARK SMILES IDX 15 28 19 29 16 30 18 31 17 32
REMARK H PARENT 21 10 2 23 5 24 13 26
ROOT
ATOM      1  C   UNL     1       4.250  43.731  51.350  1.00  0.00     0.229 A 
ATOM      2  N   UNL     1       5.088  44.792  51.261  1.00  0.00    -0.193 NA
ATOM      3  C   UNL     1       6.269  44.662  50.603  1.00  0.00     0.162 A 
ATOM      4  C   UNL     1       6.546  43.415  50.069  1.00  0.00     0.128 A 
ATOM      5  N   UNL     1       7.581  42.857  49.367  1.00  0.00    -0.340 N 
ATOM      6  C   UNL     1       7.276  41.540  49.155  1.00  0.00     0.199 A 
ATOM      7  N   UNL     1       6.118  41.223  49.691  1.00  0.00    -0.217 NA
ATOM      8  C   UNL     1       5.658  42.374  50.258  1.00  0.00     0.184 A 
ATOM      9  N   UNL     1       4.500  42.502  50.920  1.00  0.00    -0.191 NA
ATOM     10  H   UNL     1       8.437  43.318  49.072  1.00  0.00     0.168 HD
ENDROOT
BRANCH   1  11
ATOM     11  N   UNL     1       3.060  44.009  52.011  1.00  0.00    -0.335 N 
ATOM     12  C   UNL     1       0.958  44.882  52.154  1.00  0.00     0.205 C 
ATOM     13  C   UNL     1       0.875  43.462  52.734  1.00  0.00     0.088 C 
ATOM     14  C   UNL     1       2.131  44.761  51.178  1.00  0.00     0.184 C 
ATOM     15  C   UNL     1       2.298  42.876  52.564  1.00  0.00     0.126 C 
BRANCH  12  16
ATOM     16  N   UNL     1       1.207  45.956  53.262  1.00  0.00    -0.322 N 
ATOM     17  N   UNL     1       3.755  45.437  54.479  1.00  0.00    -0.328 N 
ATOM     18  C   UNL     1       3.628  46.771  53.784  1.00  0.00     0.324 C 
ATOM     19  C   UNL     1       2.560  45.100  55.340  1.00  0.00     0.324 C 
ATOM     20  C   UNL     1       2.341  46.927  52.917  1.00  0.00     0.324 C 
ATOM     21  C   UNL     1       1.205  45.560  54.742  1.00  0.00     0.324 C 
ATOM     22  C   UNL     1       5.050  45.343  55.263  1.00  0.00     0.333 C 
ATOM     23  H   UNL     1       3.845  44.649  53.799  1.00  0.00     0.348 HD
ATOM     24  H   UNL     1       0.348  46.523  53.175  1.00  0.00     0.348 HD
ENDBRANCH  12  16
ENDBRANCH   1  11
BRANCH   3  25
ATOM     25  N   UNL     1       7.114  45.773  50.491  1.00  0.00    -0.338 N 
ATOM     26  H   UNL     1       7.709  45.677  49.669  1.00  0.00     0.168 HD
BRANCH  25  27
ATOM     27  C   UNL     1       7.945  46.254  51.540  1.00  0.00     0.040 A 
ATOM     28  C   UNL     1       9.321  46.008  51.459  1.00  0.00     0.026 A 
ATOM     29  C   UNL     1       7.464  47.024  52.608  1.00  0.00     0.026 A 
ATOM     30  C   UNL     1      10.195  46.501  52.430  1.00  0.00     0.002 A 
ATOM     31  C   UNL     1       8.342  47.517  53.577  1.00  0.00     0.002 A 
ATOM     32  C   UNL     1       9.706  47.256  53.487  1.00  0.00     0.000 A 
ENDBRANCH  25  27
ENDBRANCH   3  25
TORSDOF 4
ENDMDL
MODEL 4
REMARK VINA RESULT:    -8.971      1.905      2.620
REMARK INTER + INTRA:         -11.952
REMARK INTER:                 -11.160
REMARK INTRA:                  -0.792
REMARK UNBOUND:                -0.884
REMARK SMILES C[NH+]1CC[NH+](C2CCN(c3nc(Nc4ccccc4)c4[nH]cnc4n3)C2)CC1
REMARK SMILES IDX 10 1 11 2 12 3 20 4 21 5 22 6 23 7 24 8 25 9 9 11 6 12 7 13
REMARK SMILES IDX 26 14 8 15 5 16 2 17 3 18 28 19 4 20 27 21 1 22 13 25 14 27
REMARK SMILES IDX 15 28 19 29 16 30 18 31 17 32
REMARK H PARENT 21 10 2 23 5 24 13 26
ROOT
ATOM      1  C   UNL     1       4.240  44.319  51.547  1.00  0.00     0.229 A 
ATOM      2  N   UNL     1       4.944  45.443  51.820  1.00  0.00    -0.193 NA
ATOM      3  C   UNL     1       6.170  45.620  51.261  1.00  0.00     0.162 A 
ATOM      4  C   UNL     1       6.629  44.602  50.443  1.00  0.00     0.128 A 
ATOM      5  N   UNL     1       7.766  44.368  49.716  1.00  0.00    -0.340 N 
ATOM      6  C   UNL     1       7.639  43.136  49.135  1.00  0.00     0.199 A 
ATOM      7  N   UNL     1       6.499  42.567  49.460  1.00  0.00    -0.217 NA
ATOM      8  C   UNL     1       5.868  43.464  50.268  1.00  0.00     0.184 A 
ATOM      9  N   UNL     1       4.664  43.287  50.832  1.00  0.00    -0.191 NA
ATOM     10  H   UNL     1       8.575  44.977  49.633  1.00  0.00     0.168 HD
ENDROOT
BRANCH   1  11
ATOM     11  N   UNL     1       2.987  44.281  52.148  1.00  0.00    -0.335 N 
ATOM     12  C   UNL     1       1.089  43.230  52.849  1.00  0.00     0.205 C 
ATOM     13  C   UNL     1       1.556  44.104  54.023  1.00  0.00     0.088 C 
ATOM     14  C   UNL     1       2.403  42.947  52.119  1.00  0.00     0.184 C 
ATOM     15  C   UNL     1       2.876  44.752  53.540  1.00  0.00     0.126 C 
BRANCH  12  16
ATOM     16  N   UNL     1       0.046  43.966  51.947  1.00  0.00    -0.322 N 
ATOM     17  N   UNL     1      -2.533  43.779  53.194  1.00  0.00    -0.328 N 
ATOM     18  C   UNL     1      -1.997  45.180  53.019  1.00  0.00     0.324 C 
ATOM     19  C   UNL     1      -2.358  42.919  51.964  1.00  0.00     0.324 C 
ATOM     20  C   UNL     1      -0.502  45.248  52.582  1.00  0.00     0.324 C 
ATOM     21  C   UNL     1      -1.032  43.175  51.201  1.00  0.00     0.324 C 
ATOM     22  C   UNL     1      -3.975  43.794  53.663  1.00  0.00     0.333 C 
ATOM     23  H   UNL     1      -2.049  43.269  53.966  1.00  0.00     0.348 HD
ATOM     24  H   UNL     1       0.657  44.299  51.182  1.00  0.00     0.348 HD
ENDBRANCH  12  16
ENDBRANCH   1  11
BRANCH   3  25
ATOM     25  N   UNL     1       6.876  46.800  51.526  1.00  0.00    -0.338 N 
ATOM     26  H   UNL     1       7.211  47.209  50.654  1.00  0.00     0.168 HD
BRANCH  25  27
ATOM     27  C   UNL     1       7.945  46.900  52.458  1.00  0.00     0.040 A 
ATOM     28  C   UNL     1       9.234  46.561  52.025  1.00  0.00     0.026 A 
ATOM     29  C   UNL     1       7.784  47.389  53.761  1.00  0.00     0.026 A 
ATOM     30  C   UNL     1      10.332  46.689  52.877  1.00  0.00     0.002 A 
ATOM     31  C   UNL     1       8.886  47.519  54.611  1.00  0.00     0.002 A 
ATOM     32  C   UNL     1      10.159  47.169  54.168  1.00  0.00     0.000 A 
ENDBRANCH  25  27
ENDBRANCH   3  25
TORSDOF 4
ENDMDL
MODEL 5
REMARK VINA RESULT:    -8.764      2.134      4.723
REMARK INTER + INTRA:         -11.698
REMARK INTER:                 -10.838
REMARK INTRA:                  -0.860
REMARK UNBOUND:                -0.884
REMARK SMILES C[NH+]1CC[NH+](C2CCN(c3nc(Nc4ccccc4)c4[nH]cnc4n3)C2)CC1
REMARK SMILES IDX 10 1 11 2 12 3 20 4 21 5 22 6 23 7 24 8 25 9 9 11 6 12 7 13
REMARK SMILES IDX 26 14 8 15 5 16 2 17 3 18 28 19 4 20 27 21 1 22 13 25 14 27
REMARK SMILES IDX 15 28 19 29 16 30 18 31 17 32
REMARK H PARENT 21 10 2 23 5 24 13 26
ROOT
ATOM      1  C   UNL     1       3.811  45.999  54.040  1.00  0.00     0.229 A 
ATOM      2  N   UNL     1       4.003  45.641  52.748  1.00  0.00    -0.193 NA
ATOM      3  C   UNL     1       5.229  45.797  52.182  1.00  0.00     0.162 A 
ATOM      4  C   UNL     1       6.216  46.341  52.986  1.00  0.00     0.128 A 
ATOM      5  N   UNL     1       7.536  46.672  52.828  1.00  0.00    -0.340 N 
ATOM      6  C   UNL     1       7.968  47.221  54.004  1.00  0.00     0.199 A 
ATOM      7  N   UNL     1       7.002  47.273  54.894  1.00  0.00    -0.217 NA
ATOM      8  C   UNL     1       5.915  46.732  54.276  1.00  0.00     0.184 A 
ATOM      9  N   UNL     1       4.701  46.589  54.826  1.00  0.00    -0.191 NA
ATOM     10  H   UNL     1       8.097  46.560  51.989  1.00  0.00     0.168 HD
ENDROOT
BRANCH   1  11
ATOM     11  N   UNL     1       2.527  45.749  54.507  1.00  0.00    -0.335 N 
ATOM     12  C   UNL     1       0.712  44.420  54.882  1.00  0.00     0.205 C 
ATOM     13  C   UNL     1       0.977  45.168  56.197  1.00  0.00     0.088 C 
ATOM     14  C   UNL     1       2.106  44.378  54.252  1.00  0.00     0.184 C 
ATOM     15  C   UNL     1       2.248  46.010  55.930  1.00  0.00     0.126 C 
BRANCH  12  16
ATOM     16  N   UNL     1      -0.331  45.162  53.984  1.00  0.00    -0.322 N 
ATOM     17  N   UNL     1      -1.707  43.213  52.386  1.00  0.00    -0.328 N 
ATOM     18  C   UNL     1      -2.575  43.999  53.341  1.00  0.00     0.324 C 
ATOM     19  C   UNL     1      -0.725  44.077  51.629  1.00  0.00     0.324 C 
ATOM     20  C   UNL     1      -1.783  44.860  54.372  1.00  0.00     0.324 C 
ATOM     21  C   UNL     1      -0.135  45.240  52.468  1.00  0.00     0.324 C 
ATOM     22  C   UNL     1      -2.545  42.367  51.446  1.00  0.00     0.333 C 
ATOM     23  H   UNL     1      -1.131  42.497  52.882  1.00  0.00     0.348 HD
ATOM     24  H   UNL     1      -0.183  46.138  54.286  1.00  0.00     0.348 HD
ENDBRANCH  12  16
ENDBRANCH   1  11
BRANCH   3  25
ATOM     25  N   UNL     1       5.423  45.396  50.855  1.00  0.00    -0.338 N 
ATOM     26  H   UNL     1       4.647  45.717  50.277  1.00  0.00     0.168 HD
BRANCH  25  27
ATOM     27  C   UNL     1       5.702  44.061  50.455  1.00  0.00     0.040 A 
ATOM     28  C   UNL     1       6.882  43.817  49.740  1.00  0.00     0.026 A 
ATOM     29  C   UNL     1       4.894  42.970  50.805  1.00  0.00     0.026 A 
ATOM     30  C   UNL     1       7.238  42.520  49.367  1.00  0.00     0.002 A 
ATOM     31  C   UNL     1       5.255  41.673  50.432  1.00  0.00     0.002 A 
ATOM     32  C   UNL     1       6.426  41.449  49.714  1.00  0.00     0.000 A 
ENDBRANCH  25  27
ENDBRANCH   3  25
TORSDOF 4
ENDMDL
MODEL 6
REMARK VINA RESULT:    -8.762      2.430      5.540
REMARK INTER + INTRA:         -11.694
REMARK INTER:                 -11.000
REMARK INTRA:                  -0.695
REMARK UNBOUND:                -0.884
REMARK SMILES C[NH+]1CC[NH+](C2CCN(c3nc(Nc4ccccc4)c4[nH]cnc4n3)C2)CC1
REMARK SMILES IDX 10 1 11 2 12 3 20 4 21 5 22 6 23 7 24 8 25 9 9 11 6 12 7 13
REMARK SMILES IDX 26 14 8 15 5 16 2 17 3 18 28 19 4 20 27 21 1 22 13 25 14 27
REMARK SMILES IDX 15 28 19 29 16 30 18 31 17 32
REMARK H PARENT 21 10 2 23 5 24 13 26
ROOT
ATOM      1  C   UNL     1       4.749  43.752  51.156  1.00  0.00     0.229 A 
ATOM      2  N   UNL     1       4.717  42.652  50.366  1.00  0.00    -0.193 NA
ATOM      3  C   UNL     1       5.780  42.367  49.568  1.00  0.00     0.162 A 
ATOM      4  C   UNL     1       6.840  43.256  49.610  1.00  0.00     0.128 A 
ATOM      5  N   UNL     1       8.056  43.359  48.988  1.00  0.00    -0.340 N 
ATOM      6  C   UNL     1       8.651  44.509  49.431  1.00  0.00     0.199 A 
ATOM      7  N   UNL     1       7.882  45.150  50.284  1.00  0.00    -0.217 NA
ATOM      8  C   UNL     1       6.761  44.384  50.402  1.00  0.00     0.184 A 
ATOM      9  N   UNL     1       5.706  44.669  51.177  1.00  0.00    -0.191 NA
ATOM     10  H   UNL     1       8.448  42.721  48.302  1.00  0.00     0.168 HD
ENDROOT
BRANCH   1  11
ATOM     11  N   UNL     1       3.620  43.905  51.951  1.00  0.00    -0.335 N 
ATOM     12  C   UNL     1       1.438  44.461  52.315  1.00  0.00     0.205 C 
ATOM     13  C   UNL     1       1.655  43.101  52.995  1.00  0.00     0.088 C 
ATOM     14  C   UNL     1       2.487  44.433  51.201  1.00  0.00     0.184 C 
ATOM     15  C   UNL     1       3.123  42.723  52.676  1.00  0.00     0.126 C 
BRANCH  12  16
ATOM     16  N   UNL     1       1.645  45.653  53.305  1.00  0.00    -0.322 N 
ATOM     17  N   UNL     1       4.416  45.747  54.053  1.00  0.00    -0.328 N 
ATOM     18  C   UNL     1       3.897  46.967  53.329  1.00  0.00     0.324 C 
ATOM     19  C   UNL     1       3.481  45.257  55.135  1.00  0.00     0.324 C 
ATOM     20  C   UNL     1       2.477  46.794  52.710  1.00  0.00     0.324 C 
ATOM     21  C   UNL     1       1.979  45.392  54.777  1.00  0.00     0.324 C 
ATOM     22  C   UNL     1       5.817  45.975  54.587  1.00  0.00     0.333 C 
ATOM     23  H   UNL     1       4.549  44.937  53.407  1.00  0.00     0.348 HD
ATOM     24  H   UNL     1       0.685  46.032  53.351  1.00  0.00     0.348 HD
ENDBRANCH  12  16
ENDBRANCH   1  11
BRANCH   3  25
ATOM     25  N   UNL     1       5.749  41.211  48.779  1.00  0.00    -0.338 N 
ATOM     26  H   UNL     1       6.697  40.864  48.633  1.00  0.00     0.168 HD
BRANCH  25  27
ATOM     27  C   UNL     1       5.084  41.115  47.526  1.00  0.00     0.040 A 
ATOM     28  C   UNL     1       3.877  40.405  47.470  1.00  0.00     0.026 A 
ATOM     29  C   UNL     1       5.536  41.757  46.366  1.00  0.00     0.026 A 
ATOM     30  C   UNL     1       3.150  40.321  46.282  1.00  0.00     0.002 A 
ATOM     31  C   UNL     1       4.805  41.673  45.178  1.00  0.00     0.002 A 
ATOM     32  C   UNL     1       3.612  40.956  45.137  1.00  0.00     0.000 A 
ENDBRANCH  25  27
ENDBRANCH   3  25
TORSDOF 4
ENDMDL
MODEL 7
REMARK VINA RESULT:    -8.393      1.968      4.773
REMARK INTER + INTRA:         -11.239
REMARK INTER:                 -10.460
REMARK INTRA:                  -0.779
REMARK UNBOUND:                -0.884
REMARK SMILES C[NH+]1CC[NH+](C2CCN(c3nc(Nc4ccccc4)c4[nH]cnc4n3)C2)CC1
REMARK SMILES IDX 10 1 11 2 12 3 20 4 21 5 22 6 23 7 24 8 25 9 9 11 6 12 7 13
REMARK SMILES IDX 26 14 8 15 5 16 2 17 3 18 28 19 4 20 27 21 1 22 13 25 14 27
REMARK SMILES IDX 15 28 19 29 16 30 18 31 17 32
REMARK H PARENT 21 10 2 23 5 24 13 26
ROOT
ATOM      1  C   UNL     1       4.710  44.358  51.267  1.00  0.00     0.229 A 
ATOM      2  N   UNL     1       4.587  43.151  50.665  1.00  0.00    -0.193 NA
ATOM      3  C   UNL     1       5.633  42.640  49.965  1.00  0.00     0.162 A 
ATOM      4  C   UNL     1       6.776  43.420  49.903  1.00  0.00     0.128 A 
ATOM      5  N   UNL     1       8.009  43.305  49.320  1.00  0.00    -0.340 N 
ATOM      6  C   UNL     1       8.705  44.450  49.594  1.00  0.00     0.199 A 
ATOM      7  N   UNL     1       7.985  45.292  50.303  1.00  0.00    -0.217 NA
ATOM      8  C   UNL     1       6.791  44.665  50.499  1.00  0.00     0.184 A 
ATOM      9  N   UNL     1       5.752  45.172  51.178  1.00  0.00    -0.191 NA
ATOM     10  H   UNL     1       8.351  42.529  48.761  1.00  0.00     0.168 HD
ENDROOT
BRANCH   1  11
ATOM     11  N   UNL     1       3.584  44.745  51.984  1.00  0.00    -0.335 N 
ATOM     12  C   UNL     1       2.495  45.958  53.579  1.00  0.00     0.205 C 
ATOM     13  C   UNL     1       1.640  46.055  52.306  1.00  0.00     0.088 C 
ATOM     14  C   UNL     1       3.896  45.734  53.007  1.00  0.00     0.184 C 
ATOM     15  C   UNL     1       2.436  45.278  51.229  1.00  0.00     0.126 C 
BRANCH  12  16
ATOM     16  N   UNL     1       2.032  44.790  54.509  1.00  0.00    -0.322 N 
ATOM     17  N   UNL     1      -0.402  45.575  55.815  1.00  0.00    -0.328 N 
ATOM     18  C   UNL     1      -0.507  44.363  54.920  1.00  0.00     0.324 C 
ATOM     19  C   UNL     1       0.818  45.549  56.707  1.00  0.00     0.324 C 
ATOM     20  C   UNL     1       0.747  44.109  54.028  1.00  0.00     0.324 C 
ATOM     21  C   UNL     1       2.077  44.946  56.032  1.00  0.00     0.324 C 
ATOM     22  C   UNL     1      -1.673  45.783  56.616  1.00  0.00     0.333 C 
ATOM     23  H   UNL     1      -0.333  46.461  55.266  1.00  0.00     0.348 HD
ATOM     24  H   UNL     1       2.775  44.095  54.327  1.00  0.00     0.348 HD
ENDBRANCH  12  16
ENDBRANCH   1  11
BRANCH   3  25
ATOM     25  N   UNL     1       5.505  41.378  49.371  1.00  0.00    -0.338 N 
ATOM     26  H   UNL     1       6.383  40.866  49.451  1.00  0.00     0.168 HD
BRANCH  25  27
ATOM     27  C   UNL     1       5.026  41.161  48.050  1.00  0.00     0.040 A 
ATOM     28  C   UNL     1       3.857  40.407  47.887  1.00  0.00     0.026 A 
ATOM     29  C   UNL     1       5.624  41.723  46.914  1.00  0.00     0.026 A 
ATOM     30  C   UNL     1       3.307  40.204  46.620  1.00  0.00     0.002 A 
ATOM     31  C   UNL     1       5.070  41.520  45.648  1.00  0.00     0.002 A 
ATOM     32  C   UNL     1       3.912  40.761  45.502  1.00  0.00     0.000 A 
ENDBRANCH  25  27
ENDBRANCH   3  25
TORSDOF 4
ENDMDL
MODEL 8
REMARK VINA RESULT:    -8.235      2.247      5.723
REMARK INTER + INTRA:         -11.045
REMARK INTER:                 -10.125
REMARK INTRA:                  -0.920
REMARK UNBOUND:                -0.884
REMARK SMILES C[NH+]1CC[NH+](C2CCN(c3nc(Nc4ccccc4)c4[nH]cnc4n3)C2)CC1
REMARK SMILES IDX 10 1 11 2 12 3 20 4 21 5 22 6 23 7 24 8 25 9 9 11 6 12 7 13
REMARK SMILES IDX 26 14 8 15 5 16 2 17 3 18 28 19 4 20 27 21 1 22 13 25 14 27
REMARK SMILES IDX 15 28 19 29 16 30 18 31 17 32
REMARK H PARENT 21 10 2 23 5 24 13 26
ROOT
ATOM      1  C   UNL     1       5.440  44.325  51.731  1.00  0.00     0.229 A 
ATOM      2  N   UNL     1       4.291  43.702  52.086  1.00  0.00    -0.193 NA
ATOM      3  C   UNL     1       3.885  42.600  51.402  1.00  0.00     0.162 A 
ATOM      4  C   UNL     1       4.690  42.194  50.351  1.00  0.00     0.128 A 
ATOM      5  N   UNL     1       4.656  41.186  49.425  1.00  0.00    -0.340 N 
ATOM      6  C   UNL     1       5.741  41.339  48.607  1.00  0.00     0.199 A 
ATOM      7  N   UNL     1       6.455  42.390  48.946  1.00  0.00    -0.217 NA
ATOM      8  C   UNL     1       5.814  42.925  50.023  1.00  0.00     0.184 A 
ATOM      9  N   UNL     1       6.204  44.019  50.692  1.00  0.00    -0.191 NA
ATOM     10  H   UNL     1       3.947  40.464  49.333  1.00  0.00     0.168 HD
ENDROOT
BRANCH   1  11
ATOM     11  N   UNL     1       5.761  45.411  52.536  1.00  0.00    -0.335 N 
ATOM     12  C   UNL     1       6.583  46.376  54.432  1.00  0.00     0.205 C 
ATOM     13  C   UNL     1       7.199  47.147  53.255  1.00  0.00     0.088 C 
ATOM     14  C   UNL     1       6.326  45.000  53.814  1.00  0.00     0.184 C 
ATOM     15  C   UNL     1       6.674  46.429  51.987  1.00  0.00     0.126 C 
BRANCH  12  16
ATOM     16  N   UNL     1       5.274  47.053  54.956  1.00  0.00    -0.322 N 
ATOM     17  N   UNL     1       3.140  46.445  53.133  1.00  0.00    -0.328 N 
ATOM     18  C   UNL     1       2.957  45.932  54.542  1.00  0.00     0.324 C 
ATOM     19  C   UNL     1       3.633  47.873  53.082  1.00  0.00     0.324 C 
ATOM     20  C   UNL     1       4.226  46.045  55.440  1.00  0.00     0.324 C 
ATOM     21  C   UNL     1       4.649  48.228  54.198  1.00  0.00     0.324 C 
ATOM     22  C   UNL     1       1.881  46.260  52.309  1.00  0.00     0.333 C 
ATOM     23  H   UNL     1       3.843  45.885  52.602  1.00  0.00     0.348 HD
ATOM     24  H   UNL     1       5.622  47.497  55.822  1.00  0.00     0.348 HD
ENDBRANCH  12  16
ENDBRANCH   1  11
BRANCH   3  25
ATOM     25  N   UNL     1       2.711  41.946  51.796  1.00  0.00    -0.338 N 
ATOM     26  H   UNL     1       2.477  41.217  51.123  1.00  0.00     0.168 HD
BRANCH  25  27
ATOM     27  C   UNL     1       1.496  42.609  52.118  1.00  0.00     0.040 A 
ATOM     28  C   UNL     1       0.700  43.080  51.065  1.00  0.00     0.026 A 
ATOM     29  C   UNL     1       1.021  42.749  53.429  1.00  0.00     0.026 A 
ATOM     30  C   UNL     1      -0.530  43.691  51.315  1.00  0.00     0.002 A 
ATOM     31  C   UNL     1      -0.211  43.360  53.676  1.00  0.00     0.002 A 
ATOM     32  C   UNL     1      -0.985  43.830  52.619  1.00  0.00     0.000 A 
ENDBRANCH  25  27
ENDBRANCH   3  25
TORSDOF 4
ENDMDL
MODEL 9
REMARK VINA RESULT:    -8.169      1.367      4.221
REMARK INTER + INTRA:         -10.963
REMARK INTER:                 -10.576
REMARK INTRA:                  -0.387
REMARK UNBOUND:                -0.884
REMARK SMILES C[NH+]1CC[NH+](C2CCN(c3nc(Nc4ccccc4)c4[nH]cnc4n3)C2)CC1
REMARK SMILES IDX 10 1 11 2 12 3 20 4 21 5 22 6 23 7 24 8 25 9 9 11 6 12 7 13
REMARK SMILES IDX 26 14 8 15 5 16 2 17 3 18 28 19 4 20 27 21 1 22 13 25 14 27
REMARK SMILES IDX 15 28 19 29 16 30 18 31 17 32
REMARK H PARENT 21 10 2 23 5 24 13 26
ROOT
ATOM      1  C   UNL     1       4.748  45.759  52.108  1.00  0.00     0.229 A 
ATOM      2  N   UNL     1       5.347  44.900  51.249  1.00  0.00    -0.193 NA
ATOM      3  C   UNL     1       6.660  45.064  50.940  1.00  0.00     0.162 A 
ATOM      4  C   UNL     1       7.305  46.137  51.531  1.00  0.00     0.128 A 
ATOM      5  N   UNL     1       8.570  46.661  51.494  1.00  0.00    -0.340 N 
ATOM      6  C   UNL     1       8.578  47.778  52.283  1.00  0.00     0.199 A 
ATOM      7  N   UNL     1       7.394  48.005  52.808  1.00  0.00    -0.217 NA
ATOM      8  C   UNL     1       6.600  46.996  52.350  1.00  0.00     0.184 A 
ATOM      9  N   UNL     1       5.301  46.840  52.641  1.00  0.00    -0.191 NA
ATOM     10  H   UNL     1       9.360  46.310  50.962  1.00  0.00     0.168 HD
ENDROOT
BRANCH   1  11
ATOM     11  N   UNL     1       3.418  45.456  52.370  1.00  0.00    -0.335 N 
ATOM     12  C   UNL     1       1.333  45.930  53.162  1.00  0.00     0.205 C 
ATOM     13  C   UNL     1       1.134  45.311  51.770  1.00  0.00     0.088 C 
ATOM     14  C   UNL     1       2.727  46.549  53.041  1.00  0.00     0.184 C 
ATOM     15  C   UNL     1       2.565  45.060  51.235  1.00  0.00     0.126 C 
BRANCH  12  16
ATOM     16  N   UNL     1       1.247  44.861  54.299  1.00  0.00    -0.322 N 
ATOM     17  N   UNL     1      -0.882  45.593  56.081  1.00  0.00    -0.328 N 
ATOM     18  C   UNL     1      -1.052  44.268  55.376  1.00  0.00     0.324 C 
ATOM     19  C   UNL     1       0.510  45.795  56.636  1.00  0.00     0.324 C 
ATOM     20  C   UNL     1      -0.026  44.010  54.231  1.00  0.00     0.324 C 
ATOM     21  C   UNL     1       1.635  45.221  55.735  1.00  0.00     0.324 C 
ATOM     22  C   UNL     1      -1.941  45.792  57.148  1.00  0.00     0.333 C 
ATOM     23  H   UNL     1      -1.051  46.400  55.441  1.00  0.00     0.348 HD
ATOM     24  H   UNL     1       2.002  44.216  54.012  1.00  0.00     0.348 HD
ENDBRANCH  12  16
ENDBRANCH   1  11
BRANCH   3  25
ATOM     25  N   UNL     1       7.276  44.152  50.074  1.00  0.00    -0.338 N 
ATOM     26  H   UNL     1       7.799  44.653  49.356  1.00  0.00     0.168 HD
BRANCH  25  27
ATOM     27  C   UNL     1       6.597  43.090  49.416  1.00  0.00     0.040 A 
ATOM     28  C   UNL     1       5.811  42.228  50.190  1.00  0.00     0.026 A 
ATOM     29  C   UNL     1       6.619  42.910  48.026  1.00  0.00     0.026 A 
ATOM     30  C   UNL     1       5.077  41.200  49.595  1.00  0.00     0.002 A 
ATOM     31  C   UNL     1       5.882  41.882  47.434  1.00  0.00     0.002 A 
ATOM     32  C   UNL     1       5.112  41.028  48.218  1.00  0.00     0.000 A 
ENDBRANCH  25  27
ENDBRANCH   3  25
TORSDOF 4
ENDMDL
MODEL 10
REMARK VINA RESULT:    -8.092      2.468      5.404
REMARK INTER + INTRA:         -10.868
REMARK INTER:                  -9.995
REMARK INTRA:                  -0.872
REMARK UNBOUND:                -0.884
REMARK SMILES C[NH+]1CC[NH+](C2CCN(c3nc(Nc4ccccc4)c4[nH]cnc4n3)C2)CC1
REMARK SMILES IDX 10 1 11 2 12 3 20 4 21 5 22 6 23 7 24 8 25 9 9 11 6 12 7 13
REMARK SMILES IDX 26 14 8 15 5 16 2 17 3 18 28 19 4 20 27 21 1 22 13 25 14 27
REMARK SMILES IDX 15 28 19 29 16 30 18 31 17 32
REMARK H PARENT 21 10 2 23 5 24 13 26
ROOT
ATOM      1  C   UNL     1       4.886  44.152  51.410  1.00  0.00     0.229 A 
ATOM      2  N   UNL     1       4.751  42.975  50.754  1.00  0.00    -0.193 NA
ATOM      3  C   UNL     1       5.736  42.555  49.919  1.00  0.00     0.162 A 
ATOM      4  C   UNL     1       6.831  43.391  49.784  1.00  0.00     0.128 A 
ATOM      5  N   UNL     1       7.999  43.368  49.068  1.00  0.00    -0.340 N 
ATOM      6  C   UNL     1       8.671  44.529  49.335  1.00  0.00     0.199 A 
ATOM      7  N   UNL     1       7.996  45.295  50.164  1.00  0.00    -0.217 NA
ATOM      8  C   UNL     1       6.858  44.601  50.447  1.00  0.00     0.184 A 
ATOM      9  N   UNL     1       5.877  45.020  51.260  1.00  0.00    -0.191 NA
ATOM     10  H   UNL     1       8.311  42.641  48.432  1.00  0.00     0.168 HD
ENDROOT
BRANCH   1  11
ATOM     11  N   UNL     1       3.828  44.445  52.263  1.00  0.00    -0.335 N 
ATOM     12  C   UNL     1       2.014  43.894  53.530  1.00  0.00     0.205 C 
ATOM     13  C   UNL     1       2.886  44.809  54.402  1.00  0.00     0.088 C 
ATOM     14  C   UNL     1       3.047  43.261  52.596  1.00  0.00     0.184 C 
ATOM     15  C   UNL     1       4.136  45.112  53.539  1.00  0.00     0.126 C 
BRANCH  12  16
ATOM     16  N   UNL     1       0.915  44.694  52.756  1.00  0.00    -0.322 N 
ATOM     17  N   UNL     1      -1.209  42.890  52.065  1.00  0.00    -0.328 N 
ATOM     18  C   UNL     1      -1.596  44.030  52.977  1.00  0.00     0.324 C 
ATOM     19  C   UNL     1      -0.343  43.325  50.906  1.00  0.00     0.324 C 
ATOM     20  C   UNL     1      -0.391  44.841  53.543  1.00  0.00     0.324 C 
ATOM     21  C   UNL     1       0.675  44.439  51.265  1.00  0.00     0.324 C 
ATOM     22  C   UNL     1      -2.428  42.121  51.593  1.00  0.00     0.333 C 
ATOM     23  H   UNL     1      -0.661  42.157  52.568  1.00  0.00     0.348 HD
ATOM     24  H   UNL     1       1.328  45.641  52.763  1.00  0.00     0.348 HD
ENDBRANCH  12  16
ENDBRANCH   1  11
BRANCH   3  25
ATOM     25  N   UNL     1       5.599  41.322  49.268  1.00  0.00    -0.338 N 
ATOM     26  H   UNL     1       6.506  40.860  49.204  1.00  0.00     0.168 HD
BRANCH  25  27
ATOM     27  C   UNL     1       4.964  41.149  48.009  1.00  0.00     0.040 A 
ATOM     28  C   UNL     1       5.580  41.700  46.877  1.00  0.00     0.026 A 
ATOM     29  C   UNL     1       3.797  40.394  47.834  1.00  0.00     0.026 A 
ATOM     30  C   UNL     1       5.034  41.518  45.605  1.00  0.00     0.002 A 
ATOM     31  C   UNL     1       3.254  40.212  46.560  1.00  0.00     0.002 A 
ATOM     32  C   UNL     1       3.872  40.773  45.447  1.00  0.00     0.000 A 
ENDBRANCH  25  27
ENDBRANCH   3  25
TORSDOF 4
ENDMDL
