MODEL 1
REMARK VINA RESULT:    -9.220      0.000      0.000
REMARK INTER + INTRA:         -13.861
REMARK INTER:                 -12.453
REMARK INTRA:                  -1.408
REMARK UNBOUND:                -1.408
REMARK SMILES O=C(C1CCC1)N(Cc1nc2ccccc2c(=O)[nH]1)CC1CCCO1
REMARK SMILES IDX 7 1 2 2 1 3 3 4 4 5 6 6 5 7 8 8 9 9 10 10 19 11 11 12 17 13
REMARK SMILES IDX 12 14 16 15 13 16 15 17 14 18 18 20 20 21 21 22 22 23 25 24
REMARK SMILES IDX 23 25 24 26
REMARK H PARENT 19 19
ROOT
ATOM      1  N   UNL     1       3.436  44.842  51.336  1.00  0.00    -0.332 N 
ENDROOT
BRANCH   1   2
ATOM      2  C   UNL     1       3.965  43.556  51.538  1.00  0.00     0.226 C 
ATOM      3  O   UNL     1       3.893  43.055  52.676  1.00  0.00    -0.275 OA
BRANCH   2   4
ATOM      4  C   UNL     1       4.635  42.730  50.432  1.00  0.00     0.078 C 
ATOM      5  C   UNL     1       4.846  41.205  50.511  1.00  0.00     0.013 C 
ATOM      6  C   UNL     1       6.137  42.882  50.108  1.00  0.00     0.013 C 
ATOM      7  C   UNL     1       6.146  41.395  49.703  1.00  0.00     0.002 C 
ENDBRANCH   2   4
ENDBRANCH   1   2
BRANCH   1   8
ATOM      8  C   UNL     1       4.187  45.994  50.828  1.00  0.00     0.194 C 
BRANCH   8   9
ATOM      9  C   UNL     1       5.411  46.320  51.681  1.00  0.00     0.129 C 
ATOM     10  N   UNL     1       6.607  46.139  51.219  1.00  0.00    -0.233 NA
ATOM     11  N   UNL     1       5.163  46.798  52.942  1.00  0.00    -0.308 N 
ATOM     12  C   UNL     1       7.694  46.443  52.055  1.00  0.00     0.078 A 
ATOM     13  C   UNL     1       6.153  47.128  53.832  1.00  0.00     0.258 C 
ATOM     14  C   UNL     1       8.989  46.242  51.576  1.00  0.00     0.029 A 
ATOM     15  C   UNL     1       7.530  46.936  53.352  1.00  0.00     0.065 A 
ATOM     16  C   UNL     1      10.097  46.529  52.381  1.00  0.00     0.002 A 
ATOM     17  C   UNL     1       8.628  47.226  54.167  1.00  0.00     0.016 A 
ATOM     18  C   UNL     1       9.917  47.021  53.674  1.00  0.00     0.001 A 
ATOM     19  H   UNL     1       4.220  46.922  53.284  1.00  0.00     0.171 HD
ATOM     20  O   UNL     1       5.901  47.551  54.953  1.00  0.00    -0.269 OA
ENDBRANCH   8   9
ENDBRANCH   1   8
BRANCH   1  21
ATOM     21  C   UNL     1       1.969  44.969  51.346  1.00  0.00     0.152 C 
BRANCH  21  22
ATOM     22  C   UNL     1       1.340  45.675  52.567  1.00  0.00     0.137 C 
ATOM     23  C   UNL     1       0.303  44.859  53.328  1.00  0.00     0.036 C 
ATOM     24  O   UNL     1       2.410  45.947  53.508  1.00  0.00    -0.376 OA
ATOM     25  C   UNL     1       1.110  44.213  54.425  1.00  0.00     0.031 C 
ATOM     26  C   UNL     1       2.105  45.301  54.751  1.00  0.00     0.160 C 
ENDBRANCH  21  22
ENDBRANCH   1  21
TORSDOF 6
ENDMDL
MODEL 2
REMARK VINA RESULT:    -8.538      1.709      4.330
REMARK INTER + INTRA:         -12.941
REMARK INTER:                 -12.045
REMARK INTRA:                  -0.895
REMARK UNBOUND:                -1.408
REMARK SMILES O=C(C1CCC1)N(Cc1nc2ccccc2c(=O)[nH]1)CC1CCCO1
REMARK SMILES IDX 7 1 2 2 1 3 3 4 4 5 6 6 5 7 8 8 9 9 10 10 19 11 11 12 17 13
REMARK SMILES IDX 12 14 16 15 13 16 15 17 14 18 18 20 20 21 21 22 22 23 25 24
REMARK SMILES IDX 23 25 24 26
REMARK H PARENT 19 19
ROOT
ATOM      1  N   UNL     1       3.232  46.021  53.521  1.00  0.00    -0.332 N 
ENDROOT
BRANCH   1   2
ATOM      2  C   UNL     1       3.043  45.629  54.857  1.00  0.00     0.226 C 
ATOM      3  O   UNL     1       3.972  45.809  55.667  1.00  0.00    -0.275 OA
BRANCH   2   4
ATOM      4  C   UNL     1       1.753  44.984  55.379  1.00  0.00     0.078 C 
ATOM      5  C   UNL     1       0.402  45.050  54.638  1.00  0.00     0.013 C 
ATOM      6  C   UNL     1       1.040  45.510  56.644  1.00  0.00     0.013 C 
ATOM      7  C   UNL     1      -0.294  45.063  56.014  1.00  0.00     0.002 C 
ENDBRANCH   2   4
ENDBRANCH   1   2
BRANCH   1   8
ATOM      8  C   UNL     1       3.935  47.233  53.088  1.00  0.00     0.194 C 
BRANCH   8   9
ATOM      9  C   UNL     1       5.425  46.997  52.855  1.00  0.00     0.129 C 
ATOM     10  N   UNL     1       6.298  47.344  53.746  1.00  0.00    -0.233 NA
ATOM     11  N   UNL     1       5.768  46.412  51.662  1.00  0.00    -0.308 N 
ATOM     12  C   UNL     1       7.656  47.114  53.468  1.00  0.00     0.078 A 
ATOM     13  C   UNL     1       7.063  46.141  51.300  1.00  0.00     0.258 C 
ATOM     14  C   UNL     1       8.610  47.495  54.413  1.00  0.00     0.029 A 
ATOM     15  C   UNL     1       8.092  46.523  52.280  1.00  0.00     0.065 A 
ATOM     16  C   UNL     1       9.972  47.287  54.171  1.00  0.00     0.002 A 
ATOM     17  C   UNL     1       9.449  46.310  52.025  1.00  0.00     0.016 A 
ATOM     18  C   UNL     1      10.391  46.694  52.979  1.00  0.00     0.001 A 
ATOM     19  H   UNL     1       5.069  46.158  50.979  1.00  0.00     0.171 HD
ATOM     20  O   UNL     1       7.339  45.621  50.227  1.00  0.00    -0.269 OA
ENDBRANCH   8   9
ENDBRANCH   1   8
BRANCH   1  21
ATOM     21  C   UNL     1       2.978  45.005  52.486  1.00  0.00     0.152 C 
BRANCH  21  22
ATOM     22  C   UNL     1       3.687  43.644  52.659  1.00  0.00     0.137 C 
ATOM     23  C   UNL     1       2.848  42.424  52.300  1.00  0.00     0.036 C 
ATOM     24  O   UNL     1       4.825  43.630  51.759  1.00  0.00    -0.376 OA
ATOM     25  C   UNL     1       3.221  42.160  50.863  1.00  0.00     0.031 C 
ATOM     26  C   UNL     1       4.687  42.524  50.859  1.00  0.00     0.160 C 
ENDBRANCH  21  22
ENDBRANCH   1  21
TORSDOF 6
ENDMDL
MODEL 3
REMARK VINA RESULT:    -8.445      1.801      5.526
REMARK INTER + INTRA:         -12.815
REMARK INTER:                 -12.205
REMARK INTRA:                  -0.610
REMARK UNBOUND:                -1.408
REMARK SMILES O=C(C1CCC1)N(Cc1nc2ccccc2c(=O)[nH]1)CC1CCCO1
REMARK SMILES IDX 7 1 2 2 1 3 3 4 4 5 6 6 5 7 8 8 9 9 10 10 19 11 11 12 17 13
REMARK SMILES IDX 12 14 16 15 13 16 15 17 14 18 18 20 20 21 21 22 22 23 25 24
REMARK SMILES IDX 23 25 24 26
REMARK H PARENT 19 19
ROOT
ATOM      1  N   UNL     1       6.792  46.624  53.485  1.00  0.00    -0.332 N 
ENDROOT
BRANCH   1   2
ATOM      2  C   UNL     1       8.005  47.175  53.932  1.00  0.00     0.226 C 
ATOM      3  O   UNL     1       8.005  47.840  54.985  1.00  0.00    -0.275 OA
BRANCH   2   4
ATOM      4  C   UNL     1       9.338  47.009  53.190  1.00  0.00     0.078 C 
ATOM      5  C   UNL     1       9.538  47.354  51.701  1.00  0.00     0.013 C 
ATOM      6  C   UNL     1       9.937  45.615  52.907  1.00  0.00     0.013 C 
ATOM      7  C   UNL     1      10.557  46.200  51.623  1.00  0.00     0.002 C 
ENDBRANCH   2   4
ENDBRANCH   1   2
BRANCH   1   8
ATOM      8  C   UNL     1       6.241  46.779  52.135  1.00  0.00     0.194 C 
BRANCH   8   9
ATOM      9  C   UNL     1       6.163  45.455  51.378  1.00  0.00     0.129 C 
ATOM     10  N   UNL     1       5.152  44.661  51.535  1.00  0.00    -0.233 NA
ATOM     11  N   UNL     1       7.215  45.168  50.546  1.00  0.00    -0.308 N 
ATOM     12  C   UNL     1       5.143  43.451  50.822  1.00  0.00     0.078 A 
ATOM     13  C   UNL     1       7.298  44.018  49.804  1.00  0.00     0.258 C 
ATOM     14  C   UNL     1       4.067  42.578  50.990  1.00  0.00     0.029 A 
ATOM     15  C   UNL     1       6.173  43.081  49.953  1.00  0.00     0.065 A 
ATOM     16  C   UNL     1       4.024  41.361  50.301  1.00  0.00     0.002 A 
ATOM     17  C   UNL     1       6.143  41.869  49.259  1.00  0.00     0.016 A 
ATOM     18  C   UNL     1       5.060  41.007  49.435  1.00  0.00     0.001 A 
ATOM     19  H   UNL     1       7.997  45.800  50.447  1.00  0.00     0.171 HD
ATOM     20  O   UNL     1       8.252  43.788  49.071  1.00  0.00    -0.269 OA
ENDBRANCH   8   9
ENDBRANCH   1   8
BRANCH   1  21
ATOM     21  C   UNL     1       6.185  45.578  54.326  1.00  0.00     0.152 C 
BRANCH  21  22
ATOM     22  C   UNL     1       4.964  45.991  55.175  1.00  0.00     0.137 C 
ATOM     23  C   UNL     1       4.104  47.100  54.582  1.00  0.00     0.036 C 
ATOM     24  O   UNL     1       4.102  44.829  55.287  1.00  0.00    -0.376 OA
ATOM     25  C   UNL     1       3.028  46.345  53.843  1.00  0.00     0.031 C 
ATOM     26  C   UNL     1       2.814  45.157  54.750  1.00  0.00     0.160 C 
ENDBRANCH  21  22
ENDBRANCH   1  21
TORSDOF 6
ENDMDL
MODEL 4
REMARK VINA RESULT:    -8.355      1.436      2.182
REMARK INTER + INTRA:         -12.694
REMARK INTER:                 -12.078
REMARK INTRA:                  -0.616
REMARK UNBOUND:                -1.408
REMARK SMILES O=C(C1CCC1)N(Cc1nc2ccccc2c(=O)[nH]1)CC1CCCO1
REMARK SMILES IDX 7 1 2 2 1 3 3 4 4 5 6 6 5 7 8 8 9 9 10 10 19 11 11 12 17 13
REMARK SMILES IDX 12 14 16 15 13 16 15 17 14 18 18 20 20 21 21 22 22 23 25 24
REMARK SMILES IDX 23 25 24 26
REMARK H PARENT 19 19
ROOT
ATOM      1  N   UNL     1       3.371  44.985  51.657  1.00  0.00    -0.332 N 
ENDROOT
BRANCH   1   2
ATOM      2  C   UNL     1       4.002  43.878  52.250  1.00  0.00     0.226 C 
ATOM      3  O   UNL     1       4.560  44.032  53.353  1.00  0.00    -0.275 OA
BRANCH   2   4
ATOM      4  C   UNL     1       4.047  42.484  51.612  1.00  0.00     0.078 C 
ATOM      5  C   UNL     1       5.043  42.080  50.507  1.00  0.00     0.013 C 
ATOM      6  C   UNL     1       2.901  41.968  50.715  1.00  0.00     0.013 C 
ATOM      7  C   UNL     1       3.951  41.154  49.933  1.00  0.00     0.002 C 
ENDBRANCH   2   4
ENDBRANCH   1   2
BRANCH   1   8
ATOM      8  C   UNL     1       4.054  46.049  50.914  1.00  0.00     0.194 C 
BRANCH   8   9
ATOM      9  C   UNL     1       5.558  46.075  51.176  1.00  0.00     0.129 C 
ATOM     10  N   UNL     1       6.048  46.762  52.157  1.00  0.00    -0.233 NA
ATOM     11  N   UNL     1       6.336  45.344  50.315  1.00  0.00    -0.308 N 
ATOM     12  C   UNL     1       7.441  46.760  52.339  1.00  0.00     0.078 A 
ATOM     13  C   UNL     1       7.703  45.272  50.411  1.00  0.00     0.258 C 
ATOM     14  C   UNL     1       7.985  47.507  53.385  1.00  0.00     0.029 A 
ATOM     15  C   UNL     1       8.306  46.042  51.510  1.00  0.00     0.065 A 
ATOM     16  C   UNL     1       9.368  47.532  53.595  1.00  0.00     0.002 A 
ATOM     17  C   UNL     1       9.690  46.059  51.708  1.00  0.00     0.016 A 
ATOM     18  C   UNL     1      10.219  46.808  52.758  1.00  0.00     0.001 A 
ATOM     19  H   UNL     1       5.932  44.822  49.551  1.00  0.00     0.171 HD
ATOM     20  O   UNL     1       8.373  44.612  49.626  1.00  0.00    -0.269 OA
ENDBRANCH   8   9
ENDBRANCH   1   8
BRANCH   1  21
ATOM     21  C   UNL     1       1.907  44.918  51.510  1.00  0.00     0.152 C 
BRANCH  21  22
ATOM     22  C   UNL     1       1.065  45.500  52.666  1.00  0.00     0.137 C 
ATOM     23  C   UNL     1       0.289  44.477  53.485  1.00  0.00     0.036 C 
ATOM     24  O   UNL     1       1.981  46.143  53.588  1.00  0.00    -0.376 OA
ATOM     25  C   UNL     1       1.216  44.180  54.635  1.00  0.00     0.031 C 
ATOM     26  C   UNL     1       1.841  45.533  54.877  1.00  0.00     0.160 C 
ENDBRANCH  21  22
ENDBRANCH   1  21
TORSDOF 6
ENDMDL
MODEL 5
REMARK VINA RESULT:    -8.321      1.863      6.640
REMARK INTER + INTRA:         -12.647
REMARK INTER:                 -11.862
REMARK INTRA:                  -0.785
REMARK UNBOUND:                -1.408
REMARK SMILES O=C(C1CCC1)N(Cc1nc2ccccc2c(=O)[nH]1)CC1CCCO1
REMARK SMILES IDX 7 1 2 2 1 3 3 4 4 5 6 6 5 7 8 8 9 9 10 10 19 11 11 12 17 13
REMARK SMILES IDX 12 14 16 15 13 16 15 17 14 18 18 20 20 21 21 22 22 23 25 24
REMARK SMILES IDX 23 25 24 26
REMARK H PARENT 19 19
ROOT
ATOM      1  N   UNL     1       5.165  46.146  53.122  1.00  0.00    -0.332 N 
ENDROOT
BRANCH   1   2
ATOM      2  C   UNL     1       4.671  46.098  51.807  1.00  0.00     0.226 C 
ATOM      3  O   UNL     1       3.669  46.781  51.523  1.00  0.00    -0.275 OA
BRANCH   2   4
ATOM      4  C   UNL     1       5.296  45.245  50.696  1.00  0.00     0.078 C 
ATOM      5  C   UNL     1       5.379  43.706  50.741  1.00  0.00     0.013 C 
ATOM      6  C   UNL     1       6.812  45.280  50.405  1.00  0.00     0.013 C 
ATOM      7  C   UNL     1       6.708  43.807  49.965  1.00  0.00     0.002 C 
ENDBRANCH   2   4
ENDBRANCH   1   2
BRANCH   1   8
ATOM      8  C   UNL     1       4.920  45.132  54.153  1.00  0.00     0.194 C 
BRANCH   8   9
ATOM      9  C   UNL     1       3.438  44.796  54.305  1.00  0.00     0.129 C 
ATOM     10  N   UNL     1       2.743  45.292  55.279  1.00  0.00    -0.233 NA
ATOM     11  N   UNL     1       2.909  43.947  53.367  1.00  0.00    -0.308 N 
ATOM     12  C   UNL     1       1.388  44.934  55.375  1.00  0.00     0.078 A 
ATOM     13  C   UNL     1       1.598  43.543  53.370  1.00  0.00     0.258 C 
ATOM     14  C   UNL     1       0.629  45.450  56.427  1.00  0.00     0.029 A 
ATOM     15  C   UNL     1       0.769  44.077  54.462  1.00  0.00     0.065 A 
ATOM     16  C   UNL     1      -0.723  45.113  56.558  1.00  0.00     0.002 A 
ATOM     17  C   UNL     1      -0.580  43.733  54.582  1.00  0.00     0.016 A 
ATOM     18  C   UNL     1      -1.327  44.257  55.637  1.00  0.00     0.001 A 
ATOM     19  H   UNL     1       3.473  43.566  52.621  1.00  0.00     0.171 HD
ATOM     20  O   UNL     1       1.154  42.782  52.520  1.00  0.00    -0.269 OA
ENDBRANCH   8   9
ENDBRANCH   1   8
BRANCH   1  21
ATOM     21  C   UNL     1       6.242  47.112  53.395  1.00  0.00     0.152 C 
BRANCH  21  22
ATOM     22  C   UNL     1       7.471  46.583  54.167  1.00  0.00     0.137 C 
ATOM     23  C   UNL     1       8.650  46.159  53.300  1.00  0.00     0.036 C 
ATOM     24  O   UNL     1       7.955  47.665  55.004  1.00  0.00    -0.376 OA
ATOM     25  C   UNL     1       9.512  47.394  53.261  1.00  0.00     0.031 C 
ATOM     26  C   UNL     1       9.316  47.946  54.653  1.00  0.00     0.160 C 
ENDBRANCH  21  22
ENDBRANCH   1  21
TORSDOF 6
ENDMDL
MODEL 6
REMARK VINA RESULT:    -8.273      2.316      7.045
REMARK INTER + INTRA:         -12.582
REMARK INTER:                 -11.512
REMARK INTRA:                  -1.070
REMARK UNBOUND:                -1.408
REMARK SMILES O=C(C1CCC1)N(Cc1nc2ccccc2c(=O)[nH]1)CC1CCCO1
REMARK SMILES IDX 7 1 2 2 1 3 3 4 4 5 6 6 5 7 8 8 9 9 10 10 19 11 11 12 17 13
REMARK SMILES IDX 12 14 16 15 13 16 15 17 14 18 18 20 20 21 21 22 22 23 25 24
REMARK SMILES IDX 23 25 24 26
REMARK H PARENT 19 19
ROOT
ATOM      1  N   UNL     1       5.610  46.282  54.414  1.00  0.00    -0.332 N 
ENDROOT
BRANCH   1   2
ATOM      2  C   UNL     1       4.869  47.316  53.817  1.00  0.00     0.226 C 
ATOM      3  O   UNL     1       4.673  48.359  54.468  1.00  0.00    -0.275 OA
BRANCH   2   4
ATOM      4  C   UNL     1       4.279  47.231  52.403  1.00  0.00     0.078 C 
ATOM      5  C   UNL     1       2.791  46.953  52.111  1.00  0.00     0.013 C 
ATOM      6  C   UNL     1       4.643  46.078  51.444  1.00  0.00     0.013 C 
ATOM      7  C   UNL     1       3.234  46.211  50.834  1.00  0.00     0.002 C 
ENDBRANCH   2   4
ENDBRANCH   1   2
BRANCH   1   8
ATOM      8  C   UNL     1       5.059  45.250  55.299  1.00  0.00     0.194 C 
BRANCH   8   9
ATOM      9  C   UNL     1       3.669  44.789  54.869  1.00  0.00     0.129 C 
ATOM     10  N   UNL     1       2.613  45.188  55.504  1.00  0.00    -0.233 NA
ATOM     11  N   UNL     1       3.616  43.938  53.795  1.00  0.00    -0.308 N 
ATOM     12  C   UNL     1       1.362  44.718  55.071  1.00  0.00     0.078 A 
ATOM     13  C   UNL     1       2.446  43.429  53.293  1.00  0.00     0.258 C 
ATOM     14  C   UNL     1       0.216  45.128  55.754  1.00  0.00     0.029 A 
ATOM     15  C   UNL     1       1.218  43.850  53.985  1.00  0.00     0.065 A 
ATOM     16  C   UNL     1      -1.048  44.678  55.355  1.00  0.00     0.002 A 
ATOM     17  C   UNL     1      -0.038  43.393  53.577  1.00  0.00     0.016 A 
ATOM     18  C   UNL     1      -1.175  43.813  54.267  1.00  0.00     0.001 A 
ATOM     19  H   UNL     1       4.454  43.634  53.321  1.00  0.00     0.171 HD
ATOM     20  O   UNL     1       2.430  42.668  52.333  1.00  0.00    -0.269 OA
ENDBRANCH   8   9
ENDBRANCH   1   8
BRANCH   1  21
ATOM     21  C   UNL     1       6.961  46.035  53.881  1.00  0.00     0.152 C 
BRANCH  21  22
ATOM     22  C   UNL     1       7.779  47.275  53.461  1.00  0.00     0.137 C 
ATOM     23  C   UNL     1       9.211  47.316  53.980  1.00  0.00     0.036 C 
ATOM     24  O   UNL     1       7.875  47.261  52.013  1.00  0.00    -0.376 OA
ATOM     25  C   UNL     1      10.005  46.713  52.850  1.00  0.00     0.031 C 
ATOM     26  C   UNL     1       9.260  47.232  51.644  1.00  0.00     0.160 C 
ENDBRANCH  21  22
ENDBRANCH   1  21
TORSDOF 6
ENDMDL
MODEL 7
REMARK VINA RESULT:    -8.251      1.767      4.022
REMARK INTER + INTRA:         -12.553
REMARK INTER:                 -11.604
REMARK INTRA:                  -0.950
REMARK UNBOUND:                -1.408
REMARK SMILES O=C(C1CCC1)N(Cc1nc2ccccc2c(=O)[nH]1)CC1CCCO1
REMARK SMILES IDX 7 1 2 2 1 3 3 4 4 5 6 6 5 7 8 8 9 9 10 10 19 11 11 12 17 13
REMARK SMILES IDX 12 14 16 15 13 16 15 17 14 18 18 20 20 21 21 22 22 23 25 24
REMARK SMILES IDX 23 25 24 26
REMARK H PARENT 19 19
ROOT
ATOM      1  N   UNL     1       3.355  45.222  51.908  1.00  0.00    -0.332 N 
ENDROOT
BRANCH   1   2
ATOM      2  C   UNL     1       2.866  44.911  53.188  1.00  0.00     0.226 C 
ATOM      3  O   UNL     1       1.641  44.736  53.330  1.00  0.00    -0.275 OA
BRANCH   2   4
ATOM      4  C   UNL     1       3.757  44.779  54.429  1.00  0.00     0.078 C 
ATOM      5  C   UNL     1       4.207  45.974  55.292  1.00  0.00     0.013 C 
ATOM      6  C   UNL     1       5.237  44.352  54.319  1.00  0.00     0.013 C 
ATOM      7  C   UNL     1       5.525  45.220  55.560  1.00  0.00     0.002 C 
ENDBRANCH   2   4
ENDBRANCH   1   2
BRANCH   1   8
ATOM      8  C   UNL     1       4.026  46.473  51.541  1.00  0.00     0.194 C 
BRANCH   8   9
ATOM      9  C   UNL     1       5.547  46.371  51.625  1.00  0.00     0.129 C 
ATOM     10  N   UNL     1       6.198  46.953  52.581  1.00  0.00    -0.233 NA
ATOM     11  N   UNL     1       6.162  45.644  50.637  1.00  0.00    -0.308 N 
ATOM     12  C   UNL     1       7.598  46.835  52.597  1.00  0.00     0.078 A 
ATOM     13  C   UNL     1       7.520  45.466  50.567  1.00  0.00     0.258 C 
ATOM     14  C   UNL     1       8.316  47.467  53.613  1.00  0.00     0.029 A 
ATOM     15  C   UNL     1       8.304  46.113  51.631  1.00  0.00     0.065 A 
ATOM     16  C   UNL     1       9.711  47.376  53.660  1.00  0.00     0.002 A 
ATOM     17  C   UNL     1       9.698  46.014  51.666  1.00  0.00     0.016 A 
ATOM     18  C   UNL     1      10.401  46.650  52.689  1.00  0.00     0.001 A 
ATOM     19  H   UNL     1       5.633  45.206  49.897  1.00  0.00     0.171 HD
ATOM     20  O   UNL     1       8.042  44.813  49.672  1.00  0.00    -0.269 OA
ENDBRANCH   8   9
ENDBRANCH   1   8
BRANCH   1  21
ATOM     21  C   UNL     1       3.477  44.109  50.951  1.00  0.00     0.152 C 
BRANCH  21  22
ATOM     22  C   UNL     1       4.190  42.835  51.454  1.00  0.00     0.137 C 
ATOM     23  C   UNL     1       3.563  41.520  51.008  1.00  0.00     0.036 C 
ATOM     24  O   UNL     1       5.534  42.847  50.909  1.00  0.00    -0.376 OA
ATOM     25  C   UNL     1       4.342  41.170  49.766  1.00  0.00     0.031 C 
ATOM     26  C   UNL     1       5.724  41.661  50.126  1.00  0.00     0.160 C 
ENDBRANCH  21  22
ENDBRANCH   1  21
TORSDOF 6
ENDMDL
MODEL 8
REMARK VINA RESULT:    -8.246      1.112      4.126
REMARK INTER + INTRA:         -12.546
REMARK INTER:                 -11.674
REMARK INTRA:                  -0.872
REMARK UNBOUND:                -1.408
REMARK SMILES O=C(C1CCC1)N(Cc1nc2ccccc2c(=O)[nH]1)CC1CCCO1
REMARK SMILES IDX 7 1 2 2 1 3 3 4 4 5 6 6 5 7 8 8 9 9 10 10 19 11 11 12 17 13
REMARK SMILES IDX 12 14 16 15 13 16 15 17 14 18 18 20 20 21 21 22 22 23 25 24
REMARK SMILES IDX 23 25 24 26
REMARK H PARENT 19 19
ROOT
ATOM      1  N   UNL     1       3.754  44.511  51.309  1.00  0.00    -0.332 N 
ENDROOT
BRANCH   1   2
ATOM      2  C   UNL     1       2.472  44.392  51.874  1.00  0.00     0.226 C 
ATOM      3  O   UNL     1       1.482  44.469  51.123  1.00  0.00    -0.275 OA
BRANCH   2   4
ATOM      4  C   UNL     1       2.221  44.178  53.372  1.00  0.00     0.078 C 
ATOM      5  C   UNL     1       0.873  43.707  53.956  1.00  0.00     0.013 C 
ATOM      6  C   UNL     1       2.193  45.360  54.364  1.00  0.00     0.013 C 
ATOM      7  C   UNL     1       1.172  44.565  55.201  1.00  0.00     0.002 C 
ENDBRANCH   2   4
ENDBRANCH   1   2
BRANCH   1   8
ATOM      8  C   UNL     1       4.364  45.765  50.856  1.00  0.00     0.194 C 
BRANCH   8   9
ATOM      9  C   UNL     1       5.560  46.178  51.710  1.00  0.00     0.129 C 
ATOM     10  N   UNL     1       6.768  46.054  51.261  1.00  0.00    -0.233 NA
ATOM     11  N   UNL     1       5.274  46.672  52.957  1.00  0.00    -0.308 N 
ATOM     12  C   UNL     1       7.829  46.438  52.099  1.00  0.00     0.078 A 
ATOM     13  C   UNL     1       6.236  47.078  53.846  1.00  0.00     0.258 C 
ATOM     14  C   UNL     1       9.138  46.298  51.635  1.00  0.00     0.029 A 
ATOM     15  C   UNL     1       7.626  46.951  53.382  1.00  0.00     0.065 A 
ATOM     16  C   UNL     1      10.220  46.665  52.441  1.00  0.00     0.002 A 
ATOM     17  C   UNL     1       8.699  47.322  54.198  1.00  0.00     0.016 A 
ATOM     18  C   UNL     1      10.002  47.178  53.721  1.00  0.00     0.001 A 
ATOM     19  H   UNL     1       4.323  46.751  53.288  1.00  0.00     0.171 HD
ATOM     20  O   UNL     1       5.951  47.513  54.955  1.00  0.00    -0.269 OA
ENDBRANCH   8   9
ENDBRANCH   1   8
BRANCH   1  21
ATOM     21  C   UNL     1       4.658  43.358  51.460  1.00  0.00     0.152 C 
BRANCH  21  22
ATOM     22  C   UNL     1       5.015  42.583  50.174  1.00  0.00     0.137 C 
ATOM     23  C   UNL     1       6.037  43.259  49.269  1.00  0.00     0.036 C 
ATOM     24  O   UNL     1       5.608  41.322  50.579  1.00  0.00    -0.376 OA
ATOM     25  C   UNL     1       7.344  42.650  49.708  1.00  0.00     0.031 C 
ATOM     26  C   UNL     1       6.927  41.234  50.025  1.00  0.00     0.160 C 
ENDBRANCH  21  22
ENDBRANCH   1  21
TORSDOF 6
ENDMDL
MODEL 9
REMARK VINA RESULT:    -8.212      1.869      6.313
REMARK INTER + INTRA:         -12.500
REMARK INTER:                 -11.570
REMARK INTRA:                  -0.930
REMARK UNBOUND:                -1.408
REMARK SMILES O=C(C1CCC1)N(Cc1nc2ccccc2c(=O)[nH]1)CC1CCCO1
REMARK SMILES IDX 7 1 2 2 1 3 3 4 4 5 6 6 5 7 8 8 9 9 10 10 19 11 11 12 17 13
REMARK SMILES IDX 12 14 16 15 13 16 15 17 14 18 18 20 20 21 21 22 22 23 25 24
REMARK SMILES IDX 23 25 24 26
REMARK H PARENT 19 19
ROOT
ATOM      1  N   UNL     1       5.552  45.755  52.552  1.00  0.00    -0.332 N 
ENDROOT
BRANCH   1   2
ATOM      2  C   UNL     1       5.228  45.725  51.185  1.00  0.00     0.226 C 
ATOM      3  O   UNL     1       4.233  46.364  50.795  1.00  0.00    -0.275 OA
BRANCH   2   4
ATOM      4  C   UNL     1       6.031  44.942  50.139  1.00  0.00     0.078 C 
ATOM      5  C   UNL     1       6.153  43.405  50.127  1.00  0.00     0.013 C 
ATOM      6  C   UNL     1       7.571  45.026  50.074  1.00  0.00     0.013 C 
ATOM      7  C   UNL     1       7.576  43.573  49.557  1.00  0.00     0.002 C 
ENDBRANCH   2   4
ENDBRANCH   1   2
BRANCH   1   8
ATOM      8  C   UNL     1       5.301  44.668  53.503  1.00  0.00     0.194 C 
BRANCH   8   9
ATOM      9  C   UNL     1       3.815  44.474  53.796  1.00  0.00     0.129 C 
ATOM     10  N   UNL     1       3.072  43.765  53.008  1.00  0.00    -0.233 NA
ATOM     11  N   UNL     1       3.332  45.095  54.920  1.00  0.00    -0.308 N 
ATOM     12  C   UNL     1       1.709  43.635  53.321  1.00  0.00     0.078 A 
ATOM     13  C   UNL     1       2.020  45.025  55.314  1.00  0.00     0.258 C 
ATOM     14  C   UNL     1       0.891  42.885  52.474  1.00  0.00     0.029 A 
ATOM     15  C   UNL     1       1.135  44.232  54.447  1.00  0.00     0.065 A 
ATOM     16  C   UNL     1      -0.472  42.736  52.751  1.00  0.00     0.002 A 
ATOM     17  C   UNL     1      -0.226  44.092  54.734  1.00  0.00     0.016 A 
ATOM     18  C   UNL     1      -1.030  43.338  53.880  1.00  0.00     0.001 A 
ATOM     19  H   UNL     1       3.930  45.650  55.515  1.00  0.00     0.171 HD
ATOM     20  O   UNL     1       1.617  45.592  56.322  1.00  0.00    -0.269 OA
ENDBRANCH   8   9
ENDBRANCH   1   8
BRANCH   1  21
ATOM     21  C   UNL     1       6.472  46.816  52.996  1.00  0.00     0.152 C 
BRANCH  21  22
ATOM     22  C   UNL     1       7.624  46.390  53.932  1.00  0.00     0.137 C 
ATOM     23  C   UNL     1       8.955  46.117  53.244  1.00  0.00     0.036 C 
ATOM     24  O   UNL     1       7.863  47.486  54.852  1.00  0.00    -0.376 OA
ATOM     25  C   UNL     1       9.677  47.435  53.356  1.00  0.00     0.031 C 
ATOM     26  C   UNL     1       9.222  47.916  54.713  1.00  0.00     0.160 C 
ENDBRANCH  21  22
ENDBRANCH   1  21
TORSDOF 6
ENDMDL
MODEL 10
REMARK VINA RESULT:    -8.168      1.385      4.169
REMARK INTER + INTRA:         -12.441
REMARK INTER:                 -11.396
REMARK INTRA:                  -1.045
REMARK UNBOUND:                -1.408
REMARK SMILES O=C(C1CCC1)N(Cc1nc2ccccc2c(=O)[nH]1)CC1CCCO1
REMARK SMILES IDX 7 1 2 2 1 3 3 4 4 5 6 6 5 7 8 8 9 9 10 10 19 11 11 12 17 13
REMARK SMILES IDX 12 14 16 15 13 16 15 17 14 18 18 20 20 21 21 22 22 23 25 24
REMARK SMILES IDX 23 25 24 26
REMARK H PARENT 19 19
ROOT
ATOM      1  N   UNL     1       3.491  45.228  53.446  1.00  0.00    -0.332 N 
ENDROOT
BRANCH   1   2
ATOM      2  C   UNL     1       2.982  45.350  54.750  1.00  0.00     0.226 C 
ATOM      3  O   UNL     1       3.637  46.001  55.586  1.00  0.00    -0.275 OA
BRANCH   2   4
ATOM      4  C   UNL     1       1.661  44.720  55.209  1.00  0.00     0.078 C 
ATOM      5  C   UNL     1       0.367  44.739  54.370  1.00  0.00     0.013 C 
ATOM      6  C   UNL     1       0.857  45.300  56.392  1.00  0.00     0.013 C 
ATOM      7  C   UNL     1      -0.427  44.812  55.691  1.00  0.00     0.002 C 
ENDBRANCH   2   4
ENDBRANCH   1   2
BRANCH   1   8
ATOM      8  C   UNL     1       4.034  46.329  52.645  1.00  0.00     0.194 C 
BRANCH   8   9
ATOM      9  C   UNL     1       5.549  46.462  52.780  1.00  0.00     0.129 C 
ATOM     10  N   UNL     1       6.336  46.066  51.832  1.00  0.00    -0.233 NA
ATOM     11  N   UNL     1       6.008  47.011  53.951  1.00  0.00    -0.308 N 
ATOM     12  C   UNL     1       7.722  46.201  52.020  1.00  0.00     0.078 A 
ATOM     13  C   UNL     1       7.340  47.191  54.228  1.00  0.00     0.258 C 
ATOM     14  C   UNL     1       8.584  45.765  51.012  1.00  0.00     0.029 A 
ATOM     15  C   UNL     1       8.274  46.750  53.180  1.00  0.00     0.065 A 
ATOM     16  C   UNL     1       9.970  45.880  51.165  1.00  0.00     0.002 A 
ATOM     17  C   UNL     1       9.657  46.869  53.346  1.00  0.00     0.016 A 
ATOM     18  C   UNL     1      10.506  46.432  52.330  1.00  0.00     0.001 A 
ATOM     19  H   UNL     1       5.375  47.306  54.680  1.00  0.00     0.171 HD
ATOM     20  O   UNL     1       7.720  47.682  55.283  1.00  0.00    -0.269 OA
ENDBRANCH   8   9
ENDBRANCH   1   8
BRANCH   1  21
ATOM     21  C   UNL     1       3.778  43.865  52.967  1.00  0.00     0.152 C 
BRANCH  21  22
ATOM     22  C   UNL     1       3.716  43.637  51.441  1.00  0.00     0.137 C 
ATOM     23  C   UNL     1       4.969  43.031  50.822  1.00  0.00     0.036 C 
ATOM     24  O   UNL     1       2.644  42.693  51.187  1.00  0.00    -0.376 OA
ATOM     25  C   UNL     1       4.668  41.554  50.809  1.00  0.00     0.031 C 
ATOM     26  C   UNL     1       3.187  41.549  50.515  1.00  0.00     0.160 C 
ENDBRANCH  21  22
ENDBRANCH   1  21
TORSDOF 6
ENDMDL
