MODEL 1
REMARK VINA RESULT:    -8.283      0.000      0.000
REMARK INTER + INTRA:         -13.259
REMARK INTER:                 -11.672
REMARK INTRA:                  -1.586
REMARK UNBOUND:                -1.586
REMARK SMILES O=C(NC(c1ncccn1)C1CC1)c1ccccc1OCC1CC1
REMARK SMILES IDX 14 1 15 2 16 3 17 4 18 5 19 6 2 7 3 8 1 9 4 11 5 12 6 13
REMARK SMILES IDX 10 14 7 15 9 16 8 17 11 18 12 19 13 20 20 21 21 22 22 23
REMARK SMILES IDX 23 24 24 25
REMARK H PARENT 3 10
ROOT
ATOM      1  C   UNL     1       7.629  46.586  52.733  1.00  0.00     0.081 A 
ATOM      2  C   UNL     1       8.510  47.023  53.740  1.00  0.00     0.018 A 
ATOM      3  C   UNL     1       9.892  46.960  53.566  1.00  0.00     0.001 A 
ATOM      4  C   UNL     1      10.416  46.463  52.379  1.00  0.00     0.004 A 
ATOM      5  C   UNL     1       9.558  46.022  51.367  1.00  0.00     0.047 A 
ATOM      6  C   UNL     1       8.166  46.064  51.538  1.00  0.00     0.132 A 
ENDROOT
BRANCH   1   7
ATOM      7  C   UNL     1       6.162  46.699  53.038  1.00  0.00     0.255 C 
ATOM      8  N   UNL     1       5.392  45.581  52.872  1.00  0.00    -0.342 N 
ATOM      9  O   UNL     1       5.696  47.770  53.419  1.00  0.00    -0.269 OA
ATOM     10  H   UNL     1       5.821  44.714  52.563  1.00  0.00     0.164 HD
BRANCH   8  11
ATOM     11  C   UNL     1       3.973  45.523  53.188  1.00  0.00     0.154 C 
BRANCH  11  12
ATOM     12  C   UNL     1       3.246  44.495  52.316  1.00  0.00     0.150 A 
ATOM     13  N   UNL     1       3.785  43.254  52.215  1.00  0.00    -0.239 NA
ATOM     14  N   UNL     1       2.093  44.870  51.719  1.00  0.00    -0.239 NA
ATOM     15  C   UNL     1       3.116  42.369  51.455  1.00  0.00     0.115 A 
ATOM     16  C   UNL     1       1.471  43.940  50.973  1.00  0.00     0.115 A 
ATOM     17  C   UNL     1       1.941  42.661  50.804  1.00  0.00     0.040 A 
ENDBRANCH  11  12
BRANCH  11  18
ATOM     18  C   UNL     1       3.822  45.136  54.643  1.00  0.00     0.019 C 
ATOM     19  C   UNL     1       3.317  46.133  55.660  1.00  0.00     0.006 C 
ATOM     20  C   UNL     1       2.455  44.969  55.263  1.00  0.00     0.006 C 
ENDBRANCH  11  18
ENDBRANCH   8  11
ENDBRANCH   1   7
BRANCH   6  21
ATOM     21  O   UNL     1       7.302  45.658  50.555  1.00  0.00    -0.492 OA
BRANCH  21  22
ATOM     22  C   UNL     1       7.662  44.479  49.833  1.00  0.00     0.233 C 
BRANCH  22  23
ATOM     23  C   UNL     1       6.474  43.565  49.842  1.00  0.00     0.027 C 
ATOM     24  C   UNL     1       6.229  42.600  48.711  1.00  0.00     0.007 C 
ATOM     25  C   UNL     1       6.655  42.084  50.058  1.00  0.00     0.007 C 
ENDBRANCH  22  23
ENDBRANCH  21  22
ENDBRANCH   6  21
TORSDOF 7
ENDMDL
MODEL 2
REMARK VINA RESULT:    -7.905      1.555      3.657
REMARK INTER + INTRA:         -12.727
REMARK INTER:                 -11.705
REMARK INTRA:                  -1.022
REMARK UNBOUND:                -1.586
REMARK SMILES O=C(NC(c1ncccn1)C1CC1)c1ccccc1OCC1CC1
REMARK SMILES IDX 14 1 15 2 16 3 17 4 18 5 19 6 2 7 3 8 1 9 4 11 5 12 6 13
REMARK SMILES IDX 10 14 7 15 9 16 8 17 11 18 12 19 13 20 20 21 21 22 22 23
REMARK SMILES IDX 23 24 24 25
REMARK H PARENT 3 10
ROOT
ATOM      1  C   UNL     1       5.799  44.646  50.564  1.00  0.00     0.081 A 
ATOM      2  C   UNL     1       5.687  43.388  49.942  1.00  0.00     0.018 A 
ATOM      3  C   UNL     1       6.783  42.791  49.321  1.00  0.00     0.001 A 
ATOM      4  C   UNL     1       8.011  43.442  49.314  1.00  0.00     0.004 A 
ATOM      5  C   UNL     1       8.142  44.692  49.924  1.00  0.00     0.047 A 
ATOM      6  C   UNL     1       7.042  45.310  50.537  1.00  0.00     0.132 A 
ENDROOT
BRANCH   1   7
ATOM      7  C   UNL     1       4.548  45.188  51.196  1.00  0.00     0.255 C 
ATOM      8  N   UNL     1       4.112  44.596  52.349  1.00  0.00    -0.342 N 
ATOM      9  O   UNL     1       3.955  46.129  50.673  1.00  0.00    -0.269 OA
ATOM     10  H   UNL     1       4.638  43.825  52.751  1.00  0.00     0.164 HD
BRANCH   8  11
ATOM     11  C   UNL     1       2.955  45.052  53.104  1.00  0.00     0.154 C 
BRANCH  11  12
ATOM     12  C   UNL     1       1.709  44.227  52.774  1.00  0.00     0.150 A 
ATOM     13  N   UNL     1       1.538  43.047  53.420  1.00  0.00    -0.239 NA
ATOM     14  N   UNL     1       0.832  44.732  51.878  1.00  0.00    -0.239 NA
ATOM     15  C   UNL     1       0.426  42.352  53.121  1.00  0.00     0.115 A 
ATOM     16  C   UNL     1      -0.260  43.991  51.621  1.00  0.00     0.115 A 
ATOM     17  C   UNL     1      -0.517  42.782  52.219  1.00  0.00     0.040 A 
ENDBRANCH  11  12
BRANCH  11  18
ATOM     18  C   UNL     1       3.264  44.917  54.580  1.00  0.00     0.019 C 
ATOM     19  C   UNL     1       3.881  46.062  55.349  1.00  0.00     0.006 C 
ATOM     20  C   UNL     1       2.456  45.666  55.612  1.00  0.00     0.006 C 
ENDBRANCH  11  18
ENDBRANCH   8  11
ENDBRANCH   1   7
BRANCH   6  21
ATOM     21  O   UNL     1       7.147  46.527  51.161  1.00  0.00    -0.492 OA
BRANCH  21  22
ATOM     22  C   UNL     1       7.664  46.521  52.492  1.00  0.00     0.233 C 
BRANCH  22  23
ATOM     23  C   UNL     1       8.979  47.241  52.468  1.00  0.00     0.027 C 
ATOM     24  C   UNL     1       9.897  47.217  53.662  1.00  0.00     0.007 C 
ATOM     25  C   UNL     1      10.270  46.465  52.414  1.00  0.00     0.007 C 
ENDBRANCH  22  23
ENDBRANCH  21  22
ENDBRANCH   6  21
TORSDOF 7
ENDMDL
MODEL 3
REMARK VINA RESULT:    -7.825      1.687      3.917
REMARK INTER + INTRA:         -12.613
REMARK INTER:                 -12.028
REMARK INTRA:                  -0.586
REMARK UNBOUND:                -1.586
REMARK SMILES O=C(NC(c1ncccn1)C1CC1)c1ccccc1OCC1CC1
REMARK SMILES IDX 14 1 15 2 16 3 17 4 18 5 19 6 2 7 3 8 1 9 4 11 5 12 6 13
REMARK SMILES IDX 10 14 7 15 9 16 8 17 11 18 12 19 13 20 20 21 21 22 22 23
REMARK SMILES IDX 23 24 24 25
REMARK H PARENT 3 10
ROOT
ATOM      1  C   UNL     1       6.053  44.741  50.643  1.00  0.00     0.081 A 
ATOM      2  C   UNL     1       5.743  43.490  50.076  1.00  0.00     0.018 A 
ATOM      3  C   UNL     1       6.689  42.779  49.338  1.00  0.00     0.001 A 
ATOM      4  C   UNL     1       7.962  43.307  49.158  1.00  0.00     0.004 A 
ATOM      5  C   UNL     1       8.288  44.548  49.710  1.00  0.00     0.047 A 
ATOM      6  C   UNL     1       7.339  45.280  50.440  1.00  0.00     0.132 A 
ENDROOT
BRANCH   1   7
ATOM      7  C   UNL     1       4.951  45.413  51.412  1.00  0.00     0.255 C 
ATOM      8  N   UNL     1       4.674  44.941  52.666  1.00  0.00    -0.342 N 
ATOM      9  O   UNL     1       4.334  46.348  50.909  1.00  0.00    -0.269 OA
ATOM     10  H   UNL     1       5.216  44.170  53.046  1.00  0.00     0.164 HD
BRANCH   8  11
ATOM     11  C   UNL     1       3.680  45.531  53.550  1.00  0.00     0.154 C 
BRANCH  11  12
ATOM     12  C   UNL     1       2.448  44.633  53.685  1.00  0.00     0.150 A 
ATOM     13  N   UNL     1       1.422  45.072  54.457  1.00  0.00    -0.239 NA
ATOM     14  N   UNL     1       2.435  43.465  53.004  1.00  0.00    -0.239 NA
ATOM     15  C   UNL     1       0.347  44.269  54.543  1.00  0.00     0.115 A 
ATOM     16  C   UNL     1       1.332  42.706  53.131  1.00  0.00     0.115 A 
ATOM     17  C   UNL     1       0.247  43.062  53.894  1.00  0.00     0.040 A 
ENDBRANCH  11  12
BRANCH  11  18
ATOM     18  C   UNL     1       4.308  45.723  54.914  1.00  0.00     0.019 C 
ATOM     19  C   UNL     1       5.467  44.862  55.360  1.00  0.00     0.006 C 
ATOM     20  C   UNL     1       5.690  46.316  55.054  1.00  0.00     0.006 C 
ENDBRANCH  11  18
ENDBRANCH   8  11
ENDBRANCH   1   7
BRANCH   6  21
ATOM     21  O   UNL     1       7.639  46.491  51.010  1.00  0.00    -0.492 OA
BRANCH  21  22
ATOM     22  C   UNL     1       8.949  46.632  51.562  1.00  0.00     0.233 C 
BRANCH  22  23
ATOM     23  C   UNL     1       8.817  46.582  53.054  1.00  0.00     0.027 C 
ATOM     24  C   UNL     1      10.023  46.734  53.945  1.00  0.00     0.007 C 
ATOM     25  C   UNL     1       8.997  47.832  53.876  1.00  0.00     0.007 C 
ENDBRANCH  22  23
ENDBRANCH  21  22
ENDBRANCH   6  21
TORSDOF 7
ENDMDL
MODEL 4
REMARK VINA RESULT:    -7.525      1.773      4.267
REMARK INTER + INTRA:         -12.191
REMARK INTER:                 -11.532
REMARK INTRA:                  -0.659
REMARK UNBOUND:                -1.586
REMARK SMILES O=C(NC(c1ncccn1)C1CC1)c1ccccc1OCC1CC1
REMARK SMILES IDX 14 1 15 2 16 3 17 4 18 5 19 6 2 7 3 8 1 9 4 11 5 12 6 13
REMARK SMILES IDX 10 14 7 15 9 16 8 17 11 18 12 19 13 20 20 21 21 22 22 23
REMARK SMILES IDX 23 24 24 25
REMARK H PARENT 3 10
ROOT
ATOM      1  C   UNL     1       5.300  43.947  50.858  1.00  0.00     0.081 A 
ATOM      2  C   UNL     1       4.691  42.681  50.942  1.00  0.00     0.018 A 
ATOM      3  C   UNL     1       5.263  41.565  50.331  1.00  0.00     0.001 A 
ATOM      4  C   UNL     1       6.455  41.698  49.630  1.00  0.00     0.004 A 
ATOM      5  C   UNL     1       7.074  42.947  49.534  1.00  0.00     0.047 A 
ATOM      6  C   UNL     1       6.499  44.080  50.130  1.00  0.00     0.132 A 
ENDROOT
BRANCH   1   7
ATOM      7  C   UNL     1       4.588  45.074  51.553  1.00  0.00     0.255 C 
ATOM      8  N   UNL     1       4.336  44.936  52.891  1.00  0.00    -0.342 N 
ATOM      9  O   UNL     1       4.251  46.070  50.918  1.00  0.00    -0.269 OA
ATOM     10  H   UNL     1       4.640  44.098  53.378  1.00  0.00     0.164 HD
BRANCH   8  11
ATOM     11  C   UNL     1       3.713  45.968  53.706  1.00  0.00     0.154 C 
BRANCH  11  12
ATOM     12  C   UNL     1       2.357  45.510  54.248  1.00  0.00     0.150 A 
ATOM     13  N   UNL     1       2.222  45.371  55.590  1.00  0.00    -0.239 NA
ATOM     14  N   UNL     1       1.357  45.299  53.363  1.00  0.00    -0.239 NA
ATOM     15  C   UNL     1       1.015  44.982  56.037  1.00  0.00     0.115 A 
ATOM     16  C   UNL     1       0.174  44.912  53.870  1.00  0.00     0.115 A 
ATOM     17  C   UNL     1      -0.057  44.737  55.213  1.00  0.00     0.040 A 
ENDBRANCH  11  12
BRANCH  11  18
ATOM     18  C   UNL     1       4.633  46.280  54.867  1.00  0.00     0.019 C 
ATOM     19  C   UNL     1       5.968  45.586  55.004  1.00  0.00     0.006 C 
ATOM     20  C   UNL     1       5.917  47.046  54.653  1.00  0.00     0.006 C 
ENDBRANCH  11  18
ENDBRANCH   8  11
ENDBRANCH   1   7
BRANCH   6  21
ATOM     21  O   UNL     1       7.096  45.313  50.069  1.00  0.00    -0.492 OA
BRANCH  21  22
ATOM     22  C   UNL     1       8.373  45.438  50.696  1.00  0.00     0.233 C 
BRANCH  22  23
ATOM     23  C   UNL     1       8.198  46.305  51.906  1.00  0.00     0.027 C 
ATOM     24  C   UNL     1       9.390  46.864  52.638  1.00  0.00     0.007 C 
ATOM     25  C   UNL     1       8.505  47.779  51.837  1.00  0.00     0.007 C 
ENDBRANCH  22  23
ENDBRANCH  21  22
ENDBRANCH   6  21
TORSDOF 7
ENDMDL
MODEL 5
REMARK VINA RESULT:    -7.209      1.909      5.759
REMARK INTER + INTRA:         -11.746
REMARK INTER:                 -11.268
REMARK INTRA:                  -0.478
REMARK UNBOUND:                -1.586
REMARK SMILES O=C(NC(c1ncccn1)C1CC1)c1ccccc1OCC1CC1
REMARK SMILES IDX 14 1 15 2 16 3 17 4 18 5 19 6 2 7 3 8 1 9 4 11 5 12 6 13
REMARK SMILES IDX 10 14 7 15 9 16 8 17 11 18 12 19 13 20 20 21 21 22 22 23
REMARK SMILES IDX 23 24 24 25
REMARK H PARENT 3 10
ROOT
ATOM      1  C   UNL     1       5.445  43.489  50.710  1.00  0.00     0.081 A 
ATOM      2  C   UNL     1       6.312  43.405  49.605  1.00  0.00     0.018 A 
ATOM      3  C   UNL     1       6.343  42.267  48.798  1.00  0.00     0.001 A 
ATOM      4  C   UNL     1       5.504  41.197  49.083  1.00  0.00     0.004 A 
ATOM      5  C   UNL     1       4.637  41.260  50.177  1.00  0.00     0.047 A 
ATOM      6  C   UNL     1       4.610  42.393  51.006  1.00  0.00     0.132 A 
ENDROOT
BRANCH   1   7
ATOM      7  C   UNL     1       5.505  44.762  51.506  1.00  0.00     0.255 C 
ATOM      8  N   UNL     1       5.794  44.664  52.839  1.00  0.00    -0.342 N 
ATOM      9  O   UNL     1       5.294  45.840  50.954  1.00  0.00    -0.269 OA
ATOM     10  H   UNL     1       5.969  43.753  53.252  1.00  0.00     0.164 HD
BRANCH   8  11
ATOM     11  C   UNL     1       5.947  45.813  53.719  1.00  0.00     0.154 C 
BRANCH  11  12
ATOM     12  C   UNL     1       7.368  46.380  53.657  1.00  0.00     0.150 A 
ATOM     13  N   UNL     1       7.780  47.175  54.676  1.00  0.00    -0.239 NA
ATOM     14  N   UNL     1       8.145  46.033  52.608  1.00  0.00    -0.239 NA
ATOM     15  C   UNL     1       9.038  47.645  54.602  1.00  0.00     0.115 A 
ATOM     16  C   UNL     1       9.393  46.534  52.590  1.00  0.00     0.115 A 
ATOM     17  C   UNL     1       9.897  47.353  53.571  1.00  0.00     0.040 A 
ENDBRANCH  11  12
BRANCH  11  18
ATOM     18  C   UNL     1       4.966  46.881  53.286  1.00  0.00     0.019 C 
ATOM     19  C   UNL     1       3.564  46.918  53.849  1.00  0.00     0.006 C 
ATOM     20  C   UNL     1       4.553  47.983  54.233  1.00  0.00     0.006 C 
ENDBRANCH  11  18
ENDBRANCH   8  11
ENDBRANCH   1   7
BRANCH   6  21
ATOM     21  O   UNL     1       3.755  42.490  52.074  1.00  0.00    -0.492 OA
BRANCH  21  22
ATOM     22  C   UNL     1       2.368  42.653  51.771  1.00  0.00     0.233 C 
BRANCH  22  23
ATOM     23  C   UNL     1       1.965  44.021  52.233  1.00  0.00     0.027 C 
ATOM     24  C   UNL     1       1.820  45.158  51.255  1.00  0.00     0.007 C 
ATOM     25  C   UNL     1       0.599  44.564  51.902  1.00  0.00     0.007 C 
ENDBRANCH  22  23
ENDBRANCH  21  22
ENDBRANCH   6  21
TORSDOF 7
ENDMDL
MODEL 6
REMARK VINA RESULT:    -7.188      1.706      2.818
REMARK INTER + INTRA:         -11.716
REMARK INTER:                 -10.279
REMARK INTRA:                  -1.438
REMARK UNBOUND:                -1.586
REMARK SMILES O=C(NC(c1ncccn1)C1CC1)c1ccccc1OCC1CC1
REMARK SMILES IDX 14 1 15 2 16 3 17 4 18 5 19 6 2 7 3 8 1 9 4 11 5 12 6 13
REMARK SMILES IDX 10 14 7 15 9 16 8 17 11 18 12 19 13 20 20 21 21 22 22 23
REMARK SMILES IDX 23 24 24 25
REMARK H PARENT 3 10
ROOT
ATOM      1  C   UNL     1       6.859  45.999  53.299  1.00  0.00     0.081 A 
ATOM      2  C   UNL     1       7.396  46.567  54.469  1.00  0.00     0.018 A 
ATOM      3  C   UNL     1       8.359  47.573  54.405  1.00  0.00     0.001 A 
ATOM      4  C   UNL     1       8.797  48.031  53.168  1.00  0.00     0.004 A 
ATOM      5  C   UNL     1       8.278  47.478  51.994  1.00  0.00     0.047 A 
ATOM      6  C   UNL     1       7.321  46.452  52.047  1.00  0.00     0.132 A 
ENDROOT
BRANCH   1   7
ATOM      7  C   UNL     1       5.832  44.919  53.496  1.00  0.00     0.255 C 
ATOM      8  N   UNL     1       4.960  44.678  52.470  1.00  0.00    -0.342 N 
ATOM      9  O   UNL     1       5.796  44.293  54.552  1.00  0.00    -0.269 OA
ATOM     10  H   UNL     1       5.031  45.215  51.610  1.00  0.00     0.164 HD
BRANCH   8  11
ATOM     11  C   UNL     1       3.957  43.625  52.493  1.00  0.00     0.154 C 
BRANCH  11  12
ATOM     12  C   UNL     1       2.566  44.184  52.806  1.00  0.00     0.150 A 
ATOM     13  N   UNL     1       2.074  45.155  51.996  1.00  0.00    -0.239 NA
ATOM     14  N   UNL     1       1.892  43.660  53.853  1.00  0.00    -0.239 NA
ATOM     15  C   UNL     1       0.844  45.615  52.288  1.00  0.00     0.115 A 
ATOM     16  C   UNL     1       0.667  44.161  54.094  1.00  0.00     0.115 A 
ATOM     17  C   UNL     1       0.087  45.149  53.335  1.00  0.00     0.040 A 
ENDBRANCH  11  12
BRANCH  11  18
ATOM     18  C   UNL     1       3.930  42.960  51.133  1.00  0.00     0.019 C 
ATOM     19  C   UNL     1       4.301  41.504  50.978  1.00  0.00     0.006 C 
ATOM     20  C   UNL     1       2.874  41.936  50.793  1.00  0.00     0.006 C 
ENDBRANCH  11  18
ENDBRANCH   8  11
ENDBRANCH   1   7
BRANCH   6  21
ATOM     21  O   UNL     1       6.779  45.907  50.912  1.00  0.00    -0.492 OA
BRANCH  21  22
ATOM     22  C   UNL     1       7.651  45.116  50.102  1.00  0.00     0.233 C 
BRANCH  22  23
ATOM     23  C   UNL     1       6.913  43.866  49.734  1.00  0.00     0.027 C 
ATOM     24  C   UNL     1       7.208  43.142  48.445  1.00  0.00     0.007 C 
ATOM     25  C   UNL     1       7.614  42.532  49.759  1.00  0.00     0.007 C 
ENDBRANCH  22  23
ENDBRANCH  21  22
ENDBRANCH   6  21
TORSDOF 7
ENDMDL
MODEL 7
REMARK VINA RESULT:    -7.176      1.877      2.560
REMARK INTER + INTRA:         -11.699
REMARK INTER:                 -10.298
REMARK INTRA:                  -1.401
REMARK UNBOUND:                -1.586
REMARK SMILES O=C(NC(c1ncccn1)C1CC1)c1ccccc1OCC1CC1
REMARK SMILES IDX 14 1 15 2 16 3 17 4 18 5 19 6 2 7 3 8 1 9 4 11 5 12 6 13
REMARK SMILES IDX 10 14 7 15 9 16 8 17 11 18 12 19 13 20 20 21 21 22 22 23
REMARK SMILES IDX 23 24 24 25
REMARK H PARENT 3 10
ROOT
ATOM      1  C   UNL     1       5.178  46.575  52.372  1.00  0.00     0.081 A 
ATOM      2  C   UNL     1       6.016  47.497  53.026  1.00  0.00     0.018 A 
ATOM      3  C   UNL     1       7.391  47.512  52.791  1.00  0.00     0.001 A 
ATOM      4  C   UNL     1       7.948  46.608  51.895  1.00  0.00     0.004 A 
ATOM      5  C   UNL     1       7.133  45.683  51.238  1.00  0.00     0.047 A 
ATOM      6  C   UNL     1       5.751  45.647  51.479  1.00  0.00     0.132 A 
ENDROOT
BRANCH   1   7
ATOM      7  C   UNL     1       3.716  46.652  52.709  1.00  0.00     0.255 C 
ATOM      8  N   UNL     1       3.171  45.614  53.415  1.00  0.00    -0.342 N 
ATOM      9  O   UNL     1       3.054  47.623  52.348  1.00  0.00    -0.269 OA
ATOM     10  H   UNL     1       3.758  44.835  53.699  1.00  0.00     0.164 HD
BRANCH   8  11
ATOM     11  C   UNL     1       1.788  45.581  53.865  1.00  0.00     0.154 C 
BRANCH  11  12
ATOM     12  C   UNL     1       0.905  44.786  52.900  1.00  0.00     0.150 A 
ATOM     13  N   UNL     1      -0.057  45.457  52.219  1.00  0.00    -0.239 NA
ATOM     14  N   UNL     1       1.149  43.464  52.756  1.00  0.00    -0.239 NA
ATOM     15  C   UNL     1      -0.807  44.735  51.367  1.00  0.00     0.115 A 
ATOM     16  C   UNL     1       0.367  42.797  51.891  1.00  0.00     0.115 A 
ATOM     17  C   UNL     1      -0.637  43.387  51.161  1.00  0.00     0.040 A 
ENDBRANCH  11  12
BRANCH  11  18
ATOM     18  C   UNL     1       1.746  44.929  55.230  1.00  0.00     0.019 C 
ATOM     19  C   UNL     1       1.575  45.761  56.480  1.00  0.00     0.006 C 
ATOM     20  C   UNL     1       0.460  44.866  56.019  1.00  0.00     0.006 C 
ENDBRANCH  11  18
ENDBRANCH   8  11
ENDBRANCH   1   7
BRANCH   6  21
ATOM     21  O   UNL     1       4.925  44.764  50.832  1.00  0.00    -0.492 OA
BRANCH  21  22
ATOM     22  C   UNL     1       5.017  43.395  51.226  1.00  0.00     0.233 C 
BRANCH  22  23
ATOM     23  C   UNL     1       5.306  42.590  49.995  1.00  0.00     0.027 C 
ATOM     24  C   UNL     1       6.568  42.813  49.202  1.00  0.00     0.007 C 
ATOM     25  C   UNL     1       6.398  41.551  50.004  1.00  0.00     0.007 C 
ENDBRANCH  22  23
ENDBRANCH  21  22
ENDBRANCH   6  21
TORSDOF 7
ENDMDL
MODEL 8
REMARK VINA RESULT:    -6.977      1.659      4.679
REMARK INTER + INTRA:         -11.419
REMARK INTER:                 -10.533
REMARK INTRA:                  -0.886
REMARK UNBOUND:                -1.586
REMARK SMILES O=C(NC(c1ncccn1)C1CC1)c1ccccc1OCC1CC1
REMARK SMILES IDX 14 1 15 2 16 3 17 4 18 5 19 6 2 7 3 8 1 9 4 11 5 12 6 13
REMARK SMILES IDX 10 14 7 15 9 16 8 17 11 18 12 19 13 20 20 21 21 22 22 23
REMARK SMILES IDX 23 24 24 25
REMARK H PARENT 3 10
ROOT
ATOM      1  C   UNL     1       5.819  43.600  50.577  1.00  0.00     0.081 A 
ATOM      2  C   UNL     1       6.262  42.751  49.547  1.00  0.00     0.018 A 
ATOM      3  C   UNL     1       7.399  43.058  48.799  1.00  0.00     0.001 A 
ATOM      4  C   UNL     1       8.112  44.218  49.073  1.00  0.00     0.004 A 
ATOM      5  C   UNL     1       7.687  45.076  50.091  1.00  0.00     0.047 A 
ATOM      6  C   UNL     1       6.535  44.786  50.838  1.00  0.00     0.132 A 
ENDROOT
BRANCH   1   7
ATOM      7  C   UNL     1       4.581  43.166  51.309  1.00  0.00     0.255 C 
ATOM      8  N   UNL     1       3.722  44.141  51.739  1.00  0.00    -0.342 N 
ATOM      9  O   UNL     1       4.372  41.971  51.505  1.00  0.00    -0.269 OA
ATOM     10  H   UNL     1       3.931  45.116  51.548  1.00  0.00     0.164 HD
BRANCH   8  11
ATOM     11  C   UNL     1       2.457  43.868  52.403  1.00  0.00     0.154 C 
BRANCH  11  12
ATOM     12  C   UNL     1       2.381  44.560  53.767  1.00  0.00     0.150 A 
ATOM     13  N   UNL     1       1.351  44.235  54.588  1.00  0.00    -0.239 NA
ATOM     14  N   UNL     1       3.360  45.433  54.093  1.00  0.00    -0.239 NA
ATOM     15  C   UNL     1       1.320  44.846  55.786  1.00  0.00     0.115 A 
ATOM     16  C   UNL     1       3.274  46.012  55.303  1.00  0.00     0.115 A 
ATOM     17  C   UNL     1       2.265  45.753  56.200  1.00  0.00     0.040 A 
ENDBRANCH  11  12
BRANCH  11  18
ATOM     18  C   UNL     1       1.336  44.378  51.524  1.00  0.00     0.019 C 
ATOM     19  C   UNL     1       0.524  43.426  50.676  1.00  0.00     0.006 C 
ATOM     20  C   UNL     1      -0.107  44.092  51.866  1.00  0.00     0.006 C 
ENDBRANCH  11  18
ENDBRANCH   8  11
ENDBRANCH   1   7
BRANCH   6  21
ATOM     21  O   UNL     1       6.107  45.599  51.856  1.00  0.00    -0.492 OA
BRANCH  21  22
ATOM     22  C   UNL     1       6.961  45.702  52.996  1.00  0.00     0.233 C 
BRANCH  22  23
ATOM     23  C   UNL     1       7.843  46.897  52.792  1.00  0.00     0.027 C 
ATOM     24  C   UNL     1       8.581  47.521  53.948  1.00  0.00     0.007 C 
ATOM     25  C   UNL     1       9.341  46.763  52.893  1.00  0.00     0.007 C 
ENDBRANCH  22  23
ENDBRANCH  21  22
ENDBRANCH   6  21
TORSDOF 7
ENDMDL
MODEL 9
REMARK VINA RESULT:    -6.909      2.071      4.329
REMARK INTER + INTRA:         -11.322
REMARK INTER:                 -10.684
REMARK INTRA:                  -0.638
REMARK UNBOUND:                -1.586
REMARK SMILES O=C(NC(c1ncccn1)C1CC1)c1ccccc1OCC1CC1
REMARK SMILES IDX 14 1 15 2 16 3 17 4 18 5 19 6 2 7 3 8 1 9 4 11 5 12 6 13
REMARK SMILES IDX 10 14 7 15 9 16 8 17 11 18 12 19 13 20 20 21 21 22 22 23
REMARK SMILES IDX 23 24 24 25
REMARK H PARENT 3 10
ROOT
ATOM      1  C   UNL     1       4.632  43.660  51.298  1.00  0.00     0.081 A 
ATOM      2  C   UNL     1       4.246  42.311  51.189  1.00  0.00     0.018 A 
ATOM      3  C   UNL     1       5.006  41.401  50.454  1.00  0.00     0.001 A 
ATOM      4  C   UNL     1       6.168  41.826  49.821  1.00  0.00     0.004 A 
ATOM      5  C   UNL     1       6.567  43.161  49.916  1.00  0.00     0.047 A 
ATOM      6  C   UNL     1       5.801  44.090  50.638  1.00  0.00     0.132 A 
ENDROOT
BRANCH   1   7
ATOM      7  C   UNL     1       3.731  44.545  52.112  1.00  0.00     0.255 C 
ATOM      8  N   UNL     1       2.431  44.150  52.273  1.00  0.00    -0.342 N 
ATOM      9  O   UNL     1       4.170  45.583  52.601  1.00  0.00    -0.269 OA
ATOM     10  H   UNL     1       2.113  43.280  51.857  1.00  0.00     0.164 HD
BRANCH   8  11
ATOM     11  C   UNL     1       1.462  44.871  53.085  1.00  0.00     0.154 C 
BRANCH  11  12
ATOM     12  C   UNL     1       0.028  44.585  52.630  1.00  0.00     0.150 A 
ATOM     13  N   UNL     1      -0.415  43.305  52.692  1.00  0.00    -0.239 NA
ATOM     14  N   UNL     1      -0.728  45.628  52.222  1.00  0.00    -0.239 NA
ATOM     15  C   UNL     1      -1.684  43.088  52.301  1.00  0.00     0.115 A 
ATOM     16  C   UNL     1      -1.988  45.348  51.844  1.00  0.00     0.115 A 
ATOM     17  C   UNL     1      -2.524  44.083  51.863  1.00  0.00     0.040 A 
ENDBRANCH  11  12
BRANCH  11  18
ATOM     18  C   UNL     1       1.624  44.432  54.524  1.00  0.00     0.019 C 
ATOM     19  C   UNL     1       2.238  45.357  55.550  1.00  0.00     0.006 C 
ATOM     20  C   UNL     1       0.772  45.034  55.617  1.00  0.00     0.006 C 
ENDBRANCH  11  18
ENDBRANCH   8  11
ENDBRANCH   1   7
BRANCH   6  21
ATOM     21  O   UNL     1       6.180  45.401  50.765  1.00  0.00    -0.492 OA
BRANCH  21  22
ATOM     22  C   UNL     1       7.575  45.679  50.634  1.00  0.00     0.233 C 
BRANCH  22  23
ATOM     23  C   UNL     1       7.996  46.449  51.849  1.00  0.00     0.027 C 
ATOM     24  C   UNL     1       9.449  46.754  52.109  1.00  0.00     0.007 C 
ATOM     25  C   UNL     1       8.509  47.860  51.716  1.00  0.00     0.007 C 
ENDBRANCH  22  23
ENDBRANCH  21  22
ENDBRANCH   6  21
TORSDOF 7
ENDMDL
MODEL 10
REMARK VINA RESULT:    -6.853      1.875      6.218
REMARK INTER + INTRA:         -11.244
REMARK INTER:                 -10.122
REMARK INTRA:                  -1.123
REMARK UNBOUND:                -1.586
REMARK SMILES O=C(NC(c1ncccn1)C1CC1)c1ccccc1OCC1CC1
REMARK SMILES IDX 14 1 15 2 16 3 17 4 18 5 19 6 2 7 3 8 1 9 4 11 5 12 6 13
REMARK SMILES IDX 10 14 7 15 9 16 8 17 11 18 12 19 13 20 20 21 21 22 22 23
REMARK SMILES IDX 23 24 24 25
REMARK H PARENT 3 10
ROOT
ATOM      1  C   UNL     1       3.276  45.213  53.022  1.00  0.00     0.081 A 
ATOM      2  C   UNL     1       3.453  45.530  54.382  1.00  0.00     0.018 A 
ATOM      3  C   UNL     1       2.524  45.130  55.342  1.00  0.00     0.001 A 
ATOM      4  C   UNL     1       1.404  44.402  54.957  1.00  0.00     0.004 A 
ATOM      5  C   UNL     1       1.209  44.080  53.611  1.00  0.00     0.047 A 
ATOM      6  C   UNL     1       2.129  44.492  52.634  1.00  0.00     0.132 A 
ENDROOT
BRANCH   1   7
ATOM      7  C   UNL     1       4.342  45.702  52.083  1.00  0.00     0.255 C 
ATOM      8  N   UNL     1       5.535  45.032  52.073  1.00  0.00    -0.342 N 
ATOM      9  O   UNL     1       4.125  46.673  51.362  1.00  0.00    -0.269 OA
ATOM     10  H   UNL     1       5.668  44.229  52.680  1.00  0.00     0.164 HD
BRANCH   8  11
ATOM     11  C   UNL     1       6.633  45.352  51.173  1.00  0.00     0.154 C 
BRANCH  11  12
ATOM     12  C   UNL     1       7.780  46.044  51.915  1.00  0.00     0.150 A 
ATOM     13  N   UNL     1       7.480  46.746  53.036  1.00  0.00    -0.239 NA
ATOM     14  N   UNL     1       9.033  45.894  51.430  1.00  0.00    -0.239 NA
ATOM     15  C   UNL     1       8.510  47.330  53.674  1.00  0.00     0.115 A 
ATOM     16  C   UNL     1      10.020  46.501  52.111  1.00  0.00     0.115 A 
ATOM     17  C   UNL     1       9.815  47.239  53.252  1.00  0.00     0.040 A 
ENDBRANCH  11  12
BRANCH  11  18
ATOM     18  C   UNL     1       7.142  44.063  50.563  1.00  0.00     0.019 C 
ATOM     19  C   UNL     1       6.563  43.540  49.269  1.00  0.00     0.006 C 
ATOM     20  C   UNL     1       7.966  44.078  49.298  1.00  0.00     0.006 C 
ENDBRANCH  11  18
ENDBRANCH   8  11
ENDBRANCH   1   7
BRANCH   6  21
ATOM     21  O   UNL     1       1.974  44.171  51.310  1.00  0.00    -0.492 OA
BRANCH  21  22
ATOM     22  C   UNL     1       1.975  42.780  50.984  1.00  0.00     0.233 C 
BRANCH  22  23
ATOM     23  C   UNL     1       3.348  42.435  50.491  1.00  0.00     0.027 C 
ATOM     24  C   UNL     1       4.266  41.559  51.304  1.00  0.00     0.007 C 
ATOM     25  C   UNL     1       3.661  41.035  50.030  1.00  0.00     0.007 C 
ENDBRANCH  22  23
ENDBRANCH  21  22
ENDBRANCH   6  21
TORSDOF 7
ENDMDL
