MODEL 1
REMARK VINA RESULT:    -9.400      0.000      0.000
REMARK INTER + INTRA:         -13.666
REMARK INTER:                 -12.697
REMARK INTRA:                  -0.970
REMARK UNBOUND:                -0.970
REMARK SMILES CN(Cc1nc2ccccc2c(=O)[nH]1)C(=O)CCC1CCCC1
REMARK SMILES IDX 1 1 2 2 3 3 4 4 5 5 14 6 6 7 12 8 7 9 11 10 8 11 10 12 9 13
REMARK SMILES IDX 13 15 15 16 16 17 17 18 18 19 19 20 20 21 23 22 21 23 22 24
REMARK H PARENT 14 14
ROOT
ATOM      1  C   UNL     1       3.399  45.355  55.132  1.00  0.00     0.147 C 
ATOM      2  N   UNL     1       3.817  46.281  54.088  1.00  0.00    -0.338 N 
ENDROOT
BRANCH   2   3
ATOM      3  C   UNL     1       3.262  46.084  52.745  1.00  0.00     0.194 C 
BRANCH   3   4
ATOM      4  C   UNL     1       4.160  45.170  51.915  1.00  0.00     0.129 C 
ATOM      5  N   UNL     1       5.256  45.605  51.382  1.00  0.00    -0.233 NA
ATOM      6  N   UNL     1       3.748  43.864  51.809  1.00  0.00    -0.308 N 
ATOM      7  C   UNL     1       6.046  44.701  50.654  1.00  0.00     0.078 A 
ATOM      8  C   UNL     1       4.450  42.904  51.129  1.00  0.00     0.258 C 
ATOM      9  C   UNL     1       7.227  45.158  50.066  1.00  0.00     0.029 A 
ATOM     10  C   UNL     1       5.700  43.356  50.497  1.00  0.00     0.065 A 
ATOM     11  C   UNL     1       8.042  44.287  49.337  1.00  0.00     0.002 A 
ATOM     12  C   UNL     1       6.506  42.474  49.770  1.00  0.00     0.016 A 
ATOM     13  C   UNL     1       7.682  42.947  49.188  1.00  0.00     0.001 A 
ATOM     14  H   UNL     1       2.886  43.551  52.231  1.00  0.00     0.171 HD
ATOM     15  O   UNL     1       4.059  41.745  51.059  1.00  0.00    -0.269 OA
ENDBRANCH   3   4
ENDBRANCH   2   3
BRANCH   2  16
ATOM     16  C   UNL     1       4.898  47.152  54.217  1.00  0.00     0.222 C 
ATOM     17  O   UNL     1       4.856  48.312  53.809  1.00  0.00    -0.275 OA
BRANCH  16  18
ATOM     18  C   UNL     1       6.135  46.608  54.921  1.00  0.00     0.100 C 
BRANCH  18  19
ATOM     19  C   UNL     1       7.278  46.317  53.943  1.00  0.00     0.013 C 
BRANCH  19  20
ATOM     20  C   UNL     1       8.316  47.454  53.887  1.00  0.00    -0.011 C 
ATOM     21  C   UNL     1       9.745  46.908  53.834  1.00  0.00     0.003 C 
ATOM     22  C   UNL     1       8.256  48.287  52.607  1.00  0.00     0.003 C 
ATOM     23  C   UNL     1       9.997  46.596  52.362  1.00  0.00     0.000 C 
ATOM     24  C   UNL     1       9.030  47.476  51.572  1.00  0.00     0.000 C 
ENDBRANCH  19  20
ENDBRANCH  18  19
ENDBRANCH  16  18
ENDBRANCH   2  16
TORSDOF 6
ENDMDL
MODEL 2
REMARK VINA RESULT:    -9.078      1.520      2.242
REMARK INTER + INTRA:         -13.232
REMARK INTER:                 -12.472
REMARK INTRA:                  -0.760
REMARK UNBOUND:                -0.970
REMARK SMILES CN(Cc1nc2ccccc2c(=O)[nH]1)C(=O)CCC1CCCC1
REMARK SMILES IDX 1 1 2 2 3 3 4 4 5 5 14 6 6 7 12 8 7 9 11 10 8 11 10 12 9 13
REMARK SMILES IDX 13 15 15 16 16 17 17 18 18 19 19 20 20 21 23 22 21 23 22 24
REMARK H PARENT 14 14
ROOT
ATOM      1  C   UNL     1       2.547  45.670  54.752  1.00  0.00     0.147 C 
ATOM      2  N   UNL     1       3.825  46.138  54.235  1.00  0.00    -0.338 N 
ENDROOT
BRANCH   2   3
ATOM      3  C   UNL     1       3.880  46.543  52.827  1.00  0.00     0.194 C 
BRANCH   3   4
ATOM      4  C   UNL     1       4.548  45.465  51.977  1.00  0.00     0.129 C 
ATOM      5  N   UNL     1       4.028  44.288  51.850  1.00  0.00    -0.233 NA
ATOM      6  N   UNL     1       5.703  45.841  51.336  1.00  0.00    -0.308 N 
ATOM      7  C   UNL     1       4.683  43.355  51.030  1.00  0.00     0.078 A 
ATOM      8  C   UNL     1       6.413  45.010  50.510  1.00  0.00     0.258 C 
ATOM      9  C   UNL     1       4.138  42.078  50.890  1.00  0.00     0.029 A 
ATOM     10  C   UNL     1       5.863  43.655  50.343  1.00  0.00     0.065 A 
ATOM     11  C   UNL     1       4.760  41.123  50.080  1.00  0.00     0.002 A 
ATOM     12  C   UNL     1       6.495  42.711  49.529  1.00  0.00     0.016 A 
ATOM     13  C   UNL     1       5.938  41.439  49.400  1.00  0.00     0.001 A 
ATOM     14  H   UNL     1       6.091  46.766  51.456  1.00  0.00     0.171 HD
ATOM     15  O   UNL     1       7.437  45.379  49.947  1.00  0.00    -0.269 OA
ENDBRANCH   3   4
ENDBRANCH   2   3
BRANCH   2  16
ATOM     16  C   UNL     1       5.037  45.966  54.903  1.00  0.00     0.222 C 
ATOM     17  O   UNL     1       5.282  44.961  55.568  1.00  0.00    -0.275 OA
BRANCH  16  18
ATOM     18  C   UNL     1       6.069  47.078  54.745  1.00  0.00     0.100 C 
BRANCH  18  19
ATOM     19  C   UNL     1       7.428  46.545  54.281  1.00  0.00     0.013 C 
BRANCH  19  20
ATOM     20  C   UNL     1       8.445  47.668  54.006  1.00  0.00    -0.011 C 
ATOM     21  C   UNL     1       9.885  47.154  54.080  1.00  0.00     0.003 C 
ATOM     22  C   UNL     1       8.388  48.223  52.583  1.00  0.00     0.003 C 
ATOM     23  C   UNL     1      10.164  46.555  52.704  1.00  0.00     0.000 C 
ATOM     24  C   UNL     1       9.192  47.235  51.742  1.00  0.00     0.000 C 
ENDBRANCH  19  20
ENDBRANCH  18  19
ENDBRANCH  16  18
ENDBRANCH   2  16
TORSDOF 6
ENDMDL
MODEL 3
REMARK VINA RESULT:    -8.780      1.219      1.745
REMARK INTER + INTRA:         -12.829
REMARK INTER:                 -12.001
REMARK INTRA:                  -0.828
REMARK UNBOUND:                -0.970
REMARK SMILES CN(Cc1nc2ccccc2c(=O)[nH]1)C(=O)CCC1CCCC1
REMARK SMILES IDX 1 1 2 2 3 3 4 4 5 5 14 6 6 7 12 8 7 9 11 10 8 11 10 12 9 13
REMARK SMILES IDX 13 15 15 16 16 17 17 18 18 19 19 20 20 21 23 22 21 23 22 24
REMARK H PARENT 14 14
ROOT
ATOM      1  C   UNL     1       3.267  45.792  55.326  1.00  0.00     0.147 C 
ATOM      2  N   UNL     1       3.555  46.690  54.216  1.00  0.00    -0.338 N 
ENDROOT
BRANCH   2   3
ATOM      3  C   UNL     1       2.766  46.528  52.991  1.00  0.00     0.194 C 
BRANCH   3   4
ATOM      4  C   UNL     1       3.113  45.217  52.291  1.00  0.00     0.129 C 
ATOM      5  N   UNL     1       4.287  45.010  51.789  1.00  0.00    -0.233 NA
ATOM      6  N   UNL     1       2.116  44.272  52.266  1.00  0.00    -0.308 N 
ATOM      7  C   UNL     1       4.544  43.770  51.183  1.00  0.00     0.078 A 
ATOM      8  C   UNL     1       2.267  43.030  51.707  1.00  0.00     0.258 C 
ATOM      9  C   UNL     1       5.804  43.536  50.630  1.00  0.00     0.029 A 
ATOM     10  C   UNL     1       3.586  42.754  51.115  1.00  0.00     0.065 A 
ATOM     11  C   UNL     1       6.097  42.311  50.022  1.00  0.00     0.002 A 
ATOM     12  C   UNL     1       3.866  41.525  50.510  1.00  0.00     0.016 A 
ATOM     13  C   UNL     1       5.129  41.307  49.961  1.00  0.00     0.001 A 
ATOM     14  H   UNL     1       1.206  44.461  52.660  1.00  0.00     0.171 HD
ATOM     15  O   UNL     1       1.360  42.207  51.708  1.00  0.00    -0.269 OA
ENDBRANCH   3   4
ENDBRANCH   2   3
BRANCH   2  16
ATOM     16  C   UNL     1       4.694  47.491  54.148  1.00  0.00     0.222 C 
ATOM     17  O   UNL     1       4.640  48.682  53.844  1.00  0.00    -0.275 OA
BRANCH  16  18
ATOM     18  C   UNL     1       6.020  46.827  54.502  1.00  0.00     0.100 C 
BRANCH  18  19
ATOM     19  C   UNL     1       6.880  46.554  53.264  1.00  0.00     0.013 C 
BRANCH  19  20
ATOM     20  C   UNL     1       7.876  47.691  52.969  1.00  0.00    -0.011 C 
ATOM     21  C   UNL     1       8.885  47.863  54.107  1.00  0.00     0.003 C 
ATOM     22  C   UNL     1       8.797  47.418  51.779  1.00  0.00     0.003 C 
ATOM     23  C   UNL     1       9.974  46.829  53.834  1.00  0.00     0.000 C 
ATOM     24  C   UNL     1       9.909  46.533  52.336  1.00  0.00     0.000 C 
ENDBRANCH  19  20
ENDBRANCH  18  19
ENDBRANCH  16  18
ENDBRANCH   2  16
TORSDOF 6
ENDMDL
MODEL 4
REMARK VINA RESULT:    -8.454      1.964      5.333
REMARK INTER + INTRA:         -12.389
REMARK INTER:                 -11.637
REMARK INTRA:                  -0.752
REMARK UNBOUND:                -0.970
REMARK SMILES CN(Cc1nc2ccccc2c(=O)[nH]1)C(=O)CCC1CCCC1
REMARK SMILES IDX 1 1 2 2 3 3 4 4 5 5 14 6 6 7 12 8 7 9 11 10 8 11 10 12 9 13
REMARK SMILES IDX 13 15 15 16 16 17 17 18 18 19 19 20 20 21 23 22 21 23 22 24
REMARK H PARENT 14 14
ROOT
ATOM      1  C   UNL     1       3.193  45.241  54.519  1.00  0.00     0.147 C 
ATOM      2  N   UNL     1       3.268  45.423  53.076  1.00  0.00    -0.338 N 
ENDROOT
BRANCH   2   3
ATOM      3  C   UNL     1       3.810  46.692  52.580  1.00  0.00     0.194 C 
BRANCH   3   4
ATOM      4  C   UNL     1       5.330  46.621  52.454  1.00  0.00     0.129 C 
ATOM      5  N   UNL     1       6.106  47.090  53.377  1.00  0.00    -0.233 NA
ATOM      6  N   UNL     1       5.807  45.998  51.327  1.00  0.00    -0.308 N 
ATOM      7  C   UNL     1       7.494  46.965  53.206  1.00  0.00     0.078 A 
ATOM      8  C   UNL     1       7.140  45.819  51.069  1.00  0.00     0.258 C 
ATOM      9  C   UNL     1       8.344  47.474  54.189  1.00  0.00     0.029 A 
ATOM     10  C   UNL     1       8.062  46.346  52.089  1.00  0.00     0.065 A 
ATOM     11  C   UNL     1       9.732  47.366  54.056  1.00  0.00     0.002 A 
ATOM     12  C   UNL     1       9.448  46.231  51.943  1.00  0.00     0.016 A 
ATOM     13  C   UNL     1      10.283  46.746  52.934  1.00  0.00     0.001 A 
ATOM     14  H   UNL     1       5.179  45.645  50.619  1.00  0.00     0.171 HD
ATOM     15  O   UNL     1       7.533  45.252  50.057  1.00  0.00    -0.269 OA
ENDBRANCH   3   4
ENDBRANCH   2   3
BRANCH   2  16
ATOM     16  C   UNL     1       2.616  44.599  52.159  1.00  0.00     0.222 C 
ATOM     17  O   UNL     1       1.699  45.008  51.448  1.00  0.00    -0.275 OA
BRANCH  16  18
ATOM     18  C   UNL     1       3.116  43.163  52.053  1.00  0.00     0.100 C 
BRANCH  18  19
ATOM     19  C   UNL     1       4.235  43.014  51.018  1.00  0.00     0.013 C 
BRANCH  19  20
ATOM     20  C   UNL     1       4.708  41.558  50.858  1.00  0.00    -0.011 C 
ATOM     21  C   UNL     1       3.767  40.757  49.953  1.00  0.00     0.003 C 
ATOM     22  C   UNL     1       6.040  41.413  50.121  1.00  0.00     0.003 C 
ATOM     23  C   UNL     1       4.223  41.068  48.531  1.00  0.00     0.000 C 
ATOM     24  C   UNL     1       5.683  41.502  48.640  1.00  0.00     0.000 C 
ENDBRANCH  19  20
ENDBRANCH  18  19
ENDBRANCH  16  18
ENDBRANCH   2  16
TORSDOF 6
ENDMDL
MODEL 5
REMARK VINA RESULT:    -8.390      2.856      5.981
REMARK INTER + INTRA:         -12.303
REMARK INTER:                 -11.563
REMARK INTRA:                  -0.740
REMARK UNBOUND:                -0.970
REMARK SMILES CN(Cc1nc2ccccc2c(=O)[nH]1)C(=O)CCC1CCCC1
REMARK SMILES IDX 1 1 2 2 3 3 4 4 5 5 14 6 6 7 12 8 7 9 11 10 8 11 10 12 9 13
REMARK SMILES IDX 13 15 15 16 16 17 17 18 18 19 19 20 20 21 23 22 21 23 22 24
REMARK H PARENT 14 14
ROOT
ATOM      1  C   UNL     1       4.411  47.643  53.592  1.00  0.00     0.147 C 
ATOM      2  N   UNL     1       4.610  46.202  53.653  1.00  0.00    -0.338 N 
ENDROOT
BRANCH   2   3
ATOM      3  C   UNL     1       4.462  45.552  54.958  1.00  0.00     0.194 C 
BRANCH   3   4
ATOM      4  C   UNL     1       2.988  45.398  55.325  1.00  0.00     0.129 C 
ATOM      5  N   UNL     1       2.177  44.713  54.586  1.00  0.00    -0.233 NA
ATOM      6  N   UNL     1       2.599  45.997  56.498  1.00  0.00    -0.308 N 
ATOM      7  C   UNL     1       0.841  44.592  54.999  1.00  0.00     0.078 A 
ATOM      8  C   UNL     1       1.323  45.933  56.993  1.00  0.00     0.258 C 
ATOM      9  C   UNL     1      -0.048  43.863  54.207  1.00  0.00     0.029 A 
ATOM     10  C   UNL     1       0.362  45.170  56.178  1.00  0.00     0.065 A 
ATOM     11  C   UNL     1      -1.386  43.717  54.588  1.00  0.00     0.002 A 
ATOM     12  C   UNL     1      -0.972  45.032  56.571  1.00  0.00     0.016 A 
ATOM     13  C   UNL     1      -1.847  44.302  55.768  1.00  0.00     0.001 A 
ATOM     14  H   UNL     1       3.251  46.531  57.054  1.00  0.00     0.171 HD
ATOM     15  O   UNL     1       1.010  46.473  58.047  1.00  0.00    -0.269 OA
ENDBRANCH   3   4
ENDBRANCH   2   3
BRANCH   2  16
ATOM     16  C   UNL     1       5.190  45.459  52.625  1.00  0.00     0.222 C 
ATOM     17  O   UNL     1       5.018  44.245  52.516  1.00  0.00    -0.275 OA
BRANCH  16  18
ATOM     18  C   UNL     1       6.029  46.230  51.613  1.00  0.00     0.100 C 
BRANCH  18  19
ATOM     19  C   UNL     1       7.505  45.822  51.653  1.00  0.00     0.013 C 
BRANCH  19  20
ATOM     20  C   UNL     1       8.458  47.014  51.447  1.00  0.00    -0.011 C 
ATOM     21  C   UNL     1       8.080  48.196  52.343  1.00  0.00     0.003 C 
ATOM     22  C   UNL     1       9.897  46.742  51.887  1.00  0.00     0.003 C 
ATOM     23  C   UNL     1       8.732  47.899  53.690  1.00  0.00     0.000 C 
ATOM     24  C   UNL     1       9.895  46.953  53.398  1.00  0.00     0.000 C 
ENDBRANCH  19  20
ENDBRANCH  18  19
ENDBRANCH  16  18
ENDBRANCH   2  16
TORSDOF 6
ENDMDL
MODEL 6
REMARK VINA RESULT:    -8.207      2.117      5.532
REMARK INTER + INTRA:         -12.055
REMARK INTER:                 -11.672
REMARK INTRA:                  -0.383
REMARK UNBOUND:                -0.970
REMARK SMILES CN(Cc1nc2ccccc2c(=O)[nH]1)C(=O)CCC1CCCC1
REMARK SMILES IDX 1 1 2 2 3 3 4 4 5 5 14 6 6 7 12 8 7 9 11 10 8 11 10 12 9 13
REMARK SMILES IDX 13 15 15 16 16 17 17 18 18 19 19 20 20 21 23 22 21 23 22 24
REMARK H PARENT 14 14
ROOT
ATOM      1  C   UNL     1       3.773  45.697  50.831  1.00  0.00     0.147 C 
ATOM      2  N   UNL     1       4.528  44.456  50.937  1.00  0.00    -0.338 N 
ENDROOT
BRANCH   2   3
ATOM      3  C   UNL     1       3.939  43.367  51.721  1.00  0.00     0.194 C 
BRANCH   3   4
ATOM      4  C   UNL     1       3.159  43.917  52.913  1.00  0.00     0.129 C 
ATOM      5  N   UNL     1       1.894  43.685  53.057  1.00  0.00    -0.233 NA
ATOM      6  N   UNL     1       3.893  44.633  53.827  1.00  0.00    -0.308 N 
ATOM      7  C   UNL     1       1.248  44.200  54.192  1.00  0.00     0.078 A 
ATOM      8  C   UNL     1       3.359  45.170  54.969  1.00  0.00     0.258 C 
ATOM      9  C   UNL     1      -0.118  43.964  54.356  1.00  0.00     0.029 A 
ATOM     10  C   UNL     1       1.919  44.938  55.170  1.00  0.00     0.065 A 
ATOM     11  C   UNL     1      -0.796  44.457  55.475  1.00  0.00     0.002 A 
ATOM     12  C   UNL     1       1.254  45.437  56.294  1.00  0.00     0.016 A 
ATOM     13  C   UNL     1      -0.111  45.194  56.443  1.00  0.00     0.001 A 
ATOM     14  H   UNL     1       4.878  44.804  53.689  1.00  0.00     0.171 HD
ATOM     15  O   UNL     1       4.043  45.797  55.769  1.00  0.00    -0.269 OA
ENDBRANCH   3   4
ENDBRANCH   2   3
BRANCH   2  16
ATOM     16  C   UNL     1       5.871  44.338  50.578  1.00  0.00     0.222 C 
ATOM     17  O   UNL     1       6.388  43.250  50.325  1.00  0.00    -0.275 OA
BRANCH  16  18
ATOM     18  C   UNL     1       6.670  45.632  50.480  1.00  0.00     0.100 C 
BRANCH  18  19
ATOM     19  C   UNL     1       7.397  45.964  51.787  1.00  0.00     0.013 C 
BRANCH  19  20
ATOM     20  C   UNL     1       8.531  46.987  51.593  1.00  0.00    -0.011 C 
ATOM     21  C   UNL     1       8.341  48.215  52.487  1.00  0.00     0.003 C 
ATOM     22  C   UNL     1       9.904  46.487  52.045  1.00  0.00     0.003 C 
ATOM     23  C   UNL     1       8.923  47.817  53.840  1.00  0.00     0.000 C 
ATOM     24  C   UNL     1       9.921  46.696  53.557  1.00  0.00     0.000 C 
ENDBRANCH  19  20
ENDBRANCH  18  19
ENDBRANCH  16  18
ENDBRANCH   2  16
TORSDOF 6
ENDMDL
MODEL 7
REMARK VINA RESULT:    -8.146      2.028      5.007
REMARK INTER + INTRA:         -11.973
REMARK INTER:                 -10.807
REMARK INTRA:                  -1.166
REMARK UNBOUND:                -0.970
REMARK SMILES CN(Cc1nc2ccccc2c(=O)[nH]1)C(=O)CCC1CCCC1
REMARK SMILES IDX 1 1 2 2 3 3 4 4 5 5 14 6 6 7 12 8 7 9 11 10 8 11 10 12 9 13
REMARK SMILES IDX 13 15 15 16 16 17 17 18 18 19 19 20 20 21 23 22 21 23 22 24
REMARK H PARENT 14 14
ROOT
ATOM      1  C   UNL     1       3.749  45.480  55.026  1.00  0.00     0.147 C 
ATOM      2  N   UNL     1       3.817  46.421  53.916  1.00  0.00    -0.338 N 
ENDROOT
BRANCH   2   3
ATOM      3  C   UNL     1       4.708  47.575  54.059  1.00  0.00     0.194 C 
BRANCH   3   4
ATOM      4  C   UNL     1       6.140  47.206  53.678  1.00  0.00     0.129 C 
ATOM      5  N   UNL     1       6.421  46.701  52.521  1.00  0.00    -0.233 NA
ATOM      6  N   UNL     1       7.098  47.480  54.623  1.00  0.00    -0.308 N 
ATOM      7  C   UNL     1       7.764  46.411  52.229  1.00  0.00     0.078 A 
ATOM      8  C   UNL     1       8.434  47.242  54.435  1.00  0.00     0.258 C 
ATOM      9  C   UNL     1       8.081  45.858  50.988  1.00  0.00     0.029 A 
ATOM     10  C   UNL     1       8.800  46.658  53.134  1.00  0.00     0.065 A 
ATOM     11  C   UNL     1       9.408  45.559  50.660  1.00  0.00     0.002 A 
ATOM     12  C   UNL     1      10.131  46.364  52.819  1.00  0.00     0.016 A 
ATOM     13  C   UNL     1      10.431  45.811  51.575  1.00  0.00     0.001 A 
ATOM     14  H   UNL     1       6.851  47.870  55.521  1.00  0.00     0.171 HD
ATOM     15  O   UNL     1       9.265  47.505  55.296  1.00  0.00    -0.269 OA
ENDBRANCH   3   4
ENDBRANCH   2   3
BRANCH   2  16
ATOM     16  C   UNL     1       2.900  46.441  52.865  1.00  0.00     0.222 C 
ATOM     17  O   UNL     1       2.394  47.486  52.457  1.00  0.00    -0.275 OA
BRANCH  16  18
ATOM     18  C   UNL     1       2.573  45.100  52.216  1.00  0.00     0.100 C 
BRANCH  18  19
ATOM     19  C   UNL     1       3.628  44.682  51.188  1.00  0.00     0.013 C 
BRANCH  19  20
ATOM     20  C   UNL     1       4.647  43.678  51.757  1.00  0.00    -0.011 C 
ATOM     21  C   UNL     1       3.985  42.345  52.115  1.00  0.00     0.003 C 
ATOM     22  C   UNL     1       5.710  43.233  50.751  1.00  0.00     0.003 C 
ATOM     23  C   UNL     1       3.934  41.562  50.807  1.00  0.00     0.000 C 
ATOM     24  C   UNL     1       5.038  42.142  49.924  1.00  0.00     0.000 C 
ENDBRANCH  19  20
ENDBRANCH  18  19
ENDBRANCH  16  18
ENDBRANCH   2  16
TORSDOF 6
ENDMDL
MODEL 8
REMARK VINA RESULT:    -8.144      2.728      5.665
REMARK INTER + INTRA:         -11.970
REMARK INTER:                 -11.149
REMARK INTRA:                  -0.822
REMARK UNBOUND:                -0.970
REMARK SMILES CN(Cc1nc2ccccc2c(=O)[nH]1)C(=O)CCC1CCCC1
REMARK SMILES IDX 1 1 2 2 3 3 4 4 5 5 14 6 6 7 12 8 7 9 11 10 8 11 10 12 9 13
REMARK SMILES IDX 13 15 15 16 16 17 17 18 18 19 19 20 20 21 23 22 21 23 22 24
REMARK H PARENT 14 14
ROOT
ATOM      1  C   UNL     1       4.272  47.387  53.172  1.00  0.00     0.147 C 
ATOM      2  N   UNL     1       4.451  45.944  53.087  1.00  0.00    -0.338 N 
ENDROOT
BRANCH   2   3
ATOM      3  C   UNL     1       4.297  45.168  54.322  1.00  0.00     0.194 C 
BRANCH   3   4
ATOM      4  C   UNL     1       2.832  44.814  54.561  1.00  0.00     0.129 C 
ATOM      5  N   UNL     1       2.136  45.404  55.478  1.00  0.00    -0.233 NA
ATOM      6  N   UNL     1       2.302  43.866  53.719  1.00  0.00    -0.308 N 
ATOM      7  C   UNL     1       0.787  45.046  55.624  1.00  0.00     0.078 A 
ATOM      8  C   UNL     1       0.997  43.453  53.774  1.00  0.00     0.258 C 
ATOM      9  C   UNL     1       0.026  45.668  56.615  1.00  0.00     0.029 A 
ATOM     10  C   UNL     1       0.169  44.091  54.810  1.00  0.00     0.065 A 
ATOM     11  C   UNL     1      -1.323  45.341  56.787  1.00  0.00     0.002 A 
ATOM     12  C   UNL     1      -1.178  43.755  54.972  1.00  0.00     0.016 A 
ATOM     13  C   UNL     1      -1.924  44.384  55.968  1.00  0.00     0.001 A 
ATOM     14  H   UNL     1       2.869  43.417  53.015  1.00  0.00     0.171 HD
ATOM     15  O   UNL     1       0.553  42.610  53.003  1.00  0.00    -0.269 OA
ENDBRANCH   3   4
ENDBRANCH   2   3
BRANCH   2  16
ATOM     16  C   UNL     1       5.020  45.300  51.988  1.00  0.00     0.222 C 
ATOM     17  O   UNL     1       4.643  44.191  51.613  1.00  0.00    -0.275 OA
BRANCH  16  18
ATOM     18  C   UNL     1       6.118  46.054  51.247  1.00  0.00     0.100 C 
BRANCH  18  19
ATOM     19  C   UNL     1       7.504  45.797  51.847  1.00  0.00     0.013 C 
BRANCH  19  20
ATOM     20  C   UNL     1       8.505  46.924  51.534  1.00  0.00    -0.011 C 
ATOM     21  C   UNL     1       8.201  48.188  52.342  1.00  0.00     0.003 C 
ATOM     22  C   UNL     1       9.940  46.619  51.968  1.00  0.00     0.003 C 
ATOM     23  C   UNL     1       8.866  47.964  53.697  1.00  0.00     0.000 C 
ATOM     24  C   UNL     1       9.979  46.945  53.458  1.00  0.00     0.000 C 
ENDBRANCH  19  20
ENDBRANCH  18  19
ENDBRANCH  16  18
ENDBRANCH   2  16
TORSDOF 6
ENDMDL
MODEL 9
REMARK VINA RESULT:    -8.026      1.464      2.118
REMARK INTER + INTRA:         -11.811
REMARK INTER:                 -10.867
REMARK INTRA:                  -0.944
REMARK UNBOUND:                -0.970
REMARK SMILES CN(Cc1nc2ccccc2c(=O)[nH]1)C(=O)CCC1CCCC1
REMARK SMILES IDX 1 1 2 2 3 3 4 4 5 5 14 6 6 7 12 8 7 9 11 10 8 11 10 12 9 13
REMARK SMILES IDX 13 15 15 16 16 17 17 18 18 19 19 20 20 21 23 22 21 23 22 24
REMARK H PARENT 14 14
ROOT
ATOM      1  C   UNL     1       1.342  45.647  52.455  1.00  0.00     0.147 C 
ATOM      2  N   UNL     1       2.510  45.231  53.219  1.00  0.00    -0.338 N 
ENDROOT
BRANCH   2   3
ATOM      3  C   UNL     1       2.762  43.793  53.342  1.00  0.00     0.194 C 
BRANCH   3   4
ATOM      4  C   UNL     1       3.632  43.293  52.191  1.00  0.00     0.129 C 
ATOM      5  N   UNL     1       4.678  43.947  51.803  1.00  0.00    -0.233 NA
ATOM      6  N   UNL     1       3.252  42.097  51.632  1.00  0.00    -0.308 N 
ATOM      7  C   UNL     1       5.446  43.413  50.756  1.00  0.00     0.078 A 
ATOM      8  C   UNL     1       3.936  41.489  50.612  1.00  0.00     0.258 C 
ATOM      9  C   UNL     1       6.573  44.113  50.321  1.00  0.00     0.029 A 
ATOM     10  C   UNL     1       5.130  42.204  50.131  1.00  0.00     0.065 A 
ATOM     11  C   UNL     1       7.365  43.611  49.283  1.00  0.00     0.002 A 
ATOM     12  C   UNL     1       5.913  41.691  49.093  1.00  0.00     0.016 A 
ATOM     13  C   UNL     1       7.035  42.402  48.669  1.00  0.00     0.001 A 
ATOM     14  H   UNL     1       2.427  41.609  51.950  1.00  0.00     0.171 HD
ATOM     15  O   UNL     1       3.574  40.419  50.140  1.00  0.00    -0.269 OA
ENDBRANCH   3   4
ENDBRANCH   2   3
BRANCH   2  16
ATOM     16  C   UNL     1       3.231  46.086  54.053  1.00  0.00     0.222 C 
ATOM     17  O   UNL     1       3.185  45.996  55.279  1.00  0.00    -0.275 OA
BRANCH  16  18
ATOM     18  C   UNL     1       4.112  47.126  53.370  1.00  0.00     0.100 C 
BRANCH  18  19
ATOM     19  C   UNL     1       5.499  47.222  54.014  1.00  0.00     0.013 C 
BRANCH  19  20
ATOM     20  C   UNL     1       6.572  46.439  53.236  1.00  0.00    -0.011 C 
ATOM     21  C   UNL     1       6.992  47.175  51.961  1.00  0.00     0.003 C 
ATOM     22  C   UNL     1       7.906  46.312  53.972  1.00  0.00     0.003 C 
ATOM     23  C   UNL     1       8.046  48.182  52.412  1.00  0.00     0.000 C 
ATOM     24  C   UNL     1       8.626  47.632  53.713  1.00  0.00     0.000 C 
ENDBRANCH  19  20
ENDBRANCH  18  19
ENDBRANCH  16  18
ENDBRANCH   2  16
TORSDOF 6
ENDMDL
MODEL 10
REMARK VINA RESULT:    -8.017      2.018      4.711
REMARK INTER + INTRA:         -11.798
REMARK INTER:                 -10.994
REMARK INTRA:                  -0.804
REMARK UNBOUND:                -0.970
REMARK SMILES CN(Cc1nc2ccccc2c(=O)[nH]1)C(=O)CCC1CCCC1
REMARK SMILES IDX 1 1 2 2 3 3 4 4 5 5 14 6 6 7 12 8 7 9 11 10 8 11 10 12 9 13
REMARK SMILES IDX 13 15 15 16 16 17 17 18 18 19 19 20 20 21 23 22 21 23 22 24
REMARK H PARENT 14 14
ROOT
ATOM      1  C   UNL     1       6.626  46.161  54.478  1.00  0.00     0.147 C 
ATOM      2  N   UNL     1       5.923  46.773  53.357  1.00  0.00    -0.338 N 
ENDROOT
BRANCH   2   3
ATOM      3  C   UNL     1       6.641  46.879  52.084  1.00  0.00     0.194 C 
BRANCH   3   4
ATOM      4  C   UNL     1       6.581  45.563  51.314  1.00  0.00     0.129 C 
ATOM      5  N   UNL     1       5.610  44.725  51.486  1.00  0.00    -0.233 NA
ATOM      6  N   UNL     1       7.595  45.352  50.412  1.00  0.00    -0.308 N 
ATOM      7  C   UNL     1       5.605  43.546  50.723  1.00  0.00     0.078 A 
ATOM      8  C   UNL     1       7.678  44.240  49.616  1.00  0.00     0.258 C 
ATOM      9  C   UNL     1       4.568  42.629  50.904  1.00  0.00     0.029 A 
ATOM     10  C   UNL     1       6.598  43.253  49.784  1.00  0.00     0.065 A 
ATOM     11  C   UNL     1       4.528  41.446  50.160  1.00  0.00     0.002 A 
ATOM     12  C   UNL     1       6.570  42.074  49.034  1.00  0.00     0.016 A 
ATOM     13  C   UNL     1       5.528  41.168  49.227  1.00  0.00     0.001 A 
ATOM     14  H   UNL     1       8.344  46.019  50.301  1.00  0.00     0.171 HD
ATOM     15  O   UNL     1       8.592  44.085  48.815  1.00  0.00    -0.269 OA
ENDBRANCH   3   4
ENDBRANCH   2   3
BRANCH   2  16
ATOM     16  C   UNL     1       4.739  47.497  53.492  1.00  0.00     0.222 C 
ATOM     17  O   UNL     1       4.587  48.347  54.368  1.00  0.00    -0.275 OA
BRANCH  16  18
ATOM     18  C   UNL     1       3.641  47.207  52.475  1.00  0.00     0.100 C 
BRANCH  18  19
ATOM     19  C   UNL     1       2.461  46.452  53.095  1.00  0.00     0.013 C 
BRANCH  19  20
ATOM     20  C   UNL     1       2.881  45.118  53.739  1.00  0.00    -0.011 C 
ATOM     21  C   UNL     1       2.706  45.146  55.259  1.00  0.00     0.003 C 
ATOM     22  C   UNL     1       1.996  43.933  53.349  1.00  0.00     0.003 C 
ATOM     23  C   UNL     1       1.238  44.806  55.497  1.00  0.00     0.000 C 
ATOM     24  C   UNL     1       0.777  44.035  54.262  1.00  0.00     0.000 C 
ENDBRANCH  19  20
ENDBRANCH  18  19
ENDBRANCH  16  18
ENDBRANCH   2  16
TORSDOF 6
ENDMDL
