MODEL 1
REMARK VINA RESULT:    -8.779      0.000      0.000
REMARK INTER + INTRA:         -12.535
REMARK INTER:                 -11.344
REMARK INTRA:                  -1.191
REMARK UNBOUND:                -1.191
REMARK SMILES Cc1n[nH]c(NC(=O)c2c(Cl)cccc2OCC2CC2)c1C
REMARK SMILES IDX 9 1 10 2 11 3 12 4 13 5 14 6 15 7 7 8 6 9 8 11 5 12 2 13
REMARK SMILES IDX 3 14 21 15 4 16 1 17 22 18 16 20 17 21 18 22 19 23 20 24
REMARK H PARENT 6 10 4 19
ROOT
ATOM      1  C   UNL     1       5.789  44.296  50.716  1.00  0.00     0.100 A 
ATOM      2  C   UNL     1       5.989  43.102  50.010  1.00  0.00     0.057 A 
ATOM      3  Cl  UNL     1       4.778  41.877  49.856  1.00  0.00    -0.083 Cl
ATOM      4  C   UNL     1       7.194  42.881  49.328  1.00  0.00     0.021 A 
ATOM      5  C   UNL     1       8.203  43.846  49.340  1.00  0.00     0.005 A 
ATOM      6  C   UNL     1       8.009  45.039  50.028  1.00  0.00     0.047 A 
ATOM      7  C   UNL     1       6.817  45.255  50.729  1.00  0.00     0.133 A 
ENDROOT
BRANCH   1   8
ATOM      8  C   UNL     1       4.531  44.534  51.470  1.00  0.00     0.262 C 
ATOM      9  N   UNL     1       4.568  44.184  52.810  1.00  0.00    -0.307 N 
ATOM     10  H   UNL     1       5.385  43.708  53.177  1.00  0.00     0.171 HD
ATOM     11  O   UNL     1       3.543  44.984  50.895  1.00  0.00    -0.269 OA
BRANCH   9  12
ATOM     12  C   UNL     1       3.471  44.329  53.634  1.00  0.00     0.131 A 
ATOM     13  C   UNL     1       1.956  44.868  55.156  1.00  0.00     0.064 A 
ATOM     14  N   UNL     1       1.376  43.919  54.410  1.00  0.00    -0.179 NA
ATOM     15  C   UNL     1       3.281  45.159  54.720  1.00  0.00     0.014 A 
ATOM     16  N   UNL     1       2.313  43.609  53.499  1.00  0.00    -0.262 N 
ATOM     17  C   UNL     1       1.213  45.470  56.292  1.00  0.00     0.069 C 
ATOM     18  C   UNL     1       4.241  46.126  55.300  1.00  0.00     0.050 C 
ATOM     19  H   UNL     1       2.127  42.891  52.803  1.00  0.00     0.192 HD
ENDBRANCH   9  12
ENDBRANCH   1   8
BRANCH   7  20
ATOM     20  O   UNL     1       6.645  46.458  51.365  1.00  0.00    -0.492 OA
BRANCH  20  21
ATOM     21  C   UNL     1       7.279  46.484  52.655  1.00  0.00     0.233 C 
BRANCH  21  22
ATOM     22  C   UNL     1       8.452  47.413  52.596  1.00  0.00     0.027 C 
ATOM     23  C   UNL     1       9.861  46.877  52.598  1.00  0.00     0.007 C 
ATOM     24  C   UNL     1       9.339  47.619  53.798  1.00  0.00     0.007 C 
ENDBRANCH  21  22
ENDBRANCH  20  21
ENDBRANCH   7  20
TORSDOF 5
ENDMDL
MODEL 2
REMARK VINA RESULT:    -8.481      2.435      4.242
REMARK INTER + INTRA:         -12.150
REMARK INTER:                 -10.839
REMARK INTRA:                  -1.312
REMARK UNBOUND:                -1.191
REMARK SMILES Cc1n[nH]c(NC(=O)c2c(Cl)cccc2OCC2CC2)c1C
REMARK SMILES IDX 9 1 10 2 11 3 12 4 13 5 14 6 15 7 7 8 6 9 8 11 5 12 2 13
REMARK SMILES IDX 3 14 21 15 4 16 1 17 22 18 16 20 17 21 18 22 19 23 20 24
REMARK H PARENT 6 10 4 19
ROOT
ATOM      1  C   UNL     1       7.782  46.336  52.454  1.00  0.00     0.100 A 
ATOM      2  C   UNL     1       8.777  46.875  53.282  1.00  0.00     0.057 A 
ATOM      3  Cl  UNL     1       8.450  47.568  54.832  1.00  0.00    -0.083 Cl
ATOM      4  C   UNL     1      10.124  46.811  52.895  1.00  0.00     0.021 A 
ATOM      5  C   UNL     1      10.488  46.207  51.691  1.00  0.00     0.005 A 
ATOM      6  C   UNL     1       9.509  45.658  50.869  1.00  0.00     0.047 A 
ATOM      7  C   UNL     1       8.162  45.741  51.238  1.00  0.00     0.133 A 
ENDROOT
BRANCH   1   8
ATOM      8  C   UNL     1       6.348  46.423  52.832  1.00  0.00     0.262 C 
ATOM      9  N   UNL     1       5.685  45.210  52.921  1.00  0.00    -0.307 N 
ATOM     10  H   UNL     1       6.162  44.361  52.638  1.00  0.00     0.171 HD
ATOM     11  O   UNL     1       5.823  47.519  53.014  1.00  0.00    -0.269 OA
BRANCH   9  12
ATOM     12  C   UNL     1       4.345  45.131  53.245  1.00  0.00     0.131 A 
ATOM     13  C   UNL     1       2.133  45.107  53.339  1.00  0.00     0.064 A 
ATOM     14  N   UNL     1       2.538  44.798  54.578  1.00  0.00    -0.179 NA
ATOM     15  C   UNL     1       3.230  45.338  52.459  1.00  0.00     0.014 A 
ATOM     16  N   UNL     1       3.878  44.822  54.494  1.00  0.00    -0.262 N 
ATOM     17  C   UNL     1       0.682  45.183  53.034  1.00  0.00     0.069 C 
ATOM     18  C   UNL     1       3.187  45.719  51.028  1.00  0.00     0.050 C 
ATOM     19  H   UNL     1       4.441  44.629  55.319  1.00  0.00     0.192 HD
ENDBRANCH   9  12
ENDBRANCH   1   8
BRANCH   7  20
ATOM     20  O   UNL     1       7.227  45.157  50.423  1.00  0.00    -0.492 OA
BRANCH  20  21
ATOM     21  C   UNL     1       7.777  44.073  49.657  1.00  0.00     0.233 C 
BRANCH  21  22
ATOM     22  C   UNL     1       6.674  43.118  49.314  1.00  0.00     0.027 C 
ATOM     23  C   UNL     1       5.647  42.724  50.346  1.00  0.00     0.007 C 
ATOM     24  C   UNL     1       6.660  41.717  49.872  1.00  0.00     0.007 C 
ENDBRANCH  21  22
ENDBRANCH  20  21
ENDBRANCH   7  20
TORSDOF 5
ENDMDL
MODEL 3
REMARK VINA RESULT:    -8.376      1.754      2.336
REMARK INTER + INTRA:         -12.015
REMARK INTER:                 -11.109
REMARK INTRA:                  -0.906
REMARK UNBOUND:                -1.191
REMARK SMILES Cc1n[nH]c(NC(=O)c2c(Cl)cccc2OCC2CC2)c1C
REMARK SMILES IDX 9 1 10 2 11 3 12 4 13 5 14 6 15 7 7 8 6 9 8 11 5 12 2 13
REMARK SMILES IDX 3 14 21 15 4 16 1 17 22 18 16 20 17 21 18 22 19 23 20 24
REMARK H PARENT 6 10 4 19
ROOT
ATOM      1  C   UNL     1       5.082  45.717  52.229  1.00  0.00     0.100 A 
ATOM      2  C   UNL     1       4.865  44.730  51.257  1.00  0.00     0.057 A 
ATOM      3  Cl  UNL     1       3.348  43.929  51.039  1.00  0.00    -0.083 Cl
ATOM      4  C   UNL     1       5.887  44.394  50.357  1.00  0.00     0.021 A 
ATOM      5  C   UNL     1       7.123  45.038  50.414  1.00  0.00     0.005 A 
ATOM      6  C   UNL     1       7.344  46.027  51.367  1.00  0.00     0.047 A 
ATOM      7  C   UNL     1       6.336  46.351  52.283  1.00  0.00     0.133 A 
ENDROOT
BRANCH   1   8
ATOM      8  C   UNL     1       4.022  46.064  53.211  1.00  0.00     0.262 C 
ATOM      9  N   UNL     1       3.740  45.085  54.149  1.00  0.00    -0.307 N 
ATOM     10  H   UNL     1       4.181  44.175  54.065  1.00  0.00     0.171 HD
ATOM     11  O   UNL     1       3.443  47.146  53.137  1.00  0.00    -0.269 OA
BRANCH   9  12
ATOM     12  C   UNL     1       2.767  45.255  55.113  1.00  0.00     0.131 A 
ATOM     13  C   UNL     1       0.969  45.258  56.405  1.00  0.00     0.064 A 
ATOM     14  N   UNL     1       1.852  46.042  57.036  1.00  0.00    -0.179 NA
ATOM     15  C   UNL     1       1.488  44.742  55.182  1.00  0.00     0.014 A 
ATOM     16  N   UNL     1       2.929  46.026  56.234  1.00  0.00    -0.262 N 
ATOM     17  C   UNL     1      -0.373  45.031  56.999  1.00  0.00     0.069 C 
ATOM     18  C   UNL     1       0.810  43.862  54.203  1.00  0.00     0.050 C 
ATOM     19  H   UNL     1       3.756  46.563  56.483  1.00  0.00     0.192 HD
ENDBRANCH   9  12
ENDBRANCH   1   8
BRANCH   7  20
ATOM     20  O   UNL     1       6.574  47.356  53.185  1.00  0.00    -0.492 OA
BRANCH  20  21
ATOM     21  C   UNL     1       7.511  46.961  54.200  1.00  0.00     0.233 C 
BRANCH  21  22
ATOM     22  C   UNL     1       8.787  47.721  54.000  1.00  0.00     0.027 C 
ATOM     23  C   UNL     1       9.985  47.061  53.367  1.00  0.00     0.007 C 
ATOM     24  C   UNL     1      10.009  47.416  54.828  1.00  0.00     0.007 C 
ENDBRANCH  21  22
ENDBRANCH  20  21
ENDBRANCH   7  20
TORSDOF 5
ENDMDL
MODEL 4
REMARK VINA RESULT:    -8.297      1.582      1.643
REMARK INTER + INTRA:         -11.913
REMARK INTER:                 -11.422
REMARK INTRA:                  -0.491
REMARK UNBOUND:                -1.191
REMARK SMILES Cc1n[nH]c(NC(=O)c2c(Cl)cccc2OCC2CC2)c1C
REMARK SMILES IDX 9 1 10 2 11 3 12 4 13 5 14 6 15 7 7 8 6 9 8 11 5 12 2 13
REMARK SMILES IDX 3 14 21 15 4 16 1 17 22 18 16 20 17 21 18 22 19 23 20 24
REMARK H PARENT 6 10 4 19
ROOT
ATOM      1  C   UNL     1       5.867  44.059  51.157  1.00  0.00     0.100 A 
ATOM      2  C   UNL     1       6.149  42.979  50.309  1.00  0.00     0.057 A 
ATOM      3  Cl  UNL     1       5.221  41.519  50.292  1.00  0.00    -0.083 Cl
ATOM      4  C   UNL     1       7.188  43.074  49.371  1.00  0.00     0.021 A 
ATOM      5  C   UNL     1       7.945  44.240  49.267  1.00  0.00     0.005 A 
ATOM      6  C   UNL     1       7.665  45.322  50.095  1.00  0.00     0.047 A 
ATOM      7  C   UNL     1       6.645  45.225  51.049  1.00  0.00     0.133 A 
ENDROOT
BRANCH   1   8
ATOM      8  C   UNL     1       4.791  43.966  52.178  1.00  0.00     0.262 C 
ATOM      9  N   UNL     1       3.530  43.675  51.683  1.00  0.00    -0.307 N 
ATOM     10  H   UNL     1       3.386  43.641  50.680  1.00  0.00     0.171 HD
ATOM     11  O   UNL     1       5.045  44.169  53.362  1.00  0.00    -0.269 OA
BRANCH   9  12
ATOM     12  C   UNL     1       2.427  43.575  52.507  1.00  0.00     0.131 A 
ATOM     13  C   UNL     1       0.635  43.850  53.777  1.00  0.00     0.064 A 
ATOM     14  N   UNL     1       0.875  42.533  53.795  1.00  0.00    -0.179 NA
ATOM     15  C   UNL     1       1.588  44.558  52.989  1.00  0.00     0.014 A 
ATOM     16  N   UNL     1       1.964  42.393  53.023  1.00  0.00    -0.262 N 
ATOM     17  C   UNL     1      -0.516  44.401  54.536  1.00  0.00     0.069 C 
ATOM     18  C   UNL     1       1.667  46.017  52.745  1.00  0.00     0.050 C 
ATOM     19  H   UNL     1       2.369  41.471  52.878  1.00  0.00     0.192 HD
ENDBRANCH   9  12
ENDBRANCH   1   8
BRANCH   7  20
ATOM     20  O   UNL     1       6.372  46.323  51.824  1.00  0.00    -0.492 OA
BRANCH  20  21
ATOM     21  C   UNL     1       7.518  47.175  51.980  1.00  0.00     0.233 C 
BRANCH  21  22
ATOM     22  C   UNL     1       8.345  46.665  53.121  1.00  0.00     0.027 C 
ATOM     23  C   UNL     1       9.180  47.609  53.949  1.00  0.00     0.007 C 
ATOM     24  C   UNL     1       9.850  46.624  53.031  1.00  0.00     0.007 C 
ENDBRANCH  21  22
ENDBRANCH  20  21
ENDBRANCH   7  20
TORSDOF 5
ENDMDL
MODEL 5
REMARK VINA RESULT:    -8.171      2.717      5.795
REMARK INTER + INTRA:         -11.751
REMARK INTER:                 -10.487
REMARK INTRA:                  -1.263
REMARK UNBOUND:                -1.191
REMARK SMILES Cc1n[nH]c(NC(=O)c2c(Cl)cccc2OCC2CC2)c1C
REMARK SMILES IDX 9 1 10 2 11 3 12 4 13 5 14 6 15 7 7 8 6 9 8 11 5 12 2 13
REMARK SMILES IDX 3 14 21 15 4 16 1 17 22 18 16 20 17 21 18 22 19 23 20 24
REMARK H PARENT 6 10 4 19
ROOT
ATOM      1  C   UNL     1       3.273  44.281  52.251  1.00  0.00     0.100 A 
ATOM      2  C   UNL     1       2.163  45.123  52.091  1.00  0.00     0.057 A 
ATOM      3  Cl  UNL     1       2.119  46.755  52.662  1.00  0.00    -0.083 Cl
ATOM      4  C   UNL     1       1.037  44.675  51.384  1.00  0.00     0.021 A 
ATOM      5  C   UNL     1       1.011  43.396  50.828  1.00  0.00     0.005 A 
ATOM      6  C   UNL     1       2.112  42.558  50.971  1.00  0.00     0.047 A 
ATOM      7  C   UNL     1       3.229  42.990  51.695  1.00  0.00     0.133 A 
ENDROOT
BRANCH   1   8
ATOM      8  C   UNL     1       4.461  44.727  53.024  1.00  0.00     0.262 C 
ATOM      9  N   UNL     1       5.261  45.664  52.390  1.00  0.00    -0.307 N 
ATOM     10  H   UNL     1       5.063  45.918  51.428  1.00  0.00     0.171 HD
ATOM     11  O   UNL     1       4.693  44.247  54.131  1.00  0.00    -0.269 OA
BRANCH   9  12
ATOM     12  C   UNL     1       6.409  46.159  52.975  1.00  0.00     0.131 A 
ATOM     13  C   UNL     1       8.433  46.874  53.519  1.00  0.00     0.064 A 
ATOM     14  N   UNL     1       7.694  47.048  54.622  1.00  0.00    -0.179 NA
ATOM     15  C   UNL     1       7.677  46.307  52.451  1.00  0.00     0.014 A 
ATOM     16  N   UNL     1       6.477  46.606  54.268  1.00  0.00    -0.262 N 
ATOM     17  C   UNL     1       9.868  47.254  53.524  1.00  0.00     0.069 C 
ATOM     18  C   UNL     1       8.144  45.951  51.092  1.00  0.00     0.050 C 
ATOM     19  H   UNL     1       5.716  46.617  54.943  1.00  0.00     0.192 HD
ENDBRANCH   9  12
ENDBRANCH   1   8
BRANCH   7  20
ATOM     20  O   UNL     1       4.311  42.153  51.785  1.00  0.00    -0.492 OA
BRANCH  20  21
ATOM     21  C   UNL     1       4.533  41.422  50.568  1.00  0.00     0.233 C 
BRANCH  21  22
ATOM     22  C   UNL     1       5.930  41.686  50.095  1.00  0.00     0.027 C 
ATOM     23  C   UNL     1       6.386  43.090  49.784  1.00  0.00     0.007 C 
ATOM     24  C   UNL     1       6.202  42.096  48.670  1.00  0.00     0.007 C 
ENDBRANCH  21  22
ENDBRANCH  20  21
ENDBRANCH   7  20
TORSDOF 5
ENDMDL
MODEL 6
REMARK VINA RESULT:    -8.111      2.665      5.139
REMARK INTER + INTRA:         -11.672
REMARK INTER:                 -10.142
REMARK INTRA:                  -1.531
REMARK UNBOUND:                -1.191
REMARK SMILES Cc1n[nH]c(NC(=O)c2c(Cl)cccc2OCC2CC2)c1C
REMARK SMILES IDX 9 1 10 2 11 3 12 4 13 5 14 6 15 7 7 8 6 9 8 11 5 12 2 13
REMARK SMILES IDX 3 14 21 15 4 16 1 17 22 18 16 20 17 21 18 22 19 23 20 24
REMARK H PARENT 6 10 4 19
ROOT
ATOM      1  C   UNL     1       7.980  45.889  51.474  1.00  0.00     0.100 A 
ATOM      2  C   UNL     1       9.365  45.948  51.683  1.00  0.00     0.057 A 
ATOM      3  Cl  UNL     1      10.497  44.961  50.825  1.00  0.00    -0.083 Cl
ATOM      4  C   UNL     1       9.901  46.884  52.580  1.00  0.00     0.021 A 
ATOM      5  C   UNL     1       9.068  47.768  53.265  1.00  0.00     0.005 A 
ATOM      6  C   UNL     1       7.693  47.726  53.055  1.00  0.00     0.047 A 
ATOM      7  C   UNL     1       7.150  46.778  52.180  1.00  0.00     0.133 A 
ENDROOT
BRANCH   1   8
ATOM      8  C   UNL     1       7.391  44.883  50.552  1.00  0.00     0.262 C 
ATOM      9  N   UNL     1       6.570  43.941  51.151  1.00  0.00    -0.307 N 
ATOM     10  H   UNL     1       6.492  43.920  52.162  1.00  0.00     0.171 HD
ATOM     11  O   UNL     1       7.666  44.908  49.355  1.00  0.00    -0.269 OA
BRANCH   9  12
ATOM     12  C   UNL     1       5.967  42.933  50.427  1.00  0.00     0.131 A 
ATOM     13  C   UNL     1       4.672  41.361  49.558  1.00  0.00     0.064 A 
ATOM     14  N   UNL     1       5.757  41.389  48.775  1.00  0.00    -0.179 NA
ATOM     15  C   UNL     1       4.753  42.306  50.623  1.00  0.00     0.014 A 
ATOM     16  N   UNL     1       6.525  42.345  49.323  1.00  0.00    -0.262 N 
ATOM     17  C   UNL     1       3.574  40.405  49.264  1.00  0.00     0.069 C 
ATOM     18  C   UNL     1       3.766  42.556  51.698  1.00  0.00     0.050 C 
ATOM     19  H   UNL     1       7.432  42.562  48.917  1.00  0.00     0.192 HD
ENDBRANCH   9  12
ENDBRANCH   1   8
BRANCH   7  20
ATOM     20  O   UNL     1       5.796  46.789  51.968  1.00  0.00    -0.492 OA
BRANCH  20  21
ATOM     21  C   UNL     1       5.056  46.889  53.196  1.00  0.00     0.233 C 
BRANCH  21  22
ATOM     22  C   UNL     1       4.912  45.519  53.785  1.00  0.00     0.027 C 
ATOM     23  C   UNL     1       4.034  45.286  54.989  1.00  0.00     0.007 C 
ATOM     24  C   UNL     1       5.529  45.179  55.118  1.00  0.00     0.007 C 
ENDBRANCH  21  22
ENDBRANCH  20  21
ENDBRANCH   7  20
TORSDOF 5
ENDMDL
MODEL 7
REMARK VINA RESULT:    -7.961      2.055      4.791
REMARK INTER + INTRA:         -11.479
REMARK INTER:                 -10.134
REMARK INTRA:                  -1.344
REMARK UNBOUND:                -1.191
REMARK SMILES Cc1n[nH]c(NC(=O)c2c(Cl)cccc2OCC2CC2)c1C
REMARK SMILES IDX 9 1 10 2 11 3 12 4 13 5 14 6 15 7 7 8 6 9 8 11 5 12 2 13
REMARK SMILES IDX 3 14 21 15 4 16 1 17 22 18 16 20 17 21 18 22 19 23 20 24
REMARK H PARENT 6 10 4 19
ROOT
ATOM      1  C   UNL     1       7.207  46.118  51.808  1.00  0.00     0.100 A 
ATOM      2  C   UNL     1       8.523  45.921  51.365  1.00  0.00     0.057 A 
ATOM      3  Cl  UNL     1       8.938  44.859  50.065  1.00  0.00    -0.083 Cl
ATOM      4  C   UNL     1       9.575  46.650  51.940  1.00  0.00     0.021 A 
ATOM      5  C   UNL     1       9.325  47.580  52.949  1.00  0.00     0.005 A 
ATOM      6  C   UNL     1       8.021  47.792  53.386  1.00  0.00     0.047 A 
ATOM      7  C   UNL     1       6.971  47.051  52.833  1.00  0.00     0.133 A 
ENDROOT
BRANCH   1   8
ATOM      8  C   UNL     1       6.085  45.332  51.233  1.00  0.00     0.262 C 
ATOM      9  N   UNL     1       6.022  44.009  51.637  1.00  0.00    -0.307 N 
ATOM     10  H   UNL     1       6.771  43.625  52.203  1.00  0.00     0.171 HD
ATOM     11  O   UNL     1       5.310  45.856  50.437  1.00  0.00    -0.269 OA
BRANCH   9  12
ATOM     12  C   UNL     1       5.046  43.149  51.173  1.00  0.00     0.131 A 
ATOM     13  C   UNL     1       3.820  41.553  50.251  1.00  0.00     0.064 A 
ATOM     14  N   UNL     1       2.943  42.346  50.879  1.00  0.00    -0.179 NA
ATOM     15  C   UNL     1       5.160  42.016  50.394  1.00  0.00     0.014 A 
ATOM     16  N   UNL     1       3.709  43.304  51.425  1.00  0.00    -0.262 N 
ATOM     17  C   UNL     1       3.338  40.358  49.512  1.00  0.00     0.069 C 
ATOM     18  C   UNL     1       6.396  41.423  49.831  1.00  0.00     0.050 C 
ATOM     19  H   UNL     1       3.278  44.055  51.960  1.00  0.00     0.192 HD
ENDBRANCH   9  12
ENDBRANCH   1   8
BRANCH   7  20
ATOM     20  O   UNL     1       5.694  47.311  53.261  1.00  0.00    -0.492 OA
BRANCH  20  21
ATOM     21  C   UNL     1       5.462  46.833  54.596  1.00  0.00     0.233 C 
BRANCH  21  22
ATOM     22  C   UNL     1       4.463  45.718  54.541  1.00  0.00     0.027 C 
ATOM     23  C   UNL     1       3.136  45.906  53.851  1.00  0.00     0.007 C 
ATOM     24  C   UNL     1       3.191  45.776  55.349  1.00  0.00     0.007 C 
ENDBRANCH  21  22
ENDBRANCH  20  21
ENDBRANCH   7  20
TORSDOF 5
ENDMDL
MODEL 8
REMARK VINA RESULT:    -7.708      1.963      2.572
REMARK INTER + INTRA:         -11.152
REMARK INTER:                  -9.675
REMARK INTRA:                  -1.477
REMARK UNBOUND:                -1.191
REMARK SMILES Cc1n[nH]c(NC(=O)c2c(Cl)cccc2OCC2CC2)c1C
REMARK SMILES IDX 9 1 10 2 11 3 12 4 13 5 14 6 15 7 7 8 6 9 8 11 5 12 2 13
REMARK SMILES IDX 3 14 21 15 4 16 1 17 22 18 16 20 17 21 18 22 19 23 20 24
REMARK H PARENT 6 10 4 19
ROOT
ATOM      1  C   UNL     1       5.560  43.545  50.679  1.00  0.00     0.100 A 
ATOM      2  C   UNL     1       6.250  42.756  49.748  1.00  0.00     0.057 A 
ATOM      3  Cl  UNL     1       5.684  41.215  49.205  1.00  0.00    -0.083 Cl
ATOM      4  C   UNL     1       7.430  43.234  49.159  1.00  0.00     0.021 A 
ATOM      5  C   UNL     1       7.925  44.497  49.486  1.00  0.00     0.005 A 
ATOM      6  C   UNL     1       7.240  45.292  50.399  1.00  0.00     0.047 A 
ATOM      7  C   UNL     1       6.075  44.811  51.008  1.00  0.00     0.133 A 
ENDROOT
BRANCH   1   8
ATOM      8  C   UNL     1       4.326  43.042  51.337  1.00  0.00     0.262 C 
ATOM      9  N   UNL     1       3.263  43.931  51.359  1.00  0.00    -0.307 N 
ATOM     10  H   UNL     1       3.402  44.880  51.029  1.00  0.00     0.171 HD
ATOM     11  O   UNL     1       4.307  41.921  51.837  1.00  0.00    -0.269 OA
BRANCH   9  12
ATOM     12  C   UNL     1       2.058  43.614  51.951  1.00  0.00     0.131 A 
ATOM     13  C   UNL     1       0.176  43.488  53.111  1.00  0.00     0.064 A 
ATOM     14  N   UNL     1       0.200  42.376  52.366  1.00  0.00    -0.179 NA
ATOM     15  C   UNL     1       1.327  44.301  52.898  1.00  0.00     0.014 A 
ATOM     16  N   UNL     1       1.348  42.475  51.676  1.00  0.00    -0.262 N 
ATOM     17  C   UNL     1      -0.965  43.737  54.028  1.00  0.00     0.069 C 
ATOM     18  C   UNL     1       1.668  45.587  53.549  1.00  0.00     0.050 C 
ATOM     19  H   UNL     1       1.617  41.737  51.030  1.00  0.00     0.192 HD
ENDBRANCH   9  12
ENDBRANCH   1   8
BRANCH   7  20
ATOM     20  O   UNL     1       5.406  45.636  51.875  1.00  0.00    -0.492 OA
BRANCH  20  21
ATOM     21  C   UNL     1       6.283  46.224  52.849  1.00  0.00     0.233 C 
BRANCH  21  22
ATOM     22  C   UNL     1       6.375  45.307  54.031  1.00  0.00     0.027 C 
ATOM     23  C   UNL     1       5.165  44.547  54.512  1.00  0.00     0.007 C 
ATOM     24  C   UNL     1       5.727  45.667  55.344  1.00  0.00     0.007 C 
ENDBRANCH  21  22
ENDBRANCH  20  21
ENDBRANCH   7  20
TORSDOF 5
ENDMDL
MODEL 9
REMARK VINA RESULT:    -7.614      1.748      2.372
REMARK INTER + INTRA:         -11.030
REMARK INTER:                 -10.063
REMARK INTRA:                  -0.967
REMARK UNBOUND:                -1.191
REMARK SMILES Cc1n[nH]c(NC(=O)c2c(Cl)cccc2OCC2CC2)c1C
REMARK SMILES IDX 9 1 10 2 11 3 12 4 13 5 14 6 15 7 7 8 6 9 8 11 5 12 2 13
REMARK SMILES IDX 3 14 21 15 4 16 1 17 22 18 16 20 17 21 18 22 19 23 20 24
REMARK H PARENT 6 10 4 19
ROOT
ATOM      1  C   UNL     1       6.950  45.121  50.911  1.00  0.00     0.100 A 
ATOM      2  C   UNL     1       7.470  44.208  49.983  1.00  0.00     0.057 A 
ATOM      3  Cl  UNL     1       6.492  43.083  49.107  1.00  0.00    -0.083 Cl
ATOM      4  C   UNL     1       8.839  44.220  49.677  1.00  0.00     0.021 A 
ATOM      5  C   UNL     1       9.694  45.140  50.285  1.00  0.00     0.005 A 
ATOM      6  C   UNL     1       9.184  46.058  51.198  1.00  0.00     0.047 A 
ATOM      7  C   UNL     1       7.824  46.035  51.525  1.00  0.00     0.133 A 
ENDROOT
BRANCH   1   8
ATOM      8  C   UNL     1       5.508  45.102  51.272  1.00  0.00     0.262 C 
ATOM      9  N   UNL     1       5.150  44.168  52.230  1.00  0.00    -0.307 N 
ATOM     10  H   UNL     1       5.840  43.500  52.556  1.00  0.00     0.171 HD
ATOM     11  O   UNL     1       4.722  45.860  50.710  1.00  0.00    -0.269 OA
BRANCH   9  12
ATOM     12  C   UNL     1       3.845  44.019  52.654  1.00  0.00     0.131 A 
ATOM     13  C   UNL     1       1.730  43.473  53.017  1.00  0.00     0.064 A 
ATOM     14  N   UNL     1       2.004  44.424  53.919  1.00  0.00    -0.179 NA
ATOM     15  C   UNL     1       2.851  43.184  52.185  1.00  0.00     0.014 A 
ATOM     16  N   UNL     1       3.286  44.738  53.677  1.00  0.00    -0.262 N 
ATOM     17  C   UNL     1       0.376  42.866  52.973  1.00  0.00     0.069 C 
ATOM     18  C   UNL     1       2.932  42.215  51.068  1.00  0.00     0.050 C 
ATOM     19  H   UNL     1       3.746  45.459  54.228  1.00  0.00     0.192 HD
ENDBRANCH   9  12
ENDBRANCH   1   8
BRANCH   7  20
ATOM     20  O   UNL     1       7.349  46.977  52.401  1.00  0.00    -0.492 OA
BRANCH  20  21
ATOM     21  C   UNL     1       8.395  47.820  52.910  1.00  0.00     0.233 C 
BRANCH  21  22
ATOM     22  C   UNL     1       8.757  47.359  54.289  1.00  0.00     0.027 C 
ATOM     23  C   UNL     1       9.439  48.292  55.258  1.00  0.00     0.007 C 
ATOM     24  C   UNL     1      10.196  47.129  54.677  1.00  0.00     0.007 C 
ENDBRANCH  21  22
ENDBRANCH  20  21
ENDBRANCH   7  20
TORSDOF 5
ENDMDL
MODEL 10
REMARK VINA RESULT:    -7.537      2.254      3.989
REMARK INTER + INTRA:         -10.931
REMARK INTER:                  -9.834
REMARK INTRA:                  -1.097
REMARK UNBOUND:                -1.191
REMARK SMILES Cc1n[nH]c(NC(=O)c2c(Cl)cccc2OCC2CC2)c1C
REMARK SMILES IDX 9 1 10 2 11 3 12 4 13 5 14 6 15 7 7 8 6 9 8 11 5 12 2 13
REMARK SMILES IDX 3 14 21 15 4 16 1 17 22 18 16 20 17 21 18 22 19 23 20 24
REMARK H PARENT 6 10 4 19
ROOT
ATOM      1  C   UNL     1       7.358  46.075  51.663  1.00  0.00     0.100 A 
ATOM      2  C   UNL     1       8.603  45.640  51.188  1.00  0.00     0.057 A 
ATOM      3  Cl  UNL     1       8.783  44.499  49.902  1.00  0.00    -0.083 Cl
ATOM      4  C   UNL     1       9.784  46.183  51.716  1.00  0.00     0.021 A 
ATOM      5  C   UNL     1       9.734  47.160  52.710  1.00  0.00     0.005 A 
ATOM      6  C   UNL     1       8.502  47.607  53.178  1.00  0.00     0.047 A 
ATOM      7  C   UNL     1       7.321  47.053  52.672  1.00  0.00     0.133 A 
ENDROOT
BRANCH   1   8
ATOM      8  C   UNL     1       6.097  45.489  51.138  1.00  0.00     0.262 C 
ATOM      9  N   UNL     1       5.522  44.511  51.933  1.00  0.00    -0.307 N 
ATOM     10  H   UNL     1       6.020  44.182  52.753  1.00  0.00     0.171 HD
ATOM     11  O   UNL     1       5.649  45.858  50.054  1.00  0.00    -0.269 OA
BRANCH   9  12
ATOM     12  C   UNL     1       4.360  43.862  51.569  1.00  0.00     0.131 A 
ATOM     13  C   UNL     1       2.306  43.213  51.058  1.00  0.00     0.064 A 
ATOM     14  N   UNL     1       3.068  42.126  50.882  1.00  0.00    -0.179 NA
ATOM     15  C   UNL     1       3.065  44.335  51.501  1.00  0.00     0.014 A 
ATOM     16  N   UNL     1       4.303  42.544  51.200  1.00  0.00    -0.262 N 
ATOM     17  C   UNL     1       0.845  43.139  50.801  1.00  0.00     0.069 C 
ATOM     18  C   UNL     1       2.579  45.696  51.821  1.00  0.00     0.050 C 
ATOM     19  H   UNL     1       5.085  41.895  51.160  1.00  0.00     0.192 HD
ENDBRANCH   9  12
ENDBRANCH   1   8
BRANCH   7  20
ATOM     20  O   UNL     1       6.124  47.542  53.129  1.00  0.00    -0.492 OA
BRANCH  20  21
ATOM     21  C   UNL     1       5.856  47.139  54.482  1.00  0.00     0.233 C 
BRANCH  21  22
ATOM     22  C   UNL     1       4.728  46.153  54.477  1.00  0.00     0.027 C 
ATOM     23  C   UNL     1       3.772  46.069  55.640  1.00  0.00     0.007 C 
ATOM     24  C   UNL     1       4.745  44.950  55.386  1.00  0.00     0.007 C 
ENDBRANCH  21  22
ENDBRANCH  20  21
ENDBRANCH   7  20
TORSDOF 5
ENDMDL
