MODEL 1
REMARK VINA RESULT:    -9.168      0.000      0.000
REMARK INTER + INTRA:         -11.954
REMARK INTER:                 -11.312
REMARK INTRA:                  -0.642
REMARK UNBOUND:                -0.642
REMARK SMILES O=c1[nH]cnc2ccc(NS(=O)(=O)CC3CCCCO3)cc12
REMARK SMILES IDX 10 1 9 3 2 4 3 5 22 6 4 7 21 8 6 9 5 10 7 11 8 12 1 13 11 15
REMARK SMILES IDX 12 16 13 17 14 18 15 19 16 20 20 21 17 22 19 23 18 24
REMARK H PARENT 10 2 3 14
ROOT
ATOM      1  N   UNL     1       4.079  46.713  52.165  1.00  0.00    -0.283 N 
ATOM      2  H   UNL     1       3.155  47.037  51.875  1.00  0.00     0.180 HD
ENDROOT
BRANCH   1   3
ATOM      3  C   UNL     1       4.427  45.398  51.745  1.00  0.00     0.049 A 
ATOM      4  C   UNL     1       7.083  43.640  49.740  1.00  0.00     0.258 C 
ATOM      5  N   UNL     1       7.251  42.340  49.337  1.00  0.00    -0.313 N 
ATOM      6  C   UNL     1       5.874  43.906  50.538  1.00  0.00     0.068 A 
ATOM      7  C   UNL     1       6.381  41.342  49.673  1.00  0.00     0.200 C 
ATOM      8  C   UNL     1       5.577  45.196  50.985  1.00  0.00     0.042 A 
ATOM      9  C   UNL     1       5.039  42.819  50.824  1.00  0.00     0.078 A 
ATOM     10  N   UNL     1       5.318  41.515  50.381  1.00  0.00    -0.238 NA
ATOM     11  C   UNL     1       3.888  43.044  51.578  1.00  0.00     0.031 A 
ATOM     12  C   UNL     1       3.577  44.330  52.034  1.00  0.00     0.029 A 
ATOM     13  O   UNL     1       7.891  44.517  49.465  1.00  0.00    -0.269 OA
ATOM     14  H   UNL     1       8.076  42.145  48.789  1.00  0.00     0.171 HD
ENDBRANCH   1   3
BRANCH   1  15
ATOM     15  S   UNL     1       4.329  47.107  53.781  1.00  0.00     0.235 S 
ATOM     16  O   UNL     1       3.345  46.426  54.598  1.00  0.00    -0.207 OA
ATOM     17  O   UNL     1       4.418  48.552  53.820  1.00  0.00    -0.207 OA
BRANCH  15  18
ATOM     18  C   UNL     1       5.932  46.432  54.173  1.00  0.00     0.191 C 
BRANCH  18  19
ATOM     19  C   UNL     1       7.149  47.324  53.957  1.00  0.00     0.135 C 
ATOM     20  C   UNL     1       7.612  47.513  52.504  1.00  0.00     0.033 C 
ATOM     21  O   UNL     1       8.206  46.930  54.841  1.00  0.00    -0.377 OA
ATOM     22  C   UNL     1       8.917  46.787  52.210  1.00  0.00     0.005 C 
ATOM     23  C   UNL     1       9.430  47.603  54.561  1.00  0.00     0.160 C 
ATOM     24  C   UNL     1      10.000  47.136  53.228  1.00  0.00     0.029 C 
ENDBRANCH  18  19
ENDBRANCH  15  18
ENDBRANCH   1  15
TORSDOF 4
ENDMDL
MODEL 2
REMARK VINA RESULT:    -8.618      1.171      1.294
REMARK INTER + INTRA:         -11.275
REMARK INTER:                 -11.089
REMARK INTRA:                  -0.186
REMARK UNBOUND:                -0.642
REMARK SMILES O=c1[nH]cnc2ccc(NS(=O)(=O)CC3CCCCO3)cc12
REMARK SMILES IDX 10 1 9 3 2 4 3 5 22 6 4 7 21 8 6 9 5 10 7 11 8 12 1 13 11 15
REMARK SMILES IDX 12 16 13 17 14 18 15 19 16 20 20 21 17 22 19 23 18 24
REMARK H PARENT 10 2 3 14
ROOT
ATOM      1  N   UNL     1       4.656  45.312  53.660  1.00  0.00    -0.283 N 
ATOM      2  H   UNL     1       5.392  45.261  54.365  1.00  0.00     0.180 HD
ENDROOT
BRANCH   1   3
ATOM      3  C   UNL     1       4.659  44.267  52.693  1.00  0.00     0.049 A 
ATOM      4  C   UNL     1       6.603  43.170  49.663  1.00  0.00     0.258 C 
ATOM      5  N   UNL     1       6.435  42.156  48.754  1.00  0.00    -0.313 N 
ATOM      6  C   UNL     1       5.588  43.241  50.729  1.00  0.00     0.068 A 
ATOM      7  C   UNL     1       5.420  41.247  48.838  1.00  0.00     0.200 C 
ATOM      8  C   UNL     1       5.635  44.245  51.699  1.00  0.00     0.042 A 
ATOM      9  C   UNL     1       4.581  42.269  50.725  1.00  0.00     0.078 A 
ATOM     10  N   UNL     1       4.516  41.253  49.756  1.00  0.00    -0.238 NA
ATOM     11  C   UNL     1       3.608  42.313  51.723  1.00  0.00     0.031 A 
ATOM     12  C   UNL     1       3.641  43.313  52.702  1.00  0.00     0.029 A 
ATOM     13  O   UNL     1       7.541  43.954  49.600  1.00  0.00    -0.269 OA
ATOM     14  H   UNL     1       7.125  42.097  48.020  1.00  0.00     0.171 HD
ENDBRANCH   1   3
BRANCH   1  15
ATOM     15  S   UNL     1       4.526  46.893  53.099  1.00  0.00     0.235 S 
ATOM     16  O   UNL     1       4.606  47.806  54.221  1.00  0.00    -0.207 OA
ATOM     17  O   UNL     1       3.358  46.908  52.243  1.00  0.00    -0.207 OA
BRANCH  15  18
ATOM     18  C   UNL     1       5.973  47.139  52.085  1.00  0.00     0.191 C 
BRANCH  18  19
ATOM     19  C   UNL     1       7.232  47.665  52.764  1.00  0.00     0.135 C 
ATOM     20  C   UNL     1       8.423  47.985  51.847  1.00  0.00     0.033 C 
ATOM     21  O   UNL     1       7.580  46.822  53.869  1.00  0.00    -0.377 OA
ATOM     22  C   UNL     1       9.559  46.982  51.996  1.00  0.00     0.005 C 
ATOM     23  C   UNL     1       8.847  47.152  54.430  1.00  0.00     0.160 C 
ATOM     24  C   UNL     1       9.966  46.803  53.456  1.00  0.00     0.029 C 
ENDBRANCH  18  19
ENDBRANCH  15  18
ENDBRANCH   1  15
TORSDOF 4
ENDMDL
MODEL 3
REMARK VINA RESULT:    -8.516      1.474      2.218
REMARK INTER + INTRA:         -11.150
REMARK INTER:                 -10.814
REMARK INTRA:                  -0.335
REMARK UNBOUND:                -0.642
REMARK SMILES O=c1[nH]cnc2ccc(NS(=O)(=O)CC3CCCCO3)cc12
REMARK SMILES IDX 10 1 9 3 2 4 3 5 22 6 4 7 21 8 6 9 5 10 7 11 8 12 1 13 11 15
REMARK SMILES IDX 12 16 13 17 14 18 15 19 16 20 20 21 17 22 19 23 18 24
REMARK H PARENT 10 2 3 14
ROOT
ATOM      1  N   UNL     1       4.252  47.045  52.480  1.00  0.00    -0.283 N 
ATOM      2  H   UNL     1       3.329  47.429  52.276  1.00  0.00     0.180 HD
ENDROOT
BRANCH   1   3
ATOM      3  C   UNL     1       4.578  45.835  51.804  1.00  0.00     0.049 A 
ATOM      4  C   UNL     1       3.275  42.325  51.422  1.00  0.00     0.258 C 
ATOM      5  N   UNL     1       3.753  41.209  50.783  1.00  0.00    -0.313 N 
ATOM      6  C   UNL     1       4.118  43.528  51.314  1.00  0.00     0.068 A 
ATOM      7  C   UNL     1       4.913  41.207  50.064  1.00  0.00     0.200 C 
ATOM      8  C   UNL     1       3.753  44.721  51.943  1.00  0.00     0.042 A 
ATOM      9  C   UNL     1       5.294  43.424  50.560  1.00  0.00     0.078 A 
ATOM     10  N   UNL     1       5.680  42.233  49.923  1.00  0.00    -0.238 NA
ATOM     11  C   UNL     1       6.111  44.549  50.442  1.00  0.00     0.031 A 
ATOM     12  C   UNL     1       5.759  45.751  51.066  1.00  0.00     0.029 A 
ATOM     13  O   UNL     1       2.212  42.324  52.030  1.00  0.00    -0.269 OA
ATOM     14  H   UNL     1       3.183  40.379  50.850  1.00  0.00     0.171 HD
ENDBRANCH   1   3
BRANCH   1  15
ATOM     15  S   UNL     1       4.532  47.112  54.138  1.00  0.00     0.235 S 
ATOM     16  O   UNL     1       3.564  46.278  54.821  1.00  0.00    -0.207 OA
ATOM     17  O   UNL     1       4.621  48.520  54.462  1.00  0.00    -0.207 OA
BRANCH  15  18
ATOM     18  C   UNL     1       6.143  46.379  54.359  1.00  0.00     0.191 C 
BRANCH  18  19
ATOM     19  C   UNL     1       7.361  47.280  54.187  1.00  0.00     0.135 C 
ATOM     20  C   UNL     1       7.768  47.615  52.744  1.00  0.00     0.033 C 
ATOM     21  O   UNL     1       8.447  46.787  54.981  1.00  0.00    -0.377 OA
ATOM     22  C   UNL     1       9.052  46.914  52.323  1.00  0.00     0.005 C 
ATOM     23  C   UNL     1       9.667  47.477  54.724  1.00  0.00     0.160 C 
ATOM     24  C   UNL     1      10.178  47.147  53.327  1.00  0.00     0.029 C 
ENDBRANCH  18  19
ENDBRANCH  15  18
ENDBRANCH   1  15
TORSDOF 4
ENDMDL
MODEL 4
REMARK VINA RESULT:    -8.212      2.109      3.881
REMARK INTER + INTRA:         -10.775
REMARK INTER:                 -10.114
REMARK INTRA:                  -0.661
REMARK UNBOUND:                -0.642
REMARK SMILES O=c1[nH]cnc2ccc(NS(=O)(=O)CC3CCCCO3)cc12
REMARK SMILES IDX 10 1 9 3 2 4 3 5 22 6 4 7 21 8 6 9 5 10 7 11 8 12 1 13 11 15
REMARK SMILES IDX 12 16 13 17 14 18 15 19 16 20 20 21 17 22 19 23 18 24
REMARK H PARENT 10 2 3 14
ROOT
ATOM      1  N   UNL     1       7.497  46.926  51.249  1.00  0.00    -0.283 N 
ATOM      2  H   UNL     1       6.734  47.594  51.368  1.00  0.00     0.180 HD
ENDROOT
BRANCH   1   3
ATOM      3  C   UNL     1       7.119  45.644  50.759  1.00  0.00     0.049 A 
ATOM      4  C   UNL     1       4.318  43.155  51.106  1.00  0.00     0.258 C 
ATOM      5  N   UNL     1       4.122  41.886  50.623  1.00  0.00    -0.313 N 
ATOM      6  C   UNL     1       5.585  43.795  50.714  1.00  0.00     0.068 A 
ATOM      7  C   UNL     1       5.017  41.259  49.805  1.00  0.00     0.200 C 
ATOM      8  C   UNL     1       5.913  45.076  51.164  1.00  0.00     0.042 A 
ATOM      9  C   UNL     1       6.442  43.067  49.879  1.00  0.00     0.078 A 
ATOM     10  N   UNL     1       6.132  41.776  49.418  1.00  0.00    -0.238 NA
ATOM     11  C   UNL     1       7.649  43.650  49.493  1.00  0.00     0.031 A 
ATOM     12  C   UNL     1       7.992  44.933  49.935  1.00  0.00     0.029 A 
ATOM     13  O   UNL     1       3.488  43.722  51.806  1.00  0.00    -0.269 OA
ATOM     14  H   UNL     1       3.256  41.438  50.884  1.00  0.00     0.171 HD
ENDBRANCH   1   3
BRANCH   1  15
ATOM     15  S   UNL     1       8.505  46.981  52.596  1.00  0.00     0.235 S 
ATOM     16  O   UNL     1       8.491  48.320  53.149  1.00  0.00    -0.207 OA
ATOM     17  O   UNL     1       9.758  46.394  52.168  1.00  0.00    -0.207 OA
BRANCH  15  18
ATOM     18  C   UNL     1       7.743  45.887  53.781  1.00  0.00     0.191 C 
BRANCH  18  19
ATOM     19  C   UNL     1       6.554  46.419  54.574  1.00  0.00     0.135 C 
ATOM     20  C   UNL     1       5.772  45.392  55.407  1.00  0.00     0.033 C 
ATOM     21  O   UNL     1       5.718  47.213  53.724  1.00  0.00    -0.377 OA
ATOM     22  C   UNL     1       4.400  45.089  54.820  1.00  0.00     0.005 C 
ATOM     23  C   UNL     1       4.496  47.586  54.356  1.00  0.00     0.160 C 
ATOM     24  C   UNL     1       3.606  46.366  54.551  1.00  0.00     0.029 C 
ENDBRANCH  18  19
ENDBRANCH  15  18
ENDBRANCH   1  15
TORSDOF 4
ENDMDL
MODEL 5
REMARK VINA RESULT:    -8.135      3.078      5.006
REMARK INTER + INTRA:         -10.679
REMARK INTER:                  -9.964
REMARK INTRA:                  -0.715
REMARK UNBOUND:                -0.642
REMARK SMILES O=c1[nH]cnc2ccc(NS(=O)(=O)CC3CCCCO3)cc12
REMARK SMILES IDX 10 1 9 3 2 4 3 5 22 6 4 7 21 8 6 9 5 10 7 11 8 12 1 13 11 15
REMARK SMILES IDX 12 16 13 17 14 18 15 19 16 20 20 21 17 22 19 23 18 24
REMARK H PARENT 10 2 3 14
ROOT
ATOM      1  N   UNL     1       5.473  44.512  52.805  1.00  0.00    -0.283 N 
ATOM      2  H   UNL     1       5.886  43.579  52.797  1.00  0.00     0.180 HD
ENDROOT
BRANCH   1   3
ATOM      3  C   UNL     1       4.262  44.641  53.543  1.00  0.00     0.049 A 
ATOM      4  C   UNL     1       0.706  43.414  53.451  1.00  0.00     0.258 C 
ATOM      5  N   UNL     1      -0.406  43.695  54.204  1.00  0.00    -0.313 N 
ATOM      6  C   UNL     1       1.933  44.130  53.839  1.00  0.00     0.068 A 
ATOM      7  C   UNL     1      -0.384  44.554  55.265  1.00  0.00     0.200 C 
ATOM      8  C   UNL     1       3.125  43.949  53.133  1.00  0.00     0.042 A 
ATOM      9  C   UNL     1       1.853  44.996  54.937  1.00  0.00     0.078 A 
ATOM     10  N   UNL     1       0.664  45.194  55.658  1.00  0.00    -0.238 NA
ATOM     11  C   UNL     1       3.001  45.687  55.325  1.00  0.00     0.031 A 
ATOM     12  C   UNL     1       4.203  45.516  54.628  1.00  0.00     0.029 A 
ATOM     13  O   UNL     1       0.682  42.611  52.527  1.00  0.00    -0.269 OA
ATOM     14  H   UNL     1      -1.253  43.210  53.948  1.00  0.00     0.171 HD
ENDBRANCH   1   3
BRANCH   1  15
ATOM     15  S   UNL     1       5.512  45.155  51.251  1.00  0.00     0.235 S 
ATOM     16  O   UNL     1       4.675  46.336  51.201  1.00  0.00    -0.207 OA
ATOM     17  O   UNL     1       5.239  44.044  50.363  1.00  0.00    -0.207 OA
BRANCH  15  18
ATOM     18  C   UNL     1       7.203  45.668  51.011  1.00  0.00     0.191 C 
BRANCH  18  19
ATOM     19  C   UNL     1       7.770  46.710  51.970  1.00  0.00     0.135 C 
ATOM     20  C   UNL     1       9.178  47.238  51.654  1.00  0.00     0.033 C 
ATOM     21  O   UNL     1       7.625  46.259  53.322  1.00  0.00    -0.377 OA
ATOM     22  C   UNL     1      10.224  46.729  52.636  1.00  0.00     0.005 C 
ATOM     23  C   UNL     1       8.299  47.100  54.253  1.00  0.00     0.160 C 
ATOM     24  C   UNL     1       9.808  46.977  54.084  1.00  0.00     0.029 C 
ENDBRANCH  18  19
ENDBRANCH  15  18
ENDBRANCH   1  15
TORSDOF 4
ENDMDL
MODEL 6
REMARK VINA RESULT:    -8.099      2.830      4.976
REMARK INTER + INTRA:         -10.635
REMARK INTER:                  -9.950
REMARK INTRA:                  -0.684
REMARK UNBOUND:                -0.642
REMARK SMILES O=c1[nH]cnc2ccc(NS(=O)(=O)CC3CCCCO3)cc12
REMARK SMILES IDX 10 1 9 3 2 4 3 5 22 6 4 7 21 8 6 9 5 10 7 11 8 12 1 13 11 15
REMARK SMILES IDX 12 16 13 17 14 18 15 19 16 20 20 21 17 22 19 23 18 24
REMARK H PARENT 10 2 3 14
ROOT
ATOM      1  N   UNL     1       5.427  44.134  52.275  1.00  0.00    -0.283 N 
ATOM      2  H   UNL     1       5.995  43.301  52.430  1.00  0.00     0.180 HD
ENDROOT
BRANCH   1   3
ATOM      3  C   UNL     1       4.064  44.031  52.676  1.00  0.00     0.049 A 
ATOM      4  C   UNL     1       1.773  45.273  55.390  1.00  0.00     0.258 C 
ATOM      5  N   UNL     1       0.463  45.017  55.705  1.00  0.00    -0.313 N 
ATOM      6  C   UNL     1       2.293  44.561  54.210  1.00  0.00     0.068 A 
ATOM      7  C   UNL     1      -0.328  44.187  54.964  1.00  0.00     0.200 C 
ATOM      8  C   UNL     1       3.621  44.717  53.803  1.00  0.00     0.042 A 
ATOM      9  C   UNL     1       1.407  43.725  53.521  1.00  0.00     0.078 A 
ATOM     10  N   UNL     1       0.069  43.552  53.916  1.00  0.00    -0.238 NA
ATOM     11  C   UNL     1       1.874  43.038  52.400  1.00  0.00     0.031 A 
ATOM     12  C   UNL     1       3.200  43.185  51.980  1.00  0.00     0.029 A 
ATOM     13  O   UNL     1       2.460  46.052  56.039  1.00  0.00    -0.269 OA
ATOM     14  H   UNL     1       0.095  45.500  56.512  1.00  0.00     0.171 HD
ENDBRANCH   1   3
BRANCH   1  15
ATOM     15  S   UNL     1       5.745  44.754  50.743  1.00  0.00     0.235 S 
ATOM     16  O   UNL     1       4.819  45.832  50.462  1.00  0.00    -0.207 OA
ATOM     17  O   UNL     1       5.799  43.606  49.862  1.00  0.00    -0.207 OA
BRANCH  15  18
ATOM     18  C   UNL     1       7.382  45.451  50.864  1.00  0.00     0.191 C 
BRANCH  18  19
ATOM     19  C   UNL     1       7.611  46.544  51.902  1.00  0.00     0.135 C 
ATOM     20  C   UNL     1       8.914  47.350  51.773  1.00  0.00     0.033 C 
ATOM     21  O   UNL     1       7.399  46.020  53.218  1.00  0.00    -0.377 OA
ATOM     22  C   UNL     1       9.915  47.017  52.869  1.00  0.00     0.005 C 
ATOM     23  C   UNL     1       7.776  46.939  54.239  1.00  0.00     0.160 C 
ATOM     24  C   UNL     1       9.289  47.121  54.258  1.00  0.00     0.029 C 
ENDBRANCH  18  19
ENDBRANCH  15  18
ENDBRANCH   1  15
TORSDOF 4
ENDMDL
MODEL 7
REMARK VINA RESULT:    -8.085      3.216      5.993
REMARK INTER + INTRA:         -10.618
REMARK INTER:                 -10.170
REMARK INTRA:                  -0.448
REMARK UNBOUND:                -0.642
REMARK SMILES O=c1[nH]cnc2ccc(NS(=O)(=O)CC3CCCCO3)cc12
REMARK SMILES IDX 10 1 9 3 2 4 3 5 22 6 4 7 21 8 6 9 5 10 7 11 8 12 1 13 11 15
REMARK SMILES IDX 12 16 13 17 14 18 15 19 16 20 20 21 17 22 19 23 18 24
REMARK H PARENT 10 2 3 14
ROOT
ATOM      1  N   UNL     1       3.798  45.314  52.849  1.00  0.00    -0.283 N 
ATOM      2  H   UNL     1       3.607  45.292  53.851  1.00  0.00     0.180 HD
ENDROOT
BRANCH   1   3
ATOM      3  C   UNL     1       5.163  45.498  52.489  1.00  0.00     0.049 A 
ATOM      4  C   UNL     1       8.292  47.097  53.836  1.00  0.00     0.258 C 
ATOM      5  N   UNL     1       9.553  47.272  53.326  1.00  0.00    -0.313 N 
ATOM      6  C   UNL     1       7.343  46.393  52.956  1.00  0.00     0.068 A 
ATOM      7  C   UNL     1       9.928  46.802  52.101  1.00  0.00     0.200 C 
ATOM      8  C   UNL     1       6.021  46.177  53.351  1.00  0.00     0.042 A 
ATOM      9  C   UNL     1       7.821  45.956  51.715  1.00  0.00     0.078 A 
ATOM     10  N   UNL     1       9.146  46.166  51.298  1.00  0.00    -0.238 NA
ATOM     11  C   UNL     1       6.944  45.286  50.862  1.00  0.00     0.031 A 
ATOM     12  C   UNL     1       5.616  45.061  51.243  1.00  0.00     0.029 A 
ATOM     13  O   UNL     1       7.980  47.489  54.953  1.00  0.00    -0.269 OA
ATOM     14  H   UNL     1      10.212  47.754  53.920  1.00  0.00     0.171 HD
ENDBRANCH   1   3
BRANCH   1  15
ATOM     15  S   UNL     1       2.652  46.276  52.079  1.00  0.00     0.235 S 
ATOM     16  O   UNL     1       2.774  46.111  50.645  1.00  0.00    -0.207 OA
ATOM     17  O   UNL     1       2.793  47.593  52.665  1.00  0.00    -0.207 OA
BRANCH  15  18
ATOM     18  C   UNL     1       1.079  45.600  52.579  1.00  0.00     0.191 C 
BRANCH  18  19
ATOM     19  C   UNL     1       1.023  44.837  53.898  1.00  0.00     0.135 C 
ATOM     20  C   UNL     1      -0.316  44.168  54.246  1.00  0.00     0.033 C 
ATOM     21  O   UNL     1       1.539  45.653  54.956  1.00  0.00    -0.377 OA
ATOM     22  C   UNL     1      -1.041  44.872  55.384  1.00  0.00     0.005 C 
ATOM     23  C   UNL     1       1.344  45.068  56.240  1.00  0.00     0.160 C 
ATOM     24  C   UNL     1      -0.136  45.059  56.600  1.00  0.00     0.029 C 
ENDBRANCH  18  19
ENDBRANCH  15  18
ENDBRANCH   1  15
TORSDOF 4
ENDMDL
MODEL 8
REMARK VINA RESULT:    -7.936      3.642      5.703
REMARK INTER + INTRA:         -10.434
REMARK INTER:                 -10.167
REMARK INTRA:                  -0.267
REMARK UNBOUND:                -0.642
REMARK SMILES O=c1[nH]cnc2ccc(NS(=O)(=O)CC3CCCCO3)cc12
REMARK SMILES IDX 10 1 9 3 2 4 3 5 22 6 4 7 21 8 6 9 5 10 7 11 8 12 1 13 11 15
REMARK SMILES IDX 12 16 13 17 14 18 15 19 16 20 20 21 17 22 19 23 18 24
REMARK H PARENT 10 2 3 14
ROOT
ATOM      1  N   UNL     1       4.110  45.546  54.325  1.00  0.00    -0.283 N 
ATOM      2  H   UNL     1       4.794  44.876  53.974  1.00  0.00     0.180 HD
ENDROOT
BRANCH   1   3
ATOM      3  C   UNL     1       2.772  45.068  54.415  1.00  0.00     0.049 A 
ATOM      4  C   UNL     1      -0.157  45.173  56.776  1.00  0.00     0.258 C 
ATOM      5  N   UNL     1      -1.393  44.579  56.767  1.00  0.00    -0.313 N 
ATOM      6  C   UNL     1       0.705  44.861  55.623  1.00  0.00     0.068 A 
ATOM      7  C   UNL     1      -1.823  43.778  55.749  1.00  0.00     0.200 C 
ATOM      8  C   UNL     1       1.997  45.384  55.529  1.00  0.00     0.042 A 
ATOM      9  C   UNL     1       0.177  44.023  54.633  1.00  0.00     0.078 A 
ATOM     10  N   UNL     1      -1.119  43.485  54.711  1.00  0.00    -0.238 NA
ATOM     11  C   UNL     1       0.973  43.711  53.530  1.00  0.00     0.031 A 
ATOM     12  C   UNL     1       2.269  44.227  53.422  1.00  0.00     0.029 A 
ATOM     13  O   UNL     1       0.201  45.922  57.676  1.00  0.00    -0.269 OA
ATOM     14  H   UNL     1      -1.993  44.786  57.552  1.00  0.00     0.171 HD
ENDBRANCH   1   3
BRANCH   1  15
ATOM     15  S   UNL     1       4.358  47.038  53.587  1.00  0.00     0.235 S 
ATOM     16  O   UNL     1       4.670  48.026  54.600  1.00  0.00    -0.207 OA
ATOM     17  O   UNL     1       3.217  47.237  52.718  1.00  0.00    -0.207 OA
BRANCH  15  18
ATOM     18  C   UNL     1       5.808  46.811  52.574  1.00  0.00     0.191 C 
BRANCH  18  19
ATOM     19  C   UNL     1       7.075  47.560  52.972  1.00  0.00     0.135 C 
ATOM     20  C   UNL     1       8.127  47.761  51.871  1.00  0.00     0.033 C 
ATOM     21  O   UNL     1       7.615  47.000  54.175  1.00  0.00    -0.377 OA
ATOM     22  C   UNL     1       9.363  46.898  52.082  1.00  0.00     0.005 C 
ATOM     23  C   UNL     1       8.896  47.534  54.498  1.00  0.00     0.160 C 
ATOM     24  C   UNL     1       9.936  47.066  53.488  1.00  0.00     0.029 C 
ENDBRANCH  18  19
ENDBRANCH  15  18
ENDBRANCH   1  15
TORSDOF 4
ENDMDL
MODEL 9
REMARK VINA RESULT:    -7.884      2.426      5.496
REMARK INTER + INTRA:         -10.369
REMARK INTER:                 -10.130
REMARK INTRA:                  -0.240
REMARK UNBOUND:                -0.642
REMARK SMILES O=c1[nH]cnc2ccc(NS(=O)(=O)CC3CCCCO3)cc12
REMARK SMILES IDX 10 1 9 3 2 4 3 5 22 6 4 7 21 8 6 9 5 10 7 11 8 12 1 13 11 15
REMARK SMILES IDX 12 16 13 17 14 18 15 19 16 20 20 21 17 22 19 23 18 24
REMARK H PARENT 10 2 3 14
ROOT
ATOM      1  N   UNL     1       3.954  46.108  51.479  1.00  0.00    -0.283 N 
ATOM      2  H   UNL     1       3.439  45.300  51.128  1.00  0.00     0.180 HD
ENDROOT
BRANCH   1   3
ATOM      3  C   UNL     1       5.373  45.993  51.446  1.00  0.00     0.049 A 
ATOM      4  C   UNL     1       8.398  47.320  53.247  1.00  0.00     0.258 C 
ATOM      5  N   UNL     1       9.748  47.181  53.048  1.00  0.00    -0.313 N 
ATOM      6  C   UNL     1       7.538  46.607  52.288  1.00  0.00     0.068 A 
ATOM      7  C   UNL     1      10.273  46.410  52.051  1.00  0.00     0.200 C 
ATOM      8  C   UNL     1       6.145  46.692  52.370  1.00  0.00     0.042 A 
ATOM      9  C   UNL     1       8.171  45.849  51.296  1.00  0.00     0.078 A 
ATOM     10  N   UNL     1       9.569  45.753  51.195  1.00  0.00    -0.238 NA
ATOM     11  C   UNL     1       7.379  45.163  50.375  1.00  0.00     0.031 A 
ATOM     12  C   UNL     1       5.983  45.238  50.444  1.00  0.00     0.029 A 
ATOM     13  O   UNL     1       7.940  47.983  54.170  1.00  0.00    -0.269 OA
ATOM     14  H   UNL     1      10.348  47.665  53.699  1.00  0.00     0.171 HD
ENDBRANCH   1   3
BRANCH   1  15
ATOM     15  S   UNL     1       3.248  46.646  52.908  1.00  0.00     0.235 S 
ATOM     16  O   UNL     1       3.153  48.092  52.879  1.00  0.00    -0.207 OA
ATOM     17  O   UNL     1       3.981  45.996  53.974  1.00  0.00    -0.207 OA
BRANCH  15  18
ATOM     18  C   UNL     1       1.592  45.985  52.876  1.00  0.00     0.191 C 
BRANCH  18  19
ATOM     19  C   UNL     1       1.414  44.542  52.416  1.00  0.00     0.135 C 
ATOM     20  C   UNL     1       2.175  43.470  53.211  1.00  0.00     0.033 C 
ATOM     21  O   UNL     1       1.623  44.452  51.001  1.00  0.00    -0.377 OA
ATOM     22  C   UNL     1       3.339  42.881  52.427  1.00  0.00     0.005 C 
ATOM     23  C   UNL     1       1.653  43.105  50.539  1.00  0.00     0.160 C 
ATOM     24  C   UNL     1       2.903  42.398  51.046  1.00  0.00     0.029 C 
ENDBRANCH  18  19
ENDBRANCH  15  18
ENDBRANCH   1  15
TORSDOF 4
ENDMDL
MODEL 10
REMARK VINA RESULT:    -7.821      3.162      4.088
REMARK INTER + INTRA:         -10.292
REMARK INTER:                 -10.083
REMARK INTRA:                  -0.209
REMARK UNBOUND:                -0.642
REMARK SMILES O=c1[nH]cnc2ccc(NS(=O)(=O)CC3CCCCO3)cc12
REMARK SMILES IDX 10 1 9 3 2 4 3 5 22 6 4 7 21 8 6 9 5 10 7 11 8 12 1 13 11 15
REMARK SMILES IDX 12 16 13 17 14 18 15 19 16 20 20 21 17 22 19 23 18 24
REMARK H PARENT 10 2 3 14
ROOT
ATOM      1  N   UNL     1       3.997  46.235  54.895  1.00  0.00    -0.283 N 
ATOM      2  H   UNL     1       4.880  45.777  55.122  1.00  0.00     0.180 HD
ENDROOT
BRANCH   1   3
ATOM      3  C   UNL     1       2.899  45.363  54.648  1.00  0.00     0.049 A 
ATOM      4  C   UNL     1       1.796  42.782  52.142  1.00  0.00     0.258 C 
ATOM      5  N   UNL     1       0.640  42.060  51.981  1.00  0.00    -0.313 N 
ATOM      6  C   UNL     1       1.814  43.704  53.290  1.00  0.00     0.068 A 
ATOM      7  C   UNL     1      -0.417  42.155  52.840  1.00  0.00     0.200 C 
ATOM      8  C   UNL     1       2.924  44.513  53.545  1.00  0.00     0.042 A 
ATOM      9  C   UNL     1       0.678  43.735  54.108  1.00  0.00     0.078 A 
ATOM     10  N   UNL     1      -0.449  42.932  53.867  1.00  0.00    -0.238 NA
ATOM     11  C   UNL     1       0.669  44.600  55.202  1.00  0.00     0.031 A 
ATOM     12  C   UNL     1       1.773  45.417  55.471  1.00  0.00     0.029 A 
ATOM     13  O   UNL     1       2.753  42.657  51.388  1.00  0.00    -0.269 OA
ATOM     14  H   UNL     1       0.616  41.424  51.198  1.00  0.00     0.171 HD
ENDBRANCH   1   3
BRANCH   1  15
ATOM     15  S   UNL     1       4.275  47.472  53.788  1.00  0.00     0.235 S 
ATOM     16  O   UNL     1       4.618  48.684  54.503  1.00  0.00    -0.207 OA
ATOM     17  O   UNL     1       3.133  47.462  52.898  1.00  0.00    -0.207 OA
BRANCH  15  18
ATOM     18  C   UNL     1       5.712  46.948  52.870  1.00  0.00     0.191 C 
BRANCH  18  19
ATOM     19  C   UNL     1       7.023  47.683  53.127  1.00  0.00     0.135 C 
ATOM     20  C   UNL     1       8.011  47.752  51.952  1.00  0.00     0.033 C 
ATOM     21  O   UNL     1       7.619  47.207  54.340  1.00  0.00    -0.377 OA
ATOM     22  C   UNL     1       9.231  46.867  52.164  1.00  0.00     0.005 C 
ATOM     23  C   UNL     1       8.933  47.720  54.539  1.00  0.00     0.160 C 
ATOM     24  C   UNL     1       9.894  47.132  53.514  1.00  0.00     0.029 C 
ENDBRANCH  18  19
ENDBRANCH  15  18
ENDBRANCH   1  15
TORSDOF 4
ENDMDL
