MODEL 1
REMARK VINA RESULT:    -8.111      0.000      0.000
REMARK INTER + INTRA:         -11.110
REMARK INTER:                 -10.482
REMARK INTRA:                  -0.628
REMARK UNBOUND:                -0.628
REMARK SMILES O=C(Nc1ncc(Oc2ccccc2)cn1)c1ccn(C2CCCC2)n1
REMARK SMILES IDX 4 1 5 2 6 3 7 4 15 5 16 6 3 7 2 8 1 9 17 11 18 12 26 13
REMARK SMILES IDX 19 14 20 15 21 16 22 17 25 18 23 19 24 20 8 21 9 22 10 23
REMARK SMILES IDX 14 24 11 25 13 26 12 27
REMARK H PARENT 3 10
ROOT
ATOM      1  C   UNL     1       1.945  45.269  54.510  1.00  0.00     0.229 A 
ATOM      2  N   UNL     1       0.764  44.819  54.077  1.00  0.00    -0.217 NA
ATOM      3  C   UNL     1      -0.251  44.791  54.967  1.00  0.00     0.163 A 
ATOM      4  C   UNL     1      -0.128  45.206  56.273  1.00  0.00     0.164 A 
ATOM      5  C   UNL     1       1.133  45.628  56.623  1.00  0.00     0.163 A 
ATOM      6  N   UNL     1       2.181  45.675  55.769  1.00  0.00    -0.217 NA
ENDROOT
BRANCH   1   7
ATOM      7  N   UNL     1       3.054  45.337  53.688  1.00  0.00    -0.289 N 
ATOM      8  C   UNL     1       3.356  46.351  52.810  1.00  0.00     0.278 C 
ATOM      9  O   UNL     1       2.699  47.375  52.656  1.00  0.00    -0.267 OA
ATOM     10  H   UNL     1       3.688  44.570  53.831  1.00  0.00     0.173 HD
BRANCH   8  11
ATOM     11  C   UNL     1       4.605  46.104  52.044  1.00  0.00     0.150 A 
ATOM     12  C   UNL     1       4.797  45.298  50.884  1.00  0.00     0.056 A 
ATOM     13  N   UNL     1       5.771  46.677  52.397  1.00  0.00    -0.167 NA
ATOM     14  C   UNL     1       6.130  45.413  50.565  1.00  0.00     0.110 A 
ATOM     15  N   UNL     1       6.673  46.240  51.501  1.00  0.00    -0.269 N 
BRANCH  15  16
ATOM     16  C   UNL     1       8.038  46.712  51.615  1.00  0.00     0.107 C 
ATOM     17  C   UNL     1       8.378  47.244  53.013  1.00  0.00     0.027 C 
ATOM     18  C   UNL     1       9.145  45.688  51.361  1.00  0.00     0.027 C 
ATOM     19  C   UNL     1       9.895  47.106  53.156  1.00  0.00     0.002 C 
ATOM     20  C   UNL     1      10.381  46.391  51.900  1.00  0.00     0.002 C 
ENDBRANCH  15  16
ENDBRANCH   8  11
ENDBRANCH   1   7
BRANCH   4  21
ATOM     21  O   UNL     1      -1.097  45.182  57.234  1.00  0.00    -0.454 OA
BRANCH  21  22
ATOM     22  C   UNL     1      -1.903  46.289  57.349  1.00  0.00     0.127 A 
ATOM     23  C   UNL     1      -3.101  46.396  56.640  1.00  0.00     0.047 A 
ATOM     24  C   UNL     1      -1.451  47.344  58.142  1.00  0.00     0.047 A 
ATOM     25  C   UNL     1      -3.872  47.551  56.761  1.00  0.00     0.004 A 
ATOM     26  C   UNL     1      -2.226  48.499  58.260  1.00  0.00     0.004 A 
ATOM     27  C   UNL     1      -3.436  48.600  57.573  1.00  0.00     0.000 A 
ENDBRANCH  21  22
ENDBRANCH   4  21
TORSDOF 5
ENDMDL
MODEL 2
REMARK VINA RESULT:    -8.111      2.775      9.172
REMARK INTER + INTRA:         -11.109
REMARK INTER:                 -10.531
REMARK INTRA:                  -0.578
REMARK UNBOUND:                -0.628
REMARK SMILES O=C(Nc1ncc(Oc2ccccc2)cn1)c1ccn(C2CCCC2)n1
REMARK SMILES IDX 4 1 5 2 6 3 7 4 15 5 16 6 3 7 2 8 1 9 17 11 18 12 26 13
REMARK SMILES IDX 19 14 20 15 21 16 22 17 25 18 23 19 24 20 8 21 9 22 10 23
REMARK SMILES IDX 14 24 11 25 13 26 12 27
REMARK H PARENT 3 10
ROOT
ATOM      1  C   UNL     1       3.481  45.748  54.613  1.00  0.00     0.229 A 
ATOM      2  N   UNL     1       4.472  44.901  54.899  1.00  0.00    -0.217 NA
ATOM      3  C   UNL     1       5.715  45.418  55.010  1.00  0.00     0.163 A 
ATOM      4  C   UNL     1       5.998  46.755  54.855  1.00  0.00     0.164 A 
ATOM      5  C   UNL     1       4.912  47.537  54.540  1.00  0.00     0.163 A 
ATOM      6  N   UNL     1       3.649  47.067  54.417  1.00  0.00    -0.217 NA
ENDROOT
BRANCH   1   7
ATOM      7  N   UNL     1       2.171  45.330  54.471  1.00  0.00    -0.289 N 
ATOM      8  C   UNL     1       1.212  45.306  55.457  1.00  0.00     0.278 C 
ATOM      9  O   UNL     1       1.370  45.696  56.609  1.00  0.00    -0.267 OA
ATOM     10  H   UNL     1       1.945  45.082  53.524  1.00  0.00     0.173 HD
BRANCH   8  11
ATOM     11  C   UNL     1      -0.089  44.763  54.989  1.00  0.00     0.150 A 
ATOM     12  C   UNL     1      -1.231  44.391  55.757  1.00  0.00     0.056 A 
ATOM     13  N   UNL     1      -0.338  44.566  53.680  1.00  0.00    -0.167 NA
ATOM     14  C   UNL     1      -2.169  43.959  54.849  1.00  0.00     0.110 A 
ATOM     15  N   UNL     1      -1.588  44.074  53.622  1.00  0.00    -0.269 N 
BRANCH  15  16
ATOM     16  C   UNL     1      -2.149  43.778  52.320  1.00  0.00     0.107 C 
ATOM     17  C   UNL     1      -2.473  45.035  51.502  1.00  0.00     0.027 C 
ATOM     18  C   UNL     1      -1.277  42.964  51.363  1.00  0.00     0.027 C 
ATOM     19  C   UNL     1      -2.443  44.600  50.035  1.00  0.00     0.002 C 
ATOM     20  C   UNL     1      -1.986  43.146  50.030  1.00  0.00     0.002 C 
ENDBRANCH  15  16
ENDBRANCH   8  11
ENDBRANCH   1   7
BRANCH   4  21
ATOM     21  O   UNL     1       7.227  47.346  54.924  1.00  0.00    -0.454 OA
BRANCH  21  22
ATOM     22  C   UNL     1       8.058  47.208  53.839  1.00  0.00     0.127 A 
ATOM     23  C   UNL     1       7.584  47.354  52.534  1.00  0.00     0.047 A 
ATOM     24  C   UNL     1       9.383  46.843  54.075  1.00  0.00     0.047 A 
ATOM     25  C   UNL     1       8.455  47.173  51.460  1.00  0.00     0.004 A 
ATOM     26  C   UNL     1      10.252  46.662  52.999  1.00  0.00     0.004 A 
ATOM     27  C   UNL     1       9.789  46.831  51.693  1.00  0.00     0.000 A 
ENDBRANCH  21  22
ENDBRANCH   4  21
TORSDOF 5
ENDMDL
MODEL 3
REMARK VINA RESULT:    -8.043      2.552      9.500
REMARK INTER + INTRA:         -11.021
REMARK INTER:                 -10.550
REMARK INTRA:                  -0.471
REMARK UNBOUND:                -0.628
REMARK SMILES O=C(Nc1ncc(Oc2ccccc2)cn1)c1ccn(C2CCCC2)n1
REMARK SMILES IDX 4 1 5 2 6 3 7 4 15 5 16 6 3 7 2 8 1 9 17 11 18 12 26 13
REMARK SMILES IDX 19 14 20 15 21 16 22 17 25 18 23 19 24 20 8 21 9 22 10 23
REMARK SMILES IDX 14 24 11 25 13 26 12 27
REMARK H PARENT 3 10
ROOT
ATOM      1  C   UNL     1       3.519  45.660  54.753  1.00  0.00     0.229 A 
ATOM      2  N   UNL     1       4.502  44.887  55.221  1.00  0.00    -0.217 NA
ATOM      3  C   UNL     1       5.738  45.429  55.282  1.00  0.00     0.163 A 
ATOM      4  C   UNL     1       6.021  46.719  54.899  1.00  0.00     0.164 A 
ATOM      5  C   UNL     1       4.945  47.421  54.411  1.00  0.00     0.163 A 
ATOM      6  N   UNL     1       3.689  46.924  54.330  1.00  0.00    -0.217 NA
ENDROOT
BRANCH   1   7
ATOM      7  N   UNL     1       2.216  45.210  54.642  1.00  0.00    -0.289 N 
ATOM      8  C   UNL     1       1.744  44.303  53.722  1.00  0.00     0.278 C 
ATOM      9  O   UNL     1       2.425  43.723  52.884  1.00  0.00    -0.267 OA
ATOM     10  H   UNL     1       1.618  45.577  55.361  1.00  0.00     0.173 HD
BRANCH   8  11
ATOM     11  C   UNL     1       0.283  44.060  53.843  1.00  0.00     0.150 A 
ATOM     12  C   UNL     1      -0.599  43.438  52.913  1.00  0.00     0.056 A 
ATOM     13  N   UNL     1      -0.401  44.426  54.944  1.00  0.00    -0.167 NA
ATOM     14  C   UNL     1      -1.840  43.454  53.505  1.00  0.00     0.110 A 
ATOM     15  N   UNL     1      -1.674  44.060  54.714  1.00  0.00    -0.269 N 
BRANCH  15  16
ATOM     16  C   UNL     1      -2.657  44.311  55.748  1.00  0.00     0.107 C 
ATOM     17  C   UNL     1      -2.729  43.193  56.796  1.00  0.00     0.027 C 
ATOM     18  C   UNL     1      -2.457  45.565  56.599  1.00  0.00     0.027 C 
ATOM     19  C   UNL     1      -3.286  43.844  58.065  1.00  0.00     0.002 C 
ATOM     20  C   UNL     1      -3.408  45.334  57.764  1.00  0.00     0.002 C 
ENDBRANCH  15  16
ENDBRANCH   8  11
ENDBRANCH   1   7
BRANCH   4  21
ATOM     21  O   UNL     1       7.245  47.325  54.906  1.00  0.00    -0.454 OA
BRANCH  21  22
ATOM     22  C   UNL     1       8.062  47.115  53.821  1.00  0.00     0.127 A 
ATOM     23  C   UNL     1       7.545  47.008  52.529  1.00  0.00     0.047 A 
ATOM     24  C   UNL     1       9.425  46.935  54.057  1.00  0.00     0.047 A 
ATOM     25  C   UNL     1       8.407  46.761  51.461  1.00  0.00     0.004 A 
ATOM     26  C   UNL     1      10.284  46.688  52.986  1.00  0.00     0.004 A 
ATOM     27  C   UNL     1       9.775  46.605  51.689  1.00  0.00     0.000 A 
ENDBRANCH  21  22
ENDBRANCH   4  21
TORSDOF 5
ENDMDL
MODEL 4
REMARK VINA RESULT:    -7.944      3.431      9.299
REMARK INTER + INTRA:         -10.894
REMARK INTER:                 -10.179
REMARK INTRA:                  -0.715
REMARK UNBOUND:                -0.628
REMARK SMILES O=C(Nc1ncc(Oc2ccccc2)cn1)c1ccn(C2CCCC2)n1
REMARK SMILES IDX 4 1 5 2 6 3 7 4 15 5 16 6 3 7 2 8 1 9 17 11 18 12 26 13
REMARK SMILES IDX 19 14 20 15 21 16 22 17 25 18 23 19 24 20 8 21 9 22 10 23
REMARK SMILES IDX 14 24 11 25 13 26 12 27
REMARK H PARENT 3 10
ROOT
ATOM      1  C   UNL     1       3.019  45.901  53.254  1.00  0.00     0.229 A 
ATOM      2  N   UNL     1       4.003  45.049  53.553  1.00  0.00    -0.217 NA
ATOM      3  C   UNL     1       5.176  45.578  53.963  1.00  0.00     0.163 A 
ATOM      4  C   UNL     1       5.395  46.930  54.093  1.00  0.00     0.164 A 
ATOM      5  C   UNL     1       4.327  47.719  53.738  1.00  0.00     0.163 A 
ATOM      6  N   UNL     1       3.133  47.238  53.322  1.00  0.00    -0.217 NA
ENDROOT
BRANCH   1   7
ATOM      7  N   UNL     1       1.778  45.472  52.820  1.00  0.00    -0.289 N 
ATOM      8  C   UNL     1       0.747  45.029  53.614  1.00  0.00     0.278 C 
ATOM      9  O   UNL     1       0.762  44.988  54.839  1.00  0.00    -0.267 OA
ATOM     10  H   UNL     1       1.663  45.567  51.827  1.00  0.00     0.173 HD
BRANCH   8  11
ATOM     11  C   UNL     1      -0.444  44.602  52.834  1.00  0.00     0.150 A 
ATOM     12  C   UNL     1      -0.999  43.297  52.693  1.00  0.00     0.056 A 
ATOM     13  N   UNL     1      -1.182  45.487  52.138  1.00  0.00    -0.167 NA
ATOM     14  C   UNL     1      -2.096  43.443  51.877  1.00  0.00     0.110 A 
ATOM     15  N   UNL     1      -2.162  44.767  51.564  1.00  0.00    -0.269 N 
BRANCH  15  16
ATOM     16  C   UNL     1      -3.141  45.463  50.755  1.00  0.00     0.107 C 
ATOM     17  C   UNL     1      -3.282  46.946  51.120  1.00  0.00     0.027 C 
ATOM     18  C   UNL     1      -2.884  45.506  49.248  1.00  0.00     0.027 C 
ATOM     19  C   UNL     1      -3.817  47.637  49.864  1.00  0.00     0.002 C 
ATOM     20  C   UNL     1      -3.857  46.573  48.773  1.00  0.00     0.002 C 
ENDBRANCH  15  16
ENDBRANCH   8  11
ENDBRANCH   1   7
BRANCH   4  21
ATOM     21  O   UNL     1       6.557  47.538  54.473  1.00  0.00    -0.454 OA
BRANCH  21  22
ATOM     22  C   UNL     1       7.659  47.356  53.672  1.00  0.00     0.127 A 
ATOM     23  C   UNL     1       7.649  47.719  52.323  1.00  0.00     0.047 A 
ATOM     24  C   UNL     1       8.771  46.724  54.228  1.00  0.00     0.047 A 
ATOM     25  C   UNL     1       8.777  47.486  51.539  1.00  0.00     0.004 A 
ATOM     26  C   UNL     1       9.899  46.493  53.440  1.00  0.00     0.004 A 
ATOM     27  C   UNL     1       9.903  46.876  52.098  1.00  0.00     0.000 A 
ENDBRANCH  21  22
ENDBRANCH   4  21
TORSDOF 5
ENDMDL
MODEL 5
REMARK VINA RESULT:    -7.929      1.749      2.363
REMARK INTER + INTRA:         -10.875
REMARK INTER:                 -10.324
REMARK INTRA:                  -0.551
REMARK UNBOUND:                -0.628
REMARK SMILES O=C(Nc1ncc(Oc2ccccc2)cn1)c1ccn(C2CCCC2)n1
REMARK SMILES IDX 4 1 5 2 6 3 7 4 15 5 16 6 3 7 2 8 1 9 17 11 18 12 26 13
REMARK SMILES IDX 19 14 20 15 21 16 22 17 25 18 23 19 24 20 8 21 9 22 10 23
REMARK SMILES IDX 14 24 11 25 13 26 12 27
REMARK H PARENT 3 10
ROOT
ATOM      1  C   UNL     1       2.322  43.958  52.956  1.00  0.00     0.229 A 
ATOM      2  N   UNL     1       1.546  43.126  52.257  1.00  0.00    -0.217 NA
ATOM      3  C   UNL     1       0.340  42.818  52.782  1.00  0.00     0.163 A 
ATOM      4  C   UNL     1      -0.119  43.322  53.977  1.00  0.00     0.164 A 
ATOM      5  C   UNL     1       0.766  44.149  54.627  1.00  0.00     0.163 A 
ATOM      6  N   UNL     1       1.983  44.487  54.143  1.00  0.00    -0.217 NA
ENDROOT
BRANCH   1   7
ATOM      7  N   UNL     1       3.577  44.339  52.518  1.00  0.00    -0.289 N 
ATOM      8  C   UNL     1       3.852  45.277  51.551  1.00  0.00     0.278 C 
ATOM      9  O   UNL     1       3.016  45.951  50.958  1.00  0.00    -0.267 OA
ATOM     10  H   UNL     1       4.316  43.891  53.029  1.00  0.00     0.173 HD
BRANCH   8  11
ATOM     11  C   UNL     1       5.306  45.427  51.284  1.00  0.00     0.150 A 
ATOM     12  C   UNL     1       6.085  44.857  50.235  1.00  0.00     0.056 A 
ATOM     13  N   UNL     1       6.089  46.191  52.068  1.00  0.00    -0.167 NA
ATOM     14  C   UNL     1       7.368  45.311  50.433  1.00  0.00     0.110 A 
ATOM     15  N   UNL     1       7.324  46.098  51.543  1.00  0.00    -0.269 N 
BRANCH  15  16
ATOM     16  C   UNL     1       8.394  46.843  52.173  1.00  0.00     0.107 C 
ATOM     17  C   UNL     1       7.931  47.652  53.392  1.00  0.00     0.027 C 
ATOM     18  C   UNL     1       9.565  46.031  52.728  1.00  0.00     0.027 C 
ATOM     19  C   UNL     1       9.174  47.842  54.265  1.00  0.00     0.002 C 
ATOM     20  C   UNL     1      10.290  47.043  53.601  1.00  0.00     0.002 C 
ENDBRANCH  15  16
ENDBRANCH   8  11
ENDBRANCH   1   7
BRANCH   4  21
ATOM     21  O   UNL     1      -1.310  43.036  54.583  1.00  0.00    -0.454 OA
BRANCH  21  22
ATOM     22  C   UNL     1      -1.954  44.064  55.228  1.00  0.00     0.127 A 
ATOM     23  C   UNL     1      -1.974  44.153  56.621  1.00  0.00     0.047 A 
ATOM     24  C   UNL     1      -2.657  44.983  54.448  1.00  0.00     0.047 A 
ATOM     25  C   UNL     1      -2.668  45.195  57.235  1.00  0.00     0.004 A 
ATOM     26  C   UNL     1      -3.351  46.024  55.066  1.00  0.00     0.004 A 
ATOM     27  C   UNL     1      -3.353  46.131  56.457  1.00  0.00     0.000 A 
ENDBRANCH  21  22
ENDBRANCH   4  21
TORSDOF 5
ENDMDL
MODEL 6
REMARK VINA RESULT:    -7.899      1.967      9.410
REMARK INTER + INTRA:         -10.836
REMARK INTER:                 -10.470
REMARK INTRA:                  -0.366
REMARK UNBOUND:                -0.628
REMARK SMILES O=C(Nc1ncc(Oc2ccccc2)cn1)c1ccn(C2CCCC2)n1
REMARK SMILES IDX 4 1 5 2 6 3 7 4 15 5 16 6 3 7 2 8 1 9 17 11 18 12 26 13
REMARK SMILES IDX 19 14 20 15 21 16 22 17 25 18 23 19 24 20 8 21 9 22 10 23
REMARK SMILES IDX 14 24 11 25 13 26 12 27
REMARK H PARENT 3 10
ROOT
ATOM      1  C   UNL     1       3.357  45.259  52.582  1.00  0.00     0.229 A 
ATOM      2  N   UNL     1       3.328  45.901  51.413  1.00  0.00    -0.217 NA
ATOM      3  C   UNL     1       4.499  46.038  50.753  1.00  0.00     0.163 A 
ATOM      4  C   UNL     1       5.696  45.545  51.220  1.00  0.00     0.164 A 
ATOM      5  C   UNL     1       5.620  44.922  52.443  1.00  0.00     0.163 A 
ATOM      6  N   UNL     1       4.473  44.760  53.142  1.00  0.00    -0.217 NA
ENDROOT
BRANCH   1   7
ATOM      7  N   UNL     1       2.221  45.064  53.346  1.00  0.00    -0.289 N 
ATOM      8  C   UNL     1       1.456  43.923  53.392  1.00  0.00     0.278 C 
ATOM      9  O   UNL     1       1.696  42.884  52.787  1.00  0.00    -0.267 OA
ATOM     10  H   UNL     1       2.017  45.848  53.941  1.00  0.00     0.173 HD
BRANCH   8  11
ATOM     11  C   UNL     1       0.275  44.050  54.285  1.00  0.00     0.150 A 
ATOM     12  C   UNL     1      -0.955  43.332  54.247  1.00  0.00     0.056 A 
ATOM     13  N   UNL     1       0.260  44.923  55.310  1.00  0.00    -0.167 NA
ATOM     14  C   UNL     1      -1.706  43.819  55.291  1.00  0.00     0.110 A 
ATOM     15  N   UNL     1      -0.942  44.773  55.893  1.00  0.00    -0.269 N 
BRANCH  15  16
ATOM     16  C   UNL     1      -1.245  45.580  57.057  1.00  0.00     0.107 C 
ATOM     17  C   UNL     1      -0.035  46.365  57.579  1.00  0.00     0.027 C 
ATOM     18  C   UNL     1      -2.308  46.666  56.884  1.00  0.00     0.027 C 
ATOM     19  C   UNL     1      -0.610  47.566  58.334  1.00  0.00     0.002 C 
ATOM     20  C   UNL     1      -2.120  47.519  58.129  1.00  0.00     0.002 C 
ENDBRANCH  15  16
ENDBRANCH   8  11
ENDBRANCH   1   7
BRANCH   4  21
ATOM     21  O   UNL     1       6.919  45.668  50.625  1.00  0.00    -0.454 OA
BRANCH  21  22
ATOM     22  C   UNL     1       7.942  46.187  51.382  1.00  0.00     0.127 A 
ATOM     23  C   UNL     1       9.215  45.615  51.379  1.00  0.00     0.047 A 
ATOM     24  C   UNL     1       7.650  47.265  52.218  1.00  0.00     0.047 A 
ATOM     25  C   UNL     1      10.215  46.154  52.187  1.00  0.00     0.004 A 
ATOM     26  C   UNL     1       8.653  47.802  53.026  1.00  0.00     0.004 A 
ATOM     27  C   UNL     1       9.934  47.249  53.008  1.00  0.00     0.000 A 
ENDBRANCH  21  22
ENDBRANCH   4  21
TORSDOF 5
ENDMDL
MODEL 7
REMARK VINA RESULT:    -7.815      2.703      9.552
REMARK INTER + INTRA:         -10.727
REMARK INTER:                 -10.084
REMARK INTRA:                  -0.643
REMARK UNBOUND:                -0.628
REMARK SMILES O=C(Nc1ncc(Oc2ccccc2)cn1)c1ccn(C2CCCC2)n1
REMARK SMILES IDX 4 1 5 2 6 3 7 4 15 5 16 6 3 7 2 8 1 9 17 11 18 12 26 13
REMARK SMILES IDX 19 14 20 15 21 16 22 17 25 18 23 19 24 20 8 21 9 22 10 23
REMARK SMILES IDX 14 24 11 25 13 26 12 27
REMARK H PARENT 3 10
ROOT
ATOM      1  C   UNL     1       3.299  44.690  51.861  1.00  0.00     0.229 A 
ATOM      2  N   UNL     1       4.315  43.966  52.338  1.00  0.00    -0.217 NA
ATOM      3  C   UNL     1       5.562  44.335  51.971  1.00  0.00     0.163 A 
ATOM      4  C   UNL     1       5.826  45.407  51.151  1.00  0.00     0.164 A 
ATOM      5  C   UNL     1       4.710  46.070  50.697  1.00  0.00     0.163 A 
ATOM      6  N   UNL     1       3.443  45.740  51.035  1.00  0.00    -0.217 NA
ENDROOT
BRANCH   1   7
ATOM      7  N   UNL     1       1.982  44.402  52.166  1.00  0.00    -0.289 N 
ATOM      8  C   UNL     1       1.150  43.559  51.469  1.00  0.00     0.278 C 
ATOM      9  O   UNL     1       1.471  42.898  50.486  1.00  0.00    -0.267 OA
ATOM     10  H   UNL     1       1.678  44.840  53.018  1.00  0.00     0.173 HD
BRANCH   8  11
ATOM     11  C   UNL     1      -0.223  43.496  52.035  1.00  0.00     0.150 A 
ATOM     12  C   UNL     1      -1.410  42.973  51.445  1.00  0.00     0.056 A 
ATOM     13  N   UNL     1      -0.494  43.956  53.271  1.00  0.00    -0.167 NA
ATOM     14  C   UNL     1      -2.402  43.147  52.381  1.00  0.00     0.110 A 
ATOM     15  N   UNL     1      -1.810  43.744  53.452  1.00  0.00    -0.269 N 
BRANCH  15  16
ATOM     16  C   UNL     1      -2.397  44.126  54.720  1.00  0.00     0.107 C 
ATOM     17  C   UNL     1      -1.375  44.196  55.863  1.00  0.00     0.027 C 
ATOM     18  C   UNL     1      -3.072  45.497  54.782  1.00  0.00     0.027 C 
ATOM     19  C   UNL     1      -1.965  45.161  56.894  1.00  0.00     0.002 C 
ATOM     20  C   UNL     1      -3.243  45.718  56.277  1.00  0.00     0.002 C 
ENDBRANCH  15  16
ENDBRANCH   8  11
ENDBRANCH   1   7
BRANCH   4  21
ATOM     21  O   UNL     1       7.052  45.822  50.716  1.00  0.00    -0.454 OA
BRANCH  21  22
ATOM     22  C   UNL     1       7.938  46.281  51.661  1.00  0.00     0.127 A 
ATOM     23  C   UNL     1       7.517  47.079  52.728  1.00  0.00     0.047 A 
ATOM     24  C   UNL     1       9.290  45.989  51.484  1.00  0.00     0.047 A 
ATOM     25  C   UNL     1       8.455  47.550  53.646  1.00  0.00     0.004 A 
ATOM     26  C   UNL     1      10.225  46.462  52.405  1.00  0.00     0.004 A 
ATOM     27  C   UNL     1       9.807  47.239  53.486  1.00  0.00     0.000 A 
ENDBRANCH  21  22
ENDBRANCH   4  21
TORSDOF 5
ENDMDL
MODEL 8
REMARK VINA RESULT:    -7.625      4.067      5.553
REMARK INTER + INTRA:         -10.482
REMARK INTER:                  -9.930
REMARK INTRA:                  -0.552
REMARK UNBOUND:                -0.628
REMARK SMILES O=C(Nc1ncc(Oc2ccccc2)cn1)c1ccn(C2CCCC2)n1
REMARK SMILES IDX 4 1 5 2 6 3 7 4 15 5 16 6 3 7 2 8 1 9 17 11 18 12 26 13
REMARK SMILES IDX 19 14 20 15 21 16 22 17 25 18 23 19 24 20 8 21 9 22 10 23
REMARK SMILES IDX 14 24 11 25 13 26 12 27
REMARK H PARENT 3 10
ROOT
ATOM      1  C   UNL     1       0.892  44.915  52.019  1.00  0.00     0.229 A 
ATOM      2  N   UNL     1       0.843  43.798  51.289  1.00  0.00    -0.217 NA
ATOM      3  C   UNL     1      -0.365  43.423  50.814  1.00  0.00     0.163 A 
ATOM      4  C   UNL     1      -1.523  44.131  51.037  1.00  0.00     0.164 A 
ATOM      5  C   UNL     1      -1.366  45.251  51.819  1.00  0.00     0.163 A 
ATOM      6  N   UNL     1      -0.180  45.669  52.318  1.00  0.00    -0.217 NA
ENDROOT
BRANCH   1   7
ATOM      7  N   UNL     1       2.071  45.392  52.559  1.00  0.00    -0.289 N 
ATOM      8  C   UNL     1       3.051  46.087  51.890  1.00  0.00     0.278 C 
ATOM      9  O   UNL     1       3.002  46.426  50.713  1.00  0.00    -0.267 OA
ATOM     10  H   UNL     1       2.136  45.230  53.549  1.00  0.00     0.173 HD
BRANCH   8  11
ATOM     11  C   UNL     1       4.215  46.424  52.751  1.00  0.00     0.150 A 
ATOM     12  C   UNL     1       4.290  46.476  54.173  1.00  0.00     0.056 A 
ATOM     13  N   UNL     1       5.416  46.727  52.221  1.00  0.00    -0.167 NA
ATOM     14  C   UNL     1       5.586  46.828  54.467  1.00  0.00     0.110 A 
ATOM     15  N   UNL     1       6.219  46.974  53.270  1.00  0.00    -0.269 N 
BRANCH  15  16
ATOM     16  C   UNL     1       7.603  47.313  53.009  1.00  0.00     0.107 C 
ATOM     17  C   UNL     1       8.494  47.215  54.254  1.00  0.00     0.027 C 
ATOM     18  C   UNL     1       8.345  46.446  51.991  1.00  0.00     0.027 C 
ATOM     19  C   UNL     1       9.915  46.981  53.735  1.00  0.00     0.002 C 
ATOM     20  C   UNL     1       9.799  46.826  52.223  1.00  0.00     0.002 C 
ENDBRANCH  15  16
ENDBRANCH   8  11
ENDBRANCH   1   7
BRANCH   4  21
ATOM     21  O   UNL     1      -2.779  43.801  50.615  1.00  0.00    -0.454 OA
BRANCH  21  22
ATOM     22  C   UNL     1      -3.025  42.479  50.333  1.00  0.00     0.127 A 
ATOM     23  C   UNL     1      -3.226  42.038  49.024  1.00  0.00     0.047 A 
ATOM     24  C   UNL     1      -3.142  41.595  51.405  1.00  0.00     0.047 A 
ATOM     25  C   UNL     1      -3.506  40.693  48.786  1.00  0.00     0.004 A 
ATOM     26  C   UNL     1      -3.422  40.250  51.163  1.00  0.00     0.004 A 
ATOM     27  C   UNL     1      -3.600  39.799  49.855  1.00  0.00     0.000 A 
ENDBRANCH  21  22
ENDBRANCH   4  21
TORSDOF 5
ENDMDL
MODEL 9
REMARK VINA RESULT:    -7.591      4.381      5.715
REMARK INTER + INTRA:         -10.438
REMARK INTER:                  -9.748
REMARK INTRA:                  -0.689
REMARK UNBOUND:                -0.628
REMARK SMILES O=C(Nc1ncc(Oc2ccccc2)cn1)c1ccn(C2CCCC2)n1
REMARK SMILES IDX 4 1 5 2 6 3 7 4 15 5 16 6 3 7 2 8 1 9 17 11 18 12 26 13
REMARK SMILES IDX 19 14 20 15 21 16 22 17 25 18 23 19 24 20 8 21 9 22 10 23
REMARK SMILES IDX 14 24 11 25 13 26 12 27
REMARK H PARENT 3 10
ROOT
ATOM      1  C   UNL     1       1.053  44.967  51.999  1.00  0.00     0.229 A 
ATOM      2  N   UNL     1       1.056  43.857  51.256  1.00  0.00    -0.217 NA
ATOM      3  C   UNL     1      -0.137  43.417  50.798  1.00  0.00     0.163 A 
ATOM      4  C   UNL     1      -1.330  44.053  51.052  1.00  0.00     0.164 A 
ATOM      5  C   UNL     1      -1.224  45.171  51.845  1.00  0.00     0.163 A 
ATOM      6  N   UNL     1      -0.055  45.652  52.327  1.00  0.00    -0.217 NA
ENDROOT
BRANCH   1   7
ATOM      7  N   UNL     1       2.213  45.506  52.523  1.00  0.00    -0.289 N 
ATOM      8  C   UNL     1       3.179  46.192  51.826  1.00  0.00     0.278 C 
ATOM      9  O   UNL     1       3.133  46.466  50.632  1.00  0.00    -0.267 OA
ATOM     10  H   UNL     1       2.272  45.399  53.520  1.00  0.00     0.173 HD
BRANCH   8  11
ATOM     11  C   UNL     1       4.324  46.608  52.677  1.00  0.00     0.150 A 
ATOM     12  C   UNL     1       4.348  46.869  54.079  1.00  0.00     0.056 A 
ATOM     13  N   UNL     1       5.556  46.782  52.162  1.00  0.00    -0.167 NA
ATOM     14  C   UNL     1       5.647  47.210  54.374  1.00  0.00     0.110 A 
ATOM     15  N   UNL     1       6.330  47.152  53.197  1.00  0.00    -0.269 N 
BRANCH  15  16
ATOM     16  C   UNL     1       7.736  47.395  52.949  1.00  0.00     0.107 C 
ATOM     17  C   UNL     1       8.618  47.147  54.181  1.00  0.00     0.027 C 
ATOM     18  C   UNL     1       8.405  46.537  51.874  1.00  0.00     0.027 C 
ATOM     19  C   UNL     1      10.014  46.833  53.640  1.00  0.00     0.002 C 
ATOM     20  C   UNL     1       9.885  46.784  52.122  1.00  0.00     0.002 C 
ENDBRANCH  15  16
ENDBRANCH   8  11
ENDBRANCH   1   7
BRANCH   4  21
ATOM     21  O   UNL     1      -2.572  43.654  50.650  1.00  0.00    -0.454 OA
BRANCH  21  22
ATOM     22  C   UNL     1      -2.852  43.715  49.306  1.00  0.00     0.127 A 
ATOM     23  C   UNL     1      -2.825  42.573  48.502  1.00  0.00     0.047 A 
ATOM     24  C   UNL     1      -3.093  44.970  48.747  1.00  0.00     0.047 A 
ATOM     25  C   UNL     1      -3.083  42.686  47.137  1.00  0.00     0.004 A 
ATOM     26  C   UNL     1      -3.351  45.079  47.380  1.00  0.00     0.004 A 
ATOM     27  C   UNL     1      -3.349  43.938  46.577  1.00  0.00     0.000 A 
ENDBRANCH  21  22
ENDBRANCH   4  21
TORSDOF 5
ENDMDL
MODEL 10
REMARK VINA RESULT:    -7.482      2.759      9.611
REMARK INTER + INTRA:         -10.297
REMARK INTER:                  -9.716
REMARK INTRA:                  -0.581
REMARK UNBOUND:                -0.628
REMARK SMILES O=C(Nc1ncc(Oc2ccccc2)cn1)c1ccn(C2CCCC2)n1
REMARK SMILES IDX 4 1 5 2 6 3 7 4 15 5 16 6 3 7 2 8 1 9 17 11 18 12 26 13
REMARK SMILES IDX 19 14 20 15 21 16 22 17 25 18 23 19 24 20 8 21 9 22 10 23
REMARK SMILES IDX 14 24 11 25 13 26 12 27
REMARK H PARENT 3 10
ROOT
ATOM      1  C   UNL     1       3.380  44.898  52.415  1.00  0.00     0.229 A 
ATOM      2  N   UNL     1       4.338  43.970  52.468  1.00  0.00    -0.217 NA
ATOM      3  C   UNL     1       5.570  44.328  52.046  1.00  0.00     0.163 A 
ATOM      4  C   UNL     1       5.877  45.586  51.580  1.00  0.00     0.164 A 
ATOM      5  C   UNL     1       4.815  46.458  51.544  1.00  0.00     0.163 A 
ATOM      6  N   UNL     1       3.564  46.147  51.956  1.00  0.00    -0.217 NA
ENDROOT
BRANCH   1   7
ATOM      7  N   UNL     1       2.082  44.642  52.816  1.00  0.00    -0.289 N 
ATOM      8  C   UNL     1       1.574  44.808  54.083  1.00  0.00     0.278 C 
ATOM      9  O   UNL     1       2.194  45.252  55.043  1.00  0.00    -0.267 OA
ATOM     10  H   UNL     1       1.490  44.361  52.054  1.00  0.00     0.173 HD
BRANCH   8  11
ATOM     11  C   UNL     1       0.147  44.406  54.194  1.00  0.00     0.150 A 
ATOM     12  C   UNL     1      -0.665  44.308  55.362  1.00  0.00     0.056 A 
ATOM     13  N   UNL     1      -0.577  44.079  53.108  1.00  0.00    -0.167 NA
ATOM     14  C   UNL     1      -1.904  43.903  54.923  1.00  0.00     0.110 A 
ATOM     15  N   UNL     1      -1.802  43.772  53.571  1.00  0.00    -0.269 N 
BRANCH  15  16
ATOM     16  C   UNL     1      -2.822  43.395  52.615  1.00  0.00     0.107 C 
ATOM     17  C   UNL     1      -3.396  44.589  51.841  1.00  0.00     0.027 C 
ATOM     18  C   UNL     1      -2.401  42.437  51.500  1.00  0.00     0.027 C 
ATOM     19  C   UNL     1      -3.935  44.017  50.528  1.00  0.00     0.002 C 
ATOM     20  C   UNL     1      -3.556  42.541  50.516  1.00  0.00     0.002 C 
ENDBRANCH  15  16
ENDBRANCH   8  11
ENDBRANCH   1   7
BRANCH   4  21
ATOM     21  O   UNL     1       7.087  46.013  51.112  1.00  0.00    -0.454 OA
BRANCH  21  22
ATOM     22  C   UNL     1       8.009  46.439  52.038  1.00  0.00     0.127 A 
ATOM     23  C   UNL     1       7.636  47.222  53.132  1.00  0.00     0.047 A 
ATOM     24  C   UNL     1       9.350  46.130  51.812  1.00  0.00     0.047 A 
ATOM     25  C   UNL     1       8.609  47.661  54.029  1.00  0.00     0.004 A 
ATOM     26  C   UNL     1      10.321  46.571  52.711  1.00  0.00     0.004 A 
ATOM     27  C   UNL     1       9.950  47.332  53.820  1.00  0.00     0.000 A 
ENDBRANCH  21  22
ENDBRANCH   4  21
TORSDOF 5
ENDMDL
