MODEL 1
REMARK VINA RESULT:   -10.455      0.000      0.000
REMARK INTER + INTRA:         -13.408
REMARK INTER:                 -13.205
REMARK INTRA:                  -0.203
REMARK UNBOUND:                -0.203
REMARK SMILES NS(=O)(=O)c1ccc(Nc2nc(-c3ccccc3)c3ccccc3n2)cc1
REMARK SMILES IDX 5 1 6 2 7 3 8 4 26 5 27 6 2 7 3 8 4 9 1 10 9 13 10 15 11 16
REMARK SMILES IDX 25 17 12 18 24 19 19 20 23 21 20 22 22 23 21 24 13 25 14 26
REMARK SMILES IDX 18 27 15 28 17 29 16 30
REMARK H PARENT 1 11 1 12 9 14
ROOT
ATOM      1  C   UNL     1       0.424  44.520  53.895  1.00  0.00     0.082 A 
ATOM      2  C   UNL     1       0.775  45.288  52.788  1.00  0.00     0.024 A 
ATOM      3  C   UNL     1       1.948  46.049  52.827  1.00  0.00     0.027 A 
ATOM      4  C   UNL     1       2.777  46.066  53.963  1.00  0.00     0.041 A 
ATOM      5  C   UNL     1       2.393  45.287  55.063  1.00  0.00     0.027 A 
ATOM      6  C   UNL     1       1.221  44.522  55.039  1.00  0.00     0.024 A 
ENDROOT
BRANCH   1   7
ATOM      7  S   UNL     1      -1.054  43.542  53.870  1.00  0.00     0.238 S 
ATOM      8  O   UNL     1      -1.570  43.454  55.214  1.00  0.00    -0.207 OA
ATOM      9  O   UNL     1      -1.865  43.961  52.749  1.00  0.00    -0.207 OA
BRANCH   7  10
ATOM     10  N   UNL     1      -0.448  42.030  53.442  1.00  0.00    -0.225 NA
ATOM     11  H   UNL     1      -1.134  41.318  53.694  1.00  0.00     0.137 HD
ATOM     12  H   UNL     1      -0.177  41.968  52.461  1.00  0.00     0.137 HD
ENDBRANCH   7  10
ENDBRANCH   1   7
BRANCH   4  13
ATOM     13  N   UNL     1       3.950  46.826  53.919  1.00  0.00    -0.324 N 
ATOM     14  H   UNL     1       3.937  47.722  54.384  1.00  0.00     0.170 HD
BRANCH  13  15
ATOM     15  C   UNL     1       5.238  46.587  53.450  1.00  0.00     0.228 A 
ATOM     16  N   UNL     1       5.469  45.825  52.381  1.00  0.00    -0.212 NA
ATOM     17  N   UNL     1       6.211  47.191  54.147  1.00  0.00    -0.213 NA
ATOM     18  C   UNL     1       6.751  45.646  51.993  1.00  0.00     0.084 A 
ATOM     19  C   UNL     1       7.479  47.026  53.751  1.00  0.00     0.076 A 
ATOM     20  C   UNL     1       7.834  46.247  52.648  1.00  0.00     0.027 A 
ATOM     21  C   UNL     1       8.488  47.661  54.466  1.00  0.00     0.029 A 
ATOM     22  C   UNL     1       9.199  46.137  52.275  1.00  0.00     0.012 A 
ATOM     23  C   UNL     1       9.835  47.547  54.109  1.00  0.00     0.002 A 
ATOM     24  C   UNL     1      10.191  46.784  53.007  1.00  0.00     0.001 A 
BRANCH  18  25
ATOM     25  C   UNL     1       6.892  44.763  50.825  1.00  0.00     0.001 A 
ATOM     26  C   UNL     1       5.943  43.759  50.572  1.00  0.00     0.010 A 
ATOM     27  C   UNL     1       7.985  44.880  49.951  1.00  0.00     0.010 A 
ATOM     28  C   UNL     1       6.068  42.915  49.467  1.00  0.00     0.001 A 
ATOM     29  C   UNL     1       8.112  44.035  48.845  1.00  0.00     0.001 A 
ATOM     30  C   UNL     1       7.152  43.055  48.602  1.00  0.00     0.000 A 
ENDBRANCH  18  25
ENDBRANCH  13  15
ENDBRANCH   4  13
TORSDOF 5
ENDMDL
MODEL 2
REMARK VINA RESULT:    -9.724      4.264      6.550
REMARK INTER + INTRA:         -12.485
REMARK INTER:                 -11.748
REMARK INTRA:                  -0.738
REMARK UNBOUND:                -0.203
REMARK SMILES NS(=O)(=O)c1ccc(Nc2nc(-c3ccccc3)c3ccccc3n2)cc1
REMARK SMILES IDX 5 1 6 2 7 3 8 4 26 5 27 6 2 7 3 8 4 9 1 10 9 13 10 15 11 16
REMARK SMILES IDX 25 17 12 18 24 19 19 20 23 21 20 22 22 23 21 24 13 25 14 26
REMARK SMILES IDX 18 27 15 28 17 29 16 30
REMARK H PARENT 1 11 1 12 9 14
ROOT
ATOM      1  C   UNL     1       3.876  40.453  46.728  1.00  0.00     0.082 A 
ATOM      2  C   UNL     1       4.750  41.241  45.983  1.00  0.00     0.024 A 
ATOM      3  C   UNL     1       5.727  41.992  46.646  1.00  0.00     0.027 A 
ATOM      4  C   UNL     1       5.840  41.980  48.048  1.00  0.00     0.041 A 
ATOM      5  C   UNL     1       4.942  41.181  48.768  1.00  0.00     0.027 A 
ATOM      6  C   UNL     1       3.959  40.425  48.119  1.00  0.00     0.024 A 
ENDROOT
BRANCH   1   7
ATOM      7  S   UNL     1       2.634  39.486  45.913  1.00  0.00     0.238 S 
ATOM      8  O   UNL     1       3.155  39.044  44.643  1.00  0.00    -0.207 OA
ATOM      9  O   UNL     1       2.050  38.580  46.876  1.00  0.00    -0.207 OA
BRANCH   7  10
ATOM     10  N   UNL     1       1.448  40.646  45.617  1.00  0.00    -0.225 NA
ATOM     11  H   UNL     1       1.879  41.571  45.647  1.00  0.00     0.137 HD
ATOM     12  H   UNL     1       0.941  40.489  44.747  1.00  0.00     0.137 HD
ENDBRANCH   7  10
ENDBRANCH   1   7
BRANCH   4  13
ATOM     13  N   UNL     1       6.860  42.732  48.639  1.00  0.00    -0.324 N 
ATOM     14  H   UNL     1       7.792  42.618  48.267  1.00  0.00     0.170 HD
BRANCH  13  15
ATOM     15  C   UNL     1       6.885  43.736  49.602  1.00  0.00     0.228 A 
ATOM     16  N   UNL     1       5.798  44.076  50.295  1.00  0.00    -0.212 NA
ATOM     17  N   UNL     1       8.082  44.312  49.783  1.00  0.00    -0.213 NA
ATOM     18  C   UNL     1       5.911  45.060  51.212  1.00  0.00     0.084 A 
ATOM     19  C   UNL     1       8.195  45.276  50.704  1.00  0.00     0.076 A 
ATOM     20  C   UNL     1       7.121  45.712  51.482  1.00  0.00     0.027 A 
ATOM     21  C   UNL     1       9.439  45.868  50.899  1.00  0.00     0.029 A 
ATOM     22  C   UNL     1       7.324  46.725  52.456  1.00  0.00     0.012 A 
ATOM     23  C   UNL     1       9.641  46.872  51.850  1.00  0.00     0.002 A 
ATOM     24  C   UNL     1       8.579  47.300  52.634  1.00  0.00     0.001 A 
BRANCH  18  25
ATOM     25  C   UNL     1       4.645  45.376  51.892  1.00  0.00     0.001 A 
ATOM     26  C   UNL     1       3.819  46.407  51.416  1.00  0.00     0.010 A 
ATOM     27  C   UNL     1       4.242  44.679  53.043  1.00  0.00     0.010 A 
ATOM     28  C   UNL     1       2.616  46.716  52.055  1.00  0.00     0.001 A 
ATOM     29  C   UNL     1       3.040  44.988  53.684  1.00  0.00     0.001 A 
ATOM     30  C   UNL     1       2.226  46.004  53.187  1.00  0.00     0.000 A 
ENDBRANCH  18  25
ENDBRANCH  13  15
ENDBRANCH   4  13
TORSDOF 5
ENDMDL
MODEL 3
REMARK VINA RESULT:    -9.563      2.337      4.797
REMARK INTER + INTRA:         -12.282
REMARK INTER:                 -12.097
REMARK INTRA:                  -0.185
REMARK UNBOUND:                -0.203
REMARK SMILES NS(=O)(=O)c1ccc(Nc2nc(-c3ccccc3)c3ccccc3n2)cc1
REMARK SMILES IDX 5 1 6 2 7 3 8 4 26 5 27 6 2 7 3 8 4 9 1 10 9 13 10 15 11 16
REMARK SMILES IDX 25 17 12 18 24 19 19 20 23 21 20 22 22 23 21 24 13 25 14 26
REMARK SMILES IDX 18 27 15 28 17 29 16 30
REMARK H PARENT 1 11 1 12 9 14
ROOT
ATOM      1  C   UNL     1      -0.528  44.822  55.750  1.00  0.00     0.082 A 
ATOM      2  C   UNL     1      -1.054  43.797  54.969  1.00  0.00     0.024 A 
ATOM      3  C   UNL     1      -0.206  43.087  54.110  1.00  0.00     0.027 A 
ATOM      4  C   UNL     1       1.163  43.393  54.010  1.00  0.00     0.041 A 
ATOM      5  C   UNL     1       1.659  44.434  54.806  1.00  0.00     0.027 A 
ATOM      6  C   UNL     1       0.824  45.154  55.668  1.00  0.00     0.024 A 
ENDROOT
BRANCH   1   7
ATOM      7  S   UNL     1      -1.578  45.732  56.850  1.00  0.00     0.238 S 
ATOM      8  O   UNL     1      -0.750  46.439  57.797  1.00  0.00    -0.207 OA
ATOM      9  O   UNL     1      -2.605  46.385  56.072  1.00  0.00    -0.207 OA
BRANCH   7  10
ATOM     10  N   UNL     1      -2.363  44.487  57.670  1.00  0.00    -0.225 NA
ATOM     11  H   UNL     1      -2.021  44.461  58.632  1.00  0.00     0.137 HD
ATOM     12  H   UNL     1      -3.379  44.556  57.628  1.00  0.00     0.137 HD
ENDBRANCH   7  10
ENDBRANCH   1   7
BRANCH   4  13
ATOM     13  N   UNL     1       1.955  42.622  53.153  1.00  0.00    -0.324 N 
ATOM     14  H   UNL     1       1.620  41.698  52.922  1.00  0.00     0.170 HD
BRANCH  13  15
ATOM     15  C   UNL     1       3.110  42.873  52.418  1.00  0.00     0.228 A 
ATOM     16  N   UNL     1       3.961  43.844  52.751  1.00  0.00    -0.212 NA
ATOM     17  N   UNL     1       3.297  42.058  51.370  1.00  0.00    -0.213 NA
ATOM     18  C   UNL     1       5.057  44.018  51.983  1.00  0.00     0.084 A 
ATOM     19  C   UNL     1       4.393  42.222  50.620  1.00  0.00     0.076 A 
ATOM     20  C   UNL     1       5.348  43.209  50.876  1.00  0.00     0.027 A 
ATOM     21  C   UNL     1       4.594  41.371  49.539  1.00  0.00     0.029 A 
ATOM     22  C   UNL     1       6.497  43.308  50.049  1.00  0.00     0.012 A 
ATOM     23  C   UNL     1       5.719  41.471  48.715  1.00  0.00     0.002 A 
ATOM     24  C   UNL     1       6.676  42.442  48.973  1.00  0.00     0.001 A 
BRANCH  18  25
ATOM     25  C   UNL     1       5.909  45.135  52.421  1.00  0.00     0.001 A 
ATOM     26  C   UNL     1       6.187  45.326  53.784  1.00  0.00     0.010 A 
ATOM     27  C   UNL     1       6.442  46.051  51.499  1.00  0.00     0.010 A 
ATOM     28  C   UNL     1       6.993  46.384  54.211  1.00  0.00     0.001 A 
ATOM     29  C   UNL     1       7.247  47.111  51.926  1.00  0.00     0.001 A 
ATOM     30  C   UNL     1       7.525  47.274  53.281  1.00  0.00     0.000 A 
ENDBRANCH  18  25
ENDBRANCH  13  15
ENDBRANCH   4  13
TORSDOF 5
ENDMDL
MODEL 4
REMARK VINA RESULT:    -9.479      1.791      2.434
REMARK INTER + INTRA:         -12.176
REMARK INTER:                 -12.302
REMARK INTRA:                   0.125
REMARK UNBOUND:                -0.203
REMARK SMILES NS(=O)(=O)c1ccc(Nc2nc(-c3ccccc3)c3ccccc3n2)cc1
REMARK SMILES IDX 5 1 6 2 7 3 8 4 26 5 27 6 2 7 3 8 4 9 1 10 9 13 10 15 11 16
REMARK SMILES IDX 25 17 12 18 24 19 19 20 23 21 20 22 22 23 21 24 13 25 14 26
REMARK SMILES IDX 18 27 15 28 17 29 16 30
REMARK H PARENT 1 11 1 12 9 14
ROOT
ATOM      1  C   UNL     1      -0.824  44.411  55.253  1.00  0.00     0.082 A 
ATOM      2  C   UNL     1      -0.157  45.131  56.241  1.00  0.00     0.024 A 
ATOM      3  C   UNL     1       1.230  45.291  56.153  1.00  0.00     0.027 A 
ATOM      4  C   UNL     1       1.970  44.732  55.095  1.00  0.00     0.041 A 
ATOM      5  C   UNL     1       1.270  44.009  54.120  1.00  0.00     0.027 A 
ATOM      6  C   UNL     1      -0.118  43.839  54.196  1.00  0.00     0.024 A 
ENDROOT
BRANCH   1   7
ATOM      7  S   UNL     1      -2.581  44.198  55.338  1.00  0.00     0.238 S 
ATOM      8  O   UNL     1      -3.171  45.427  55.811  1.00  0.00    -0.207 OA
ATOM      9  O   UNL     1      -3.024  43.534  54.133  1.00  0.00    -0.207 OA
BRANCH   7  10
ATOM     10  N   UNL     1      -2.721  43.047  56.559  1.00  0.00    -0.225 NA
ATOM     11  H   UNL     1      -2.575  43.504  57.460  1.00  0.00     0.137 HD
ATOM     12  H   UNL     1      -3.601  42.534  56.530  1.00  0.00     0.137 HD
ENDBRANCH   7  10
ENDBRANCH   1   7
BRANCH   4  13
ATOM     13  N   UNL     1       3.349  44.959  55.056  1.00  0.00    -0.324 N 
ATOM     14  H   UNL     1       3.834  45.007  55.940  1.00  0.00     0.170 HD
BRANCH  13  15
ATOM     15  C   UNL     1       4.286  45.036  54.030  1.00  0.00     0.228 A 
ATOM     16  N   UNL     1       4.318  44.147  53.036  1.00  0.00    -0.212 NA
ATOM     17  N   UNL     1       5.133  46.072  54.118  1.00  0.00    -0.213 NA
ATOM     18  C   UNL     1       5.260  44.297  52.080  1.00  0.00     0.084 A 
ATOM     19  C   UNL     1       6.054  46.227  53.161  1.00  0.00     0.076 A 
ATOM     20  C   UNL     1       6.179  45.355  52.077  1.00  0.00     0.027 A 
ATOM     21  C   UNL     1       6.927  47.307  53.245  1.00  0.00     0.029 A 
ATOM     22  C   UNL     1       7.168  45.598  51.089  1.00  0.00     0.012 A 
ATOM     23  C   UNL     1       7.909  47.545  52.280  1.00  0.00     0.002 A 
ATOM     24  C   UNL     1       8.028  46.688  51.195  1.00  0.00     0.001 A 
BRANCH  18  25
ATOM     25  C   UNL     1       5.224  43.245  51.052  1.00  0.00     0.001 A 
ATOM     26  C   UNL     1       4.252  42.233  51.102  1.00  0.00     0.010 A 
ATOM     27  C   UNL     1       6.170  43.208  50.014  1.00  0.00     0.010 A 
ATOM     28  C   UNL     1       4.210  41.230  50.131  1.00  0.00     0.001 A 
ATOM     29  C   UNL     1       6.130  42.203  49.044  1.00  0.00     0.001 A 
ATOM     30  C   UNL     1       5.147  41.218  49.101  1.00  0.00     0.000 A 
ENDBRANCH  18  25
ENDBRANCH  13  15
ENDBRANCH   4  13
TORSDOF 5
ENDMDL
MODEL 5
REMARK VINA RESULT:    -9.471      1.385      1.868
REMARK INTER + INTRA:         -12.166
REMARK INTER:                 -12.122
REMARK INTRA:                  -0.044
REMARK UNBOUND:                -0.203
REMARK SMILES NS(=O)(=O)c1ccc(Nc2nc(-c3ccccc3)c3ccccc3n2)cc1
REMARK SMILES IDX 5 1 6 2 7 3 8 4 26 5 27 6 2 7 3 8 4 9 1 10 9 13 10 15 11 16
REMARK SMILES IDX 25 17 12 18 24 19 19 20 23 21 20 22 22 23 21 24 13 25 14 26
REMARK SMILES IDX 18 27 15 28 17 29 16 30
REMARK H PARENT 1 11 1 12 9 14
ROOT
ATOM      1  C   UNL     1      -0.760  44.657  53.581  1.00  0.00     0.082 A 
ATOM      2  C   UNL     1      -0.117  45.179  52.462  1.00  0.00     0.024 A 
ATOM      3  C   UNL     1       1.163  45.725  52.600  1.00  0.00     0.027 A 
ATOM      4  C   UNL     1       1.814  45.770  53.846  1.00  0.00     0.041 A 
ATOM      5  C   UNL     1       1.138  45.241  54.954  1.00  0.00     0.027 A 
ATOM      6  C   UNL     1      -0.144  44.693  54.832  1.00  0.00     0.024 A 
ENDROOT
BRANCH   1   7
ATOM      7  S   UNL     1      -2.380  43.953  53.433  1.00  0.00     0.238 S 
ATOM      8  O   UNL     1      -2.819  43.530  54.740  1.00  0.00    -0.207 OA
ATOM      9  O   UNL     1      -3.176  44.806  52.580  1.00  0.00    -0.207 OA
BRANCH   7  10
ATOM     10  N   UNL     1      -2.063  42.576  52.516  1.00  0.00    -0.225 NA
ATOM     11  H   UNL     1      -1.145  42.212  52.775  1.00  0.00     0.137 HD
ATOM     12  H   UNL     1      -2.790  41.866  52.593  1.00  0.00     0.137 HD
ENDBRANCH   7  10
ENDBRANCH   1   7
BRANCH   4  13
ATOM     13  N   UNL     1       3.105  46.304  53.903  1.00  0.00    -0.324 N 
ATOM     14  H   UNL     1       3.318  46.914  54.678  1.00  0.00     0.170 HD
BRANCH  13  15
ATOM     15  C   UNL     1       4.266  46.102  53.163  1.00  0.00     0.228 A 
ATOM     16  N   UNL     1       4.414  45.052  52.355  1.00  0.00    -0.212 NA
ATOM     17  N   UNL     1       5.204  47.048  53.320  1.00  0.00    -0.213 NA
ATOM     18  C   UNL     1       5.573  44.934  51.673  1.00  0.00     0.084 A 
ATOM     19  C   UNL     1       6.345  46.937  52.629  1.00  0.00     0.076 A 
ATOM     20  C   UNL     1       6.606  45.877  51.758  1.00  0.00     0.027 A 
ATOM     21  C   UNL     1       7.314  47.923  52.783  1.00  0.00     0.029 A 
ATOM     22  C   UNL     1       7.831  45.840  51.044  1.00  0.00     0.012 A 
ATOM     23  C   UNL     1       8.527  47.885  52.089  1.00  0.00     0.002 A 
ATOM     24  C   UNL     1       8.785  46.840  51.213  1.00  0.00     0.001 A 
BRANCH  18  25
ATOM     25  C   UNL     1       5.642  43.724  50.838  1.00  0.00     0.001 A 
ATOM     26  C   UNL     1       6.508  43.668  49.735  1.00  0.00     0.010 A 
ATOM     27  C   UNL     1       4.831  42.608  51.104  1.00  0.00     0.010 A 
ATOM     28  C   UNL     1       6.580  42.525  48.935  1.00  0.00     0.001 A 
ATOM     29  C   UNL     1       4.901  41.465  50.304  1.00  0.00     0.001 A 
ATOM     30  C   UNL     1       5.778  41.423  49.223  1.00  0.00     0.000 A 
ENDBRANCH  18  25
ENDBRANCH  13  15
ENDBRANCH   4  13
TORSDOF 5
ENDMDL
MODEL 6
REMARK VINA RESULT:    -9.400      1.841      4.241
REMARK INTER + INTRA:         -12.076
REMARK INTER:                 -11.494
REMARK INTRA:                  -0.583
REMARK UNBOUND:                -0.203
REMARK SMILES NS(=O)(=O)c1ccc(Nc2nc(-c3ccccc3)c3ccccc3n2)cc1
REMARK SMILES IDX 5 1 6 2 7 3 8 4 26 5 27 6 2 7 3 8 4 9 1 10 9 13 10 15 11 16
REMARK SMILES IDX 25 17 12 18 24 19 19 20 23 21 20 22 22 23 21 24 13 25 14 26
REMARK SMILES IDX 18 27 15 28 17 29 16 30
REMARK H PARENT 1 11 1 12 9 14
ROOT
ATOM      1  C   UNL     1      -1.075  43.230  52.428  1.00  0.00     0.082 A 
ATOM      2  C   UNL     1      -0.443  44.434  52.126  1.00  0.00     0.024 A 
ATOM      3  C   UNL     1       0.903  44.605  52.471  1.00  0.00     0.027 A 
ATOM      4  C   UNL     1       1.629  43.595  53.127  1.00  0.00     0.041 A 
ATOM      5  C   UNL     1       0.962  42.398  53.421  1.00  0.00     0.027 A 
ATOM      6  C   UNL     1      -0.384  42.212  53.083  1.00  0.00     0.024 A 
ENDROOT
BRANCH   1   7
ATOM      7  S   UNL     1      -2.776  42.984  51.996  1.00  0.00     0.238 S 
ATOM      8  O   UNL     1      -3.581  43.167  53.179  1.00  0.00    -0.207 OA
ATOM      9  O   UNL     1      -3.042  43.678  50.756  1.00  0.00    -0.207 OA
BRANCH   7  10
ATOM     10  N   UNL     1      -2.788  41.347  51.603  1.00  0.00    -0.225 NA
ATOM     11  H   UNL     1      -3.330  41.218  50.747  1.00  0.00     0.137 HD
ATOM     12  H   UNL     1      -1.855  40.944  51.527  1.00  0.00     0.137 HD
ENDBRANCH   7  10
ENDBRANCH   1   7
BRANCH   4  13
ATOM     13  N   UNL     1       2.978  43.826  53.414  1.00  0.00    -0.324 N 
ATOM     14  H   UNL     1       3.259  43.773  54.382  1.00  0.00     0.170 HD
BRANCH  13  15
ATOM     15  C   UNL     1       4.112  44.020  52.631  1.00  0.00     0.228 A 
ATOM     16  N   UNL     1       5.035  44.932  52.939  1.00  0.00    -0.212 NA
ATOM     17  N   UNL     1       4.204  43.213  51.564  1.00  0.00    -0.213 NA
ATOM     18  C   UNL     1       6.105  45.053  52.125  1.00  0.00     0.084 A 
ATOM     19  C   UNL     1       5.274  43.323  50.769  1.00  0.00     0.076 A 
ATOM     20  C   UNL     1       6.297  44.246  50.996  1.00  0.00     0.027 A 
ATOM     21  C   UNL     1       5.375  42.480  49.668  1.00  0.00     0.029 A 
ATOM     22  C   UNL     1       7.413  44.290  50.120  1.00  0.00     0.012 A 
ATOM     23  C   UNL     1       6.467  42.526  48.796  1.00  0.00     0.002 A 
ATOM     24  C   UNL     1       7.492  43.433  49.025  1.00  0.00     0.001 A 
BRANCH  18  25
ATOM     25  C   UNL     1       7.041  46.110  52.541  1.00  0.00     0.001 A 
ATOM     26  C   UNL     1       7.583  46.112  53.836  1.00  0.00     0.010 A 
ATOM     27  C   UNL     1       7.396  47.153  51.670  1.00  0.00     0.010 A 
ATOM     28  C   UNL     1       8.471  47.111  54.241  1.00  0.00     0.001 A 
ATOM     29  C   UNL     1       8.283  48.154  52.075  1.00  0.00     0.001 A 
ATOM     30  C   UNL     1       8.823  48.130  53.359  1.00  0.00     0.000 A 
ENDBRANCH  18  25
ENDBRANCH  13  15
ENDBRANCH   4  13
TORSDOF 5
ENDMDL
MODEL 7
REMARK VINA RESULT:    -9.360      4.522      7.102
REMARK INTER + INTRA:         -12.026
REMARK INTER:                 -11.569
REMARK INTRA:                  -0.456
REMARK UNBOUND:                -0.203
REMARK SMILES NS(=O)(=O)c1ccc(Nc2nc(-c3ccccc3)c3ccccc3n2)cc1
REMARK SMILES IDX 5 1 6 2 7 3 8 4 26 5 27 6 2 7 3 8 4 9 1 10 9 13 10 15 11 16
REMARK SMILES IDX 25 17 12 18 24 19 19 20 23 21 20 22 22 23 21 24 13 25 14 26
REMARK SMILES IDX 18 27 15 28 17 29 16 30
REMARK H PARENT 1 11 1 12 9 14
ROOT
ATOM      1  C   UNL     1       4.281  40.724  46.423  1.00  0.00     0.082 A 
ATOM      2  C   UNL     1       3.730  40.350  47.646  1.00  0.00     0.024 A 
ATOM      3  C   UNL     1       4.268  40.872  48.828  1.00  0.00     0.027 A 
ATOM      4  C   UNL     1       5.360  41.758  48.811  1.00  0.00     0.041 A 
ATOM      5  C   UNL     1       5.894  42.111  47.565  1.00  0.00     0.027 A 
ATOM      6  C   UNL     1       5.368  41.595  46.374  1.00  0.00     0.024 A 
ENDROOT
BRANCH   1   7
ATOM      7  S   UNL     1       3.615  40.082  44.911  1.00  0.00     0.238 S 
ATOM      8  O   UNL     1       4.686  39.965  43.951  1.00  0.00    -0.207 OA
ATOM      9  O   UNL     1       2.726  38.988  45.227  1.00  0.00    -0.207 OA
BRANCH   7  10
ATOM     10  N   UNL     1       2.613  41.345  44.425  1.00  0.00    -0.225 NA
ATOM     11  H   UNL     1       2.727  42.124  45.075  1.00  0.00     0.137 HD
ATOM     12  H   UNL     1       2.765  41.630  43.458  1.00  0.00     0.137 HD
ENDBRANCH   7  10
ENDBRANCH   1   7
BRANCH   4  13
ATOM     13  N   UNL     1       5.825  42.263  50.029  1.00  0.00    -0.324 N 
ATOM     14  H   UNL     1       6.521  41.720  50.518  1.00  0.00     0.170 HD
BRANCH  13  15
ATOM     15  C   UNL     1       5.624  43.454  50.720  1.00  0.00     0.228 A 
ATOM     16  N   UNL     1       6.640  44.163  51.214  1.00  0.00    -0.212 NA
ATOM     17  N   UNL     1       4.342  43.830  50.833  1.00  0.00    -0.213 NA
ATOM     18  C   UNL     1       6.356  45.308  51.870  1.00  0.00     0.084 A 
ATOM     19  C   UNL     1       4.064  44.974  51.469  1.00  0.00     0.076 A 
ATOM     20  C   UNL     1       5.050  45.791  52.027  1.00  0.00     0.027 A 
ATOM     21  C   UNL     1       2.736  45.370  51.578  1.00  0.00     0.029 A 
ATOM     22  C   UNL     1       4.679  47.002  52.668  1.00  0.00     0.012 A 
ATOM     23  C   UNL     1       2.365  46.556  52.217  1.00  0.00     0.002 A 
ATOM     24  C   UNL     1       3.342  47.378  52.762  1.00  0.00     0.001 A 
BRANCH  18  25
ATOM     25  C   UNL     1       7.546  45.991  52.400  1.00  0.00     0.001 A 
ATOM     26  C   UNL     1       8.678  46.181  51.590  1.00  0.00     0.010 A 
ATOM     27  C   UNL     1       7.595  46.446  53.728  1.00  0.00     0.010 A 
ATOM     28  C   UNL     1       9.814  46.827  52.084  1.00  0.00     0.001 A 
ATOM     29  C   UNL     1       8.732  47.091  54.223  1.00  0.00     0.001 A 
ATOM     30  C   UNL     1       9.838  47.285  53.399  1.00  0.00     0.000 A 
ENDBRANCH  18  25
ENDBRANCH  13  15
ENDBRANCH   4  13
TORSDOF 5
ENDMDL
MODEL 8
REMARK VINA RESULT:    -9.148      1.758      4.183
REMARK INTER + INTRA:         -11.757
REMARK INTER:                 -11.355
REMARK INTRA:                  -0.403
REMARK UNBOUND:                -0.203
REMARK SMILES NS(=O)(=O)c1ccc(Nc2nc(-c3ccccc3)c3ccccc3n2)cc1
REMARK SMILES IDX 5 1 6 2 7 3 8 4 26 5 27 6 2 7 3 8 4 9 1 10 9 13 10 15 11 16
REMARK SMILES IDX 25 17 12 18 24 19 19 20 23 21 20 22 22 23 21 24 13 25 14 26
REMARK SMILES IDX 18 27 15 28 17 29 16 30
REMARK H PARENT 1 11 1 12 9 14
ROOT
ATOM      1  C   UNL     1      -1.210  44.269  54.875  1.00  0.00     0.082 A 
ATOM      2  C   UNL     1      -0.526  45.075  55.782  1.00  0.00     0.024 A 
ATOM      3  C   UNL     1       0.869  45.157  55.708  1.00  0.00     0.027 A 
ATOM      4  C   UNL     1       1.599  44.436  54.745  1.00  0.00     0.041 A 
ATOM      5  C   UNL     1       0.881  43.631  53.851  1.00  0.00     0.027 A 
ATOM      6  C   UNL     1      -0.514  43.537  53.914  1.00  0.00     0.024 A 
ENDROOT
BRANCH   1   7
ATOM      7  S   UNL     1      -2.977  44.152  54.943  1.00  0.00     0.238 S 
ATOM      8  O   UNL     1      -3.337  43.254  56.014  1.00  0.00    -0.207 OA
ATOM      9  O   UNL     1      -3.532  45.481  54.820  1.00  0.00    -0.207 OA
BRANCH   7  10
ATOM     10  N   UNL     1      -3.318  43.388  53.482  1.00  0.00    -0.225 NA
ATOM     11  H   UNL     1      -4.300  43.547  53.249  1.00  0.00     0.137 HD
ATOM     12  H   UNL     1      -2.697  43.670  52.725  1.00  0.00     0.137 HD
ENDBRANCH   7  10
ENDBRANCH   1   7
BRANCH   4  13
ATOM     13  N   UNL     1       2.988  44.591  54.711  1.00  0.00    -0.324 N 
ATOM     14  H   UNL     1       3.462  44.700  55.596  1.00  0.00     0.170 HD
BRANCH  13  15
ATOM     15  C   UNL     1       3.943  44.525  53.701  1.00  0.00     0.228 A 
ATOM     16  N   UNL     1       5.019  45.312  53.695  1.00  0.00    -0.212 NA
ATOM     17  N   UNL     1       3.699  43.606  52.756  1.00  0.00    -0.213 NA
ATOM     18  C   UNL     1       5.896  45.181  52.677  1.00  0.00     0.084 A 
ATOM     19  C   UNL     1       4.578  43.467  51.757  1.00  0.00     0.076 A 
ATOM     20  C   UNL     1       5.736  44.240  51.651  1.00  0.00     0.027 A 
ATOM     21  C   UNL     1       4.331  42.507  50.782  1.00  0.00     0.029 A 
ATOM     22  C   UNL     1       6.633  44.020  50.574  1.00  0.00     0.012 A 
ATOM     23  C   UNL     1       5.207  42.292  49.714  1.00  0.00     0.002 A 
ATOM     24  C   UNL     1       6.364  43.050  49.611  1.00  0.00     0.001 A 
BRANCH  18  25
ATOM     25  C   UNL     1       7.027  46.120  52.753  1.00  0.00     0.001 A 
ATOM     26  C   UNL     1       7.001  47.326  52.035  1.00  0.00     0.010 A 
ATOM     27  C   UNL     1       8.167  45.826  53.519  1.00  0.00     0.010 A 
ATOM     28  C   UNL     1       8.070  48.223  52.099  1.00  0.00     0.001 A 
ATOM     29  C   UNL     1       9.238  46.722  53.582  1.00  0.00     0.001 A 
ATOM     30  C   UNL     1       9.186  47.922  52.875  1.00  0.00     0.000 A 
ENDBRANCH  18  25
ENDBRANCH  13  15
ENDBRANCH   4  13
TORSDOF 5
ENDMDL
MODEL 9
REMARK VINA RESULT:    -8.945      4.706      7.370
REMARK INTER + INTRA:         -11.502
REMARK INTER:                 -11.290
REMARK INTRA:                  -0.212
REMARK UNBOUND:                -0.203
REMARK SMILES NS(=O)(=O)c1ccc(Nc2nc(-c3ccccc3)c3ccccc3n2)cc1
REMARK SMILES IDX 5 1 6 2 7 3 8 4 26 5 27 6 2 7 3 8 4 9 1 10 9 13 10 15 11 16
REMARK SMILES IDX 25 17 12 18 24 19 19 20 23 21 20 22 22 23 21 24 13 25 14 26
REMARK SMILES IDX 18 27 15 28 17 29 16 30
REMARK H PARENT 1 11 1 12 9 14
ROOT
ATOM      1  C   UNL     1       3.973  40.633  45.983  1.00  0.00     0.082 A 
ATOM      2  C   UNL     1       3.557  40.257  47.258  1.00  0.00     0.024 A 
ATOM      3  C   UNL     1       4.254  40.735  48.374  1.00  0.00     0.027 A 
ATOM      4  C   UNL     1       5.371  41.578  48.238  1.00  0.00     0.041 A 
ATOM      5  C   UNL     1       5.767  41.933  46.942  1.00  0.00     0.027 A 
ATOM      6  C   UNL     1       5.082  41.461  45.816  1.00  0.00     0.024 A 
ENDROOT
BRANCH   1   7
ATOM      7  S   UNL     1       3.105  40.046  44.554  1.00  0.00     0.238 S 
ATOM      8  O   UNL     1       3.002  38.610  44.636  1.00  0.00    -0.207 OA
ATOM      9  O   UNL     1       1.961  40.899  44.327  1.00  0.00    -0.207 OA
BRANCH   7  10
ATOM     10  N   UNL     1       4.193  40.423  43.324  1.00  0.00    -0.225 NA
ATOM     11  H   UNL     1       3.724  41.022  42.643  1.00  0.00     0.137 HD
ATOM     12  H   UNL     1       5.058  40.839  43.666  1.00  0.00     0.137 HD
ENDBRANCH   7  10
ENDBRANCH   1   7
BRANCH   4  13
ATOM     13  N   UNL     1       5.999  42.041  49.399  1.00  0.00    -0.324 N 
ATOM     14  H   UNL     1       6.969  41.795  49.528  1.00  0.00     0.170 HD
BRANCH  13  15
ATOM     15  C   UNL     1       5.616  42.897  50.428  1.00  0.00     0.228 A 
ATOM     16  N   UNL     1       6.392  43.903  50.833  1.00  0.00    -0.212 NA
ATOM     17  N   UNL     1       4.413  42.636  50.957  1.00  0.00    -0.213 NA
ATOM     18  C   UNL     1       5.943  44.685  51.838  1.00  0.00     0.084 A 
ATOM     19  C   UNL     1       3.963  43.424  51.941  1.00  0.00     0.076 A 
ATOM     20  C   UNL     1       4.694  44.502  52.445  1.00  0.00     0.027 A 
ATOM     21  C   UNL     1       2.710  43.160  52.485  1.00  0.00     0.029 A 
ATOM     22  C   UNL     1       4.141  45.306  53.476  1.00  0.00     0.012 A 
ATOM     23  C   UNL     1       2.166  43.944  53.507  1.00  0.00     0.002 A 
ATOM     24  C   UNL     1       2.883  45.023  54.002  1.00  0.00     0.001 A 
BRANCH  18  25
ATOM     25  C   UNL     1       6.891  45.742  52.227  1.00  0.00     0.001 A 
ATOM     26  C   UNL     1       7.564  46.490  51.248  1.00  0.00     0.010 A 
ATOM     27  C   UNL     1       7.168  46.012  53.577  1.00  0.00     0.010 A 
ATOM     28  C   UNL     1       8.467  47.494  51.606  1.00  0.00     0.001 A 
ATOM     29  C   UNL     1       8.072  47.015  53.936  1.00  0.00     0.001 A 
ATOM     30  C   UNL     1       8.718  47.758  52.951  1.00  0.00     0.000 A 
ENDBRANCH  18  25
ENDBRANCH  13  15
ENDBRANCH   4  13
TORSDOF 5
ENDMDL
