MODEL 1
REMARK VINA RESULT:    -8.844      0.000      0.000
REMARK INTER + INTRA:         -12.684
REMARK INTER:                 -11.429
REMARK INTRA:                  -1.255
REMARK UNBOUND:                -1.255
REMARK SMILES O=C(Nc1ccc2nncn2c1)c1c(Cl)cccc1OCC1CC1
REMARK SMILES IDX 13 1 14 2 15 3 16 4 17 5 18 6 19 7 2 8 3 9 1 10 4 12 5 13
REMARK SMILES IDX 12 14 6 15 11 16 7 17 10 18 8 19 9 20 20 21 21 22 22 23
REMARK SMILES IDX 23 24 24 25
REMARK H PARENT 3 11
ROOT
ATOM      1  C   UNL     1       7.505  46.033  52.143  1.00  0.00     0.100 A 
ATOM      2  C   UNL     1       8.190  46.563  53.248  1.00  0.00     0.057 A 
ATOM      3  Cl  UNL     1       7.428  46.923  54.760  1.00  0.00    -0.083 Cl
ATOM      4  C   UNL     1       9.572  46.767  53.186  1.00  0.00     0.021 A 
ATOM      5  C   UNL     1      10.278  46.442  52.032  1.00  0.00     0.005 A 
ATOM      6  C   UNL     1       9.612  45.898  50.934  1.00  0.00     0.047 A 
ATOM      7  C   UNL     1       8.228  45.690  50.976  1.00  0.00     0.133 A 
ENDROOT
BRANCH   1   8
ATOM      8  C   UNL     1       6.021  45.870  52.189  1.00  0.00     0.260 C 
ATOM      9  N   UNL     1       5.576  44.644  52.658  1.00  0.00    -0.320 N 
ATOM     10  O   UNL     1       5.305  46.789  51.808  1.00  0.00    -0.269 OA
ATOM     11  H   UNL     1       6.299  43.945  52.794  1.00  0.00     0.170 HD
BRANCH   9  12
ATOM     12  C   UNL     1       4.279  44.223  52.832  1.00  0.00     0.058 C 
ATOM     13  C   UNL     1       3.820  43.131  51.966  1.00  0.00     0.031 C 
ATOM     14  C   UNL     1       3.408  44.725  53.728  1.00  0.00     0.120 C 
ATOM     15  C   UNL     1       2.569  42.633  52.042  1.00  0.00     0.052 C 
ATOM     16  N   UNL     1       2.122  44.201  53.795  1.00  0.00    -0.287 N 
ATOM     17  C   UNL     1       1.661  43.175  52.990  1.00  0.00     0.160 A 
ATOM     18  C   UNL     1       1.063  44.524  54.595  1.00  0.00     0.230 A 
ATOM     19  N   UNL     1       0.410  42.905  53.293  1.00  0.00    -0.131 NA
ATOM     20  N   UNL     1       0.033  43.759  54.309  1.00  0.00    -0.138 NA
ENDBRANCH   9  12
ENDBRANCH   1   8
BRANCH   7  21
ATOM     21  O   UNL     1       7.513  45.137  49.946  1.00  0.00    -0.492 OA
BRANCH  21  22
ATOM     22  C   UNL     1       7.817  43.801  49.547  1.00  0.00     0.233 C 
BRANCH  22  23
ATOM     23  C   UNL     1       6.552  43.005  49.649  1.00  0.00     0.027 C 
ATOM     24  C   UNL     1       6.598  41.524  49.926  1.00  0.00     0.007 C 
ATOM     25  C   UNL     1       6.170  42.022  48.572  1.00  0.00     0.007 C 
ENDBRANCH  22  23
ENDBRANCH  21  22
ENDBRANCH   7  21
TORSDOF 5
ENDMDL
MODEL 2
REMARK VINA RESULT:    -8.504      0.597      1.313
REMARK INTER + INTRA:         -12.245
REMARK INTER:                 -11.064
REMARK INTRA:                  -1.181
REMARK UNBOUND:                -1.255
REMARK SMILES O=C(Nc1ccc2nncn2c1)c1c(Cl)cccc1OCC1CC1
REMARK SMILES IDX 13 1 14 2 15 3 16 4 17 5 18 6 19 7 2 8 3 9 1 10 4 12 5 13
REMARK SMILES IDX 12 14 6 15 11 16 7 17 10 18 8 19 9 20 20 21 21 22 22 23
REMARK SMILES IDX 23 24 24 25
REMARK H PARENT 3 11
ROOT
ATOM      1  C   UNL     1       7.503  46.096  52.215  1.00  0.00     0.100 A 
ATOM      2  C   UNL     1       8.276  46.632  53.258  1.00  0.00     0.057 A 
ATOM      3  Cl  UNL     1       7.617  47.109  54.786  1.00  0.00    -0.083 Cl
ATOM      4  C   UNL     1       9.662  46.746  53.117  1.00  0.00     0.021 A 
ATOM      5  C   UNL     1      10.286  46.323  51.948  1.00  0.00     0.005 A 
ATOM      6  C   UNL     1       9.532  45.773  50.912  1.00  0.00     0.047 A 
ATOM      7  C   UNL     1       8.142  45.654  51.032  1.00  0.00     0.133 A 
ENDROOT
BRANCH   1   8
ATOM      8  C   UNL     1       6.017  46.029  52.342  1.00  0.00     0.260 C 
ATOM      9  N   UNL     1       5.520  44.839  52.850  1.00  0.00    -0.320 N 
ATOM     10  O   UNL     1       5.341  46.989  51.987  1.00  0.00    -0.269 OA
ATOM     11  H   UNL     1       6.203  44.097  52.958  1.00  0.00     0.170 HD
BRANCH   9  12
ATOM     12  C   UNL     1       4.209  44.505  53.098  1.00  0.00     0.058 C 
ATOM     13  C   UNL     1       3.604  45.071  54.309  1.00  0.00     0.031 C 
ATOM     14  C   UNL     1       3.445  43.711  52.323  1.00  0.00     0.120 C 
ATOM     15  C   UNL     1       2.327  44.816  54.658  1.00  0.00     0.052 C 
ATOM     16  N   UNL     1       2.131  43.458  52.697  1.00  0.00    -0.287 N 
ATOM     17  C   UNL     1       1.534  43.976  53.833  1.00  0.00     0.160 A 
ATOM     18  C   UNL     1       1.160  42.702  52.103  1.00  0.00     0.230 A 
ATOM     19  N   UNL     1       0.291  43.554  53.908  1.00  0.00    -0.131 NA
ATOM     20  N   UNL     1       0.054  42.749  52.814  1.00  0.00    -0.138 NA
ENDBRANCH   9  12
ENDBRANCH   1   8
BRANCH   7  21
ATOM     21  O   UNL     1       7.342  45.101  50.067  1.00  0.00    -0.492 OA
BRANCH  21  22
ATOM     22  C   UNL     1       7.648  43.788  49.600  1.00  0.00     0.233 C 
BRANCH  22  23
ATOM     23  C   UNL     1       6.400  42.968  49.717  1.00  0.00     0.027 C 
ATOM     24  C   UNL     1       6.477  41.491  50.007  1.00  0.00     0.007 C 
ATOM     25  C   UNL     1       6.031  41.968  48.652  1.00  0.00     0.007 C 
ENDBRANCH  22  23
ENDBRANCH  21  22
ENDBRANCH   7  21
TORSDOF 5
ENDMDL
MODEL 3
REMARK VINA RESULT:    -8.438      2.057      4.081
REMARK INTER + INTRA:         -12.160
REMARK INTER:                 -11.383
REMARK INTRA:                  -0.777
REMARK UNBOUND:                -1.255
REMARK SMILES O=C(Nc1ccc2nncn2c1)c1c(Cl)cccc1OCC1CC1
REMARK SMILES IDX 13 1 14 2 15 3 16 4 17 5 18 6 19 7 2 8 3 9 1 10 4 12 5 13
REMARK SMILES IDX 12 14 6 15 11 16 7 17 10 18 8 19 9 20 20 21 21 22 22 23
REMARK SMILES IDX 23 24 24 25
REMARK H PARENT 3 11
ROOT
ATOM      1  C   UNL     1       5.771  44.361  50.651  1.00  0.00     0.100 A 
ATOM      2  C   UNL     1       5.779  43.081  50.074  1.00  0.00     0.057 A 
ATOM      3  Cl  UNL     1       4.399  42.036  50.051  1.00  0.00    -0.083 Cl
ATOM      4  C   UNL     1       6.922  42.613  49.419  1.00  0.00     0.021 A 
ATOM      5  C   UNL     1       8.057  43.414  49.329  1.00  0.00     0.005 A 
ATOM      6  C   UNL     1       8.055  44.693  49.883  1.00  0.00     0.047 A 
ATOM      7  C   UNL     1       6.921  45.179  50.546  1.00  0.00     0.133 A 
ENDROOT
BRANCH   1   8
ATOM      8  C   UNL     1       4.571  44.837  51.401  1.00  0.00     0.260 C 
ATOM      9  N   UNL     1       4.415  44.301  52.670  1.00  0.00    -0.320 N 
ATOM     10  O   UNL     1       3.807  45.634  50.867  1.00  0.00    -0.269 OA
ATOM     11  H   UNL     1       5.055  43.549  52.902  1.00  0.00     0.170 HD
BRANCH   9  12
ATOM     12  C   UNL     1       3.429  44.571  53.589  1.00  0.00     0.058 C 
ATOM     13  C   UNL     1       3.811  45.395  54.742  1.00  0.00     0.031 C 
ATOM     14  C   UNL     1       2.153  44.147  53.513  1.00  0.00     0.120 C 
ATOM     15  C   UNL     1       2.932  45.726  55.709  1.00  0.00     0.052 C 
ATOM     16  N   UNL     1       1.259  44.496  54.518  1.00  0.00    -0.287 N 
ATOM     17  C   UNL     1       1.590  45.269  55.616  1.00  0.00     0.160 A 
ATOM     18  C   UNL     1      -0.066  44.203  54.681  1.00  0.00     0.230 A 
ATOM     19  N   UNL     1       0.533  45.424  56.382  1.00  0.00    -0.131 NA
ATOM     20  N   UNL     1      -0.515  44.749  55.790  1.00  0.00    -0.138 NA
ENDBRANCH   9  12
ENDBRANCH   1   8
BRANCH   7  21
ATOM     21  O   UNL     1       6.841  46.433  51.091  1.00  0.00    -0.492 OA
BRANCH  21  22
ATOM     22  C   UNL     1       7.332  46.634  52.415  1.00  0.00     0.233 C 
BRANCH  22  23
ATOM     23  C   UNL     1       8.664  47.311  52.301  1.00  0.00     0.027 C 
ATOM     24  C   UNL     1       9.939  46.530  52.487  1.00  0.00     0.007 C 
ATOM     25  C   UNL     1       9.519  47.540  53.520  1.00  0.00     0.007 C 
ENDBRANCH  22  23
ENDBRANCH  21  22
ENDBRANCH   7  21
TORSDOF 5
ENDMDL
MODEL 4
REMARK VINA RESULT:    -8.345      2.346      4.335
REMARK INTER + INTRA:         -12.039
REMARK INTER:                 -11.424
REMARK INTRA:                  -0.615
REMARK UNBOUND:                -1.255
REMARK SMILES O=C(Nc1ccc2nncn2c1)c1c(Cl)cccc1OCC1CC1
REMARK SMILES IDX 13 1 14 2 15 3 16 4 17 5 18 6 19 7 2 8 3 9 1 10 4 12 5 13
REMARK SMILES IDX 12 14 6 15 11 16 7 17 10 18 8 19 9 20 20 21 21 22 22 23
REMARK SMILES IDX 23 24 24 25
REMARK H PARENT 3 11
ROOT
ATOM      1  C   UNL     1       5.722  44.867  52.170  1.00  0.00     0.100 A 
ATOM      2  C   UNL     1       5.741  43.929  51.126  1.00  0.00     0.057 A 
ATOM      3  Cl  UNL     1       4.627  42.610  51.007  1.00  0.00    -0.083 Cl
ATOM      4  C   UNL     1       6.651  44.069  50.074  1.00  0.00     0.021 A 
ATOM      5  C   UNL     1       7.539  45.140  50.052  1.00  0.00     0.005 A 
ATOM      6  C   UNL     1       7.518  46.088  51.075  1.00  0.00     0.047 A 
ATOM      7  C   UNL     1       6.616  45.963  52.139  1.00  0.00     0.133 A 
ENDROOT
BRANCH   1   8
ATOM      8  C   UNL     1       4.789  44.686  53.323  1.00  0.00     0.260 C 
ATOM      9  N   UNL     1       3.506  45.173  53.128  1.00  0.00    -0.320 N 
ATOM     10  O   UNL     1       5.199  44.151  54.347  1.00  0.00    -0.269 OA
ATOM     11  H   UNL     1       3.374  45.714  52.280  1.00  0.00     0.170 HD
BRANCH   9  12
ATOM     12  C   UNL     1       2.440  45.125  53.994  1.00  0.00     0.058 C 
ATOM     13  C   UNL     1       1.237  44.430  53.520  1.00  0.00     0.031 C 
ATOM     14  C   UNL     1       2.415  45.654  55.232  1.00  0.00     0.120 C 
ATOM     15  C   UNL     1       0.129  44.317  54.279  1.00  0.00     0.052 C 
ATOM     16  N   UNL     1       1.264  45.529  56.002  1.00  0.00    -0.287 N 
ATOM     17  C   UNL     1       0.116  44.883  55.581  1.00  0.00     0.160 A 
ATOM     18  C   UNL     1       0.978  45.967  57.264  1.00  0.00     0.230 A 
ATOM     19  N   UNL     1      -0.792  44.934  56.531  1.00  0.00    -0.131 NA
ATOM     20  N   UNL     1      -0.246  45.620  57.596  1.00  0.00    -0.138 NA
ENDBRANCH   9  12
ENDBRANCH   1   8
BRANCH   7  21
ATOM     21  O   UNL     1       6.522  46.869  53.162  1.00  0.00    -0.492 OA
BRANCH  21  22
ATOM     22  C   UNL     1       7.436  46.762  54.252  1.00  0.00     0.233 C 
BRANCH  22  23
ATOM     23  C   UNL     1       8.645  47.576  53.905  1.00  0.00     0.027 C 
ATOM     24  C   UNL     1       9.936  46.903  53.514  1.00  0.00     0.007 C 
ATOM     25  C   UNL     1       9.834  47.625  54.831  1.00  0.00     0.007 C 
ENDBRANCH  22  23
ENDBRANCH  21  22
ENDBRANCH   7  21
TORSDOF 5
ENDMDL
MODEL 5
REMARK VINA RESULT:    -8.144      2.003      4.012
REMARK INTER + INTRA:         -11.780
REMARK INTER:                 -11.047
REMARK INTRA:                  -0.733
REMARK UNBOUND:                -1.255
REMARK SMILES O=C(Nc1ccc2nncn2c1)c1c(Cl)cccc1OCC1CC1
REMARK SMILES IDX 13 1 14 2 15 3 16 4 17 5 18 6 19 7 2 8 3 9 1 10 4 12 5 13
REMARK SMILES IDX 12 14 6 15 11 16 7 17 10 18 8 19 9 20 20 21 21 22 22 23
REMARK SMILES IDX 23 24 24 25
REMARK H PARENT 3 11
ROOT
ATOM      1  C   UNL     1       6.001  44.213  51.138  1.00  0.00     0.100 A 
ATOM      2  C   UNL     1       6.139  43.065  50.341  1.00  0.00     0.057 A 
ATOM      3  Cl  UNL     1       5.094  41.690  50.459  1.00  0.00    -0.083 Cl
ATOM      4  C   UNL     1       7.120  43.016  49.346  1.00  0.00     0.021 A 
ATOM      5  C   UNL     1       7.961  44.105  49.134  1.00  0.00     0.005 A 
ATOM      6  C   UNL     1       7.822  45.256  49.908  1.00  0.00     0.047 A 
ATOM      7  C   UNL     1       6.848  45.324  50.912  1.00  0.00     0.133 A 
ENDROOT
BRANCH   1   8
ATOM      8  C   UNL     1       4.993  44.243  52.240  1.00  0.00     0.260 C 
ATOM      9  N   UNL     1       3.673  44.354  51.830  1.00  0.00    -0.320 N 
ATOM     10  O   UNL     1       5.374  44.186  53.404  1.00  0.00    -0.269 OA
ATOM     11  H   UNL     1       3.542  44.535  50.841  1.00  0.00     0.170 HD
BRANCH   9  12
ATOM     12  C   UNL     1       2.542  44.381  52.611  1.00  0.00     0.058 C 
ATOM     13  C   UNL     1       2.394  45.528  53.515  1.00  0.00     0.031 C 
ATOM     14  C   UNL     1       1.568  43.451  52.608  1.00  0.00     0.120 C 
ATOM     15  C   UNL     1       1.329  45.665  54.330  1.00  0.00     0.052 C 
ATOM     16  N   UNL     1       0.476  43.607  53.454  1.00  0.00    -0.287 N 
ATOM     17  C   UNL     1       0.312  44.675  54.318  1.00  0.00     0.160 A 
ATOM     18  C   UNL     1      -0.627  42.825  53.647  1.00  0.00     0.230 A 
ATOM     19  N   UNL     1      -0.816  44.536  54.980  1.00  0.00    -0.131 NA
ATOM     20  N   UNL     1      -1.410  43.366  54.554  1.00  0.00    -0.138 NA
ENDBRANCH   9  12
ENDBRANCH   1   8
BRANCH   7  21
ATOM     21  O   UNL     1       6.639  46.430  51.692  1.00  0.00    -0.492 OA
BRANCH  21  22
ATOM     22  C   UNL     1       7.746  47.288  51.968  1.00  0.00     0.233 C 
BRANCH  22  23
ATOM     23  C   UNL     1       8.528  46.665  53.084  1.00  0.00     0.027 C 
ATOM     24  C   UNL     1       9.531  47.476  53.863  1.00  0.00     0.007 C 
ATOM     25  C   UNL     1      10.001  46.390  52.934  1.00  0.00     0.007 C 
ENDBRANCH  22  23
ENDBRANCH  21  22
ENDBRANCH   7  21
TORSDOF 5
ENDMDL
MODEL 6
REMARK VINA RESULT:    -8.083      1.465      1.826
REMARK INTER + INTRA:         -11.701
REMARK INTER:                 -10.562
REMARK INTRA:                  -1.140
REMARK UNBOUND:                -1.255
REMARK SMILES O=C(Nc1ccc2nncn2c1)c1c(Cl)cccc1OCC1CC1
REMARK SMILES IDX 13 1 14 2 15 3 16 4 17 5 18 6 19 7 2 8 3 9 1 10 4 12 5 13
REMARK SMILES IDX 12 14 6 15 11 16 7 17 10 18 8 19 9 20 20 21 21 22 22 23
REMARK SMILES IDX 23 24 24 25
REMARK H PARENT 3 11
ROOT
ATOM      1  C   UNL     1       5.645  46.012  51.663  1.00  0.00     0.100 A 
ATOM      2  C   UNL     1       6.120  47.049  52.483  1.00  0.00     0.057 A 
ATOM      3  Cl  UNL     1       5.129  47.896  53.621  1.00  0.00    -0.083 Cl
ATOM      4  C   UNL     1       7.472  47.402  52.453  1.00  0.00     0.021 A 
ATOM      5  C   UNL     1       8.357  46.727  51.617  1.00  0.00     0.005 A 
ATOM      6  C   UNL     1       7.900  45.684  50.812  1.00  0.00     0.047 A 
ATOM      7  C   UNL     1       6.548  45.318  50.825  1.00  0.00     0.133 A 
ENDROOT
BRANCH   1   8
ATOM      8  C   UNL     1       4.190  45.674  51.652  1.00  0.00     0.260 C 
ATOM      9  N   UNL     1       3.812  44.662  52.521  1.00  0.00    -0.320 N 
ATOM     10  O   UNL     1       3.440  46.276  50.892  1.00  0.00    -0.269 OA
ATOM     11  H   UNL     1       4.577  44.172  52.972  1.00  0.00     0.170 HD
BRANCH   9  12
ATOM     12  C   UNL     1       2.551  44.160  52.741  1.00  0.00     0.058 C 
ATOM     13  C   UNL     1       2.058  43.171  51.775  1.00  0.00     0.031 C 
ATOM     14  C   UNL     1       1.743  44.498  53.765  1.00  0.00     0.120 C 
ATOM     15  C   UNL     1       0.838  42.609  51.885  1.00  0.00     0.052 C 
ATOM     16  N   UNL     1       0.488  43.910  53.864  1.00  0.00    -0.287 N 
ATOM     17  C   UNL     1      -0.003  42.977  52.968  1.00  0.00     0.160 A 
ATOM     18  C   UNL     1      -0.508  44.073  54.784  1.00  0.00     0.230 A 
ATOM     19  N   UNL     1      -1.213  42.611  53.332  1.00  0.00    -0.131 NA
ATOM     20  N   UNL     1      -1.532  43.304  54.481  1.00  0.00    -0.138 NA
ENDBRANCH   9  12
ENDBRANCH   1   8
BRANCH   7  21
ATOM     21  O   UNL     1       6.035  44.288  50.080  1.00  0.00    -0.492 OA
BRANCH  21  22
ATOM     22  C   UNL     1       6.942  43.373  49.467  1.00  0.00     0.233 C 
BRANCH  22  23
ATOM     23  C   UNL     1       6.516  41.991  49.856  1.00  0.00     0.027 C 
ATOM     24  C   UNL     1       5.538  41.223  49.005  1.00  0.00     0.007 C 
ATOM     25  C   UNL     1       5.120  41.727  50.360  1.00  0.00     0.007 C 
ENDBRANCH  22  23
ENDBRANCH  21  22
ENDBRANCH   7  21
TORSDOF 5
ENDMDL
MODEL 7
REMARK VINA RESULT:    -7.923      2.609      4.613
REMARK INTER + INTRA:         -11.495
REMARK INTER:                 -10.364
REMARK INTRA:                  -1.130
REMARK UNBOUND:                -1.255
REMARK SMILES O=C(Nc1ccc2nncn2c1)c1c(Cl)cccc1OCC1CC1
REMARK SMILES IDX 13 1 14 2 15 3 16 4 17 5 18 6 19 7 2 8 3 9 1 10 4 12 5 13
REMARK SMILES IDX 12 14 6 15 11 16 7 17 10 18 8 19 9 20 20 21 21 22 22 23
REMARK SMILES IDX 23 24 24 25
REMARK H PARENT 3 11
ROOT
ATOM      1  C   UNL     1       7.905  46.285  52.164  1.00  0.00     0.100 A 
ATOM      2  C   UNL     1       9.304  46.250  52.277  1.00  0.00     0.057 A 
ATOM      3  Cl  UNL     1      10.322  45.302  51.247  1.00  0.00    -0.083 Cl
ATOM      4  C   UNL     1       9.951  47.057  53.217  1.00  0.00     0.021 A 
ATOM      5  C   UNL     1       9.216  47.903  54.042  1.00  0.00     0.005 A 
ATOM      6  C   UNL     1       7.828  47.959  53.927  1.00  0.00     0.047 A 
ATOM      7  C   UNL     1       7.160  47.156  52.994  1.00  0.00     0.133 A 
ENDROOT
BRANCH   1   8
ATOM      8  C   UNL     1       7.209  45.380  51.200  1.00  0.00     0.260 C 
ATOM      9  N   UNL     1       6.376  44.433  51.775  1.00  0.00    -0.320 N 
ATOM     10  O   UNL     1       7.418  45.509  49.999  1.00  0.00    -0.269 OA
ATOM     11  H   UNL     1       6.428  44.368  52.786  1.00  0.00     0.170 HD
BRANCH   9  12
ATOM     12  C   UNL     1       5.597  43.493  51.142  1.00  0.00     0.058 C 
ATOM     13  C   UNL     1       4.286  43.214  51.740  1.00  0.00     0.031 C 
ATOM     14  C   UNL     1       5.937  42.820  50.025  1.00  0.00     0.120 C 
ATOM     15  C   UNL     1       3.434  42.313  51.210  1.00  0.00     0.052 C 
ATOM     16  N   UNL     1       5.047  41.895  49.492  1.00  0.00    -0.287 N 
ATOM     17  C   UNL     1       3.808  41.610  50.034  1.00  0.00     0.160 A 
ATOM     18  C   UNL     1       5.143  41.092  48.391  1.00  0.00     0.230 A 
ATOM     19  N   UNL     1       3.206  40.697  49.304  1.00  0.00    -0.131 NA
ATOM     20  N   UNL     1       4.052  40.370  48.264  1.00  0.00    -0.138 NA
ENDBRANCH   9  12
ENDBRANCH   1   8
BRANCH   7  21
ATOM     21  O   UNL     1       5.803  47.178  52.809  1.00  0.00    -0.492 OA
BRANCH  21  22
ATOM     22  C   UNL     1       4.961  47.301  53.954  1.00  0.00     0.233 C 
BRANCH  22  23
ATOM     23  C   UNL     1       4.430  45.936  54.269  1.00  0.00     0.027 C 
ATOM     24  C   UNL     1       3.799  45.648  55.607  1.00  0.00     0.007 C 
ATOM     25  C   UNL     1       5.132  45.043  55.259  1.00  0.00     0.007 C 
ENDBRANCH  22  23
ENDBRANCH  21  22
ENDBRANCH   7  21
TORSDOF 5
ENDMDL
MODEL 8
REMARK VINA RESULT:    -7.868      2.712      4.485
REMARK INTER + INTRA:         -11.423
REMARK INTER:                 -10.267
REMARK INTRA:                  -1.156
REMARK UNBOUND:                -1.255
REMARK SMILES O=C(Nc1ccc2nncn2c1)c1c(Cl)cccc1OCC1CC1
REMARK SMILES IDX 13 1 14 2 15 3 16 4 17 5 18 6 19 7 2 8 3 9 1 10 4 12 5 13
REMARK SMILES IDX 12 14 6 15 11 16 7 17 10 18 8 19 9 20 20 21 21 22 22 23
REMARK SMILES IDX 23 24 24 25
REMARK H PARENT 3 11
ROOT
ATOM      1  C   UNL     1       5.543  43.363  50.531  1.00  0.00     0.100 A 
ATOM      2  C   UNL     1       6.148  42.645  49.486  1.00  0.00     0.057 A 
ATOM      3  Cl  UNL     1       5.459  41.220  48.784  1.00  0.00    -0.083 Cl
ATOM      4  C   UNL     1       7.337  43.106  48.914  1.00  0.00     0.021 A 
ATOM      5  C   UNL     1       7.926  44.282  49.370  1.00  0.00     0.005 A 
ATOM      6  C   UNL     1       7.325  45.013  50.395  1.00  0.00     0.047 A 
ATOM      7  C   UNL     1       6.136  44.565  50.983  1.00  0.00     0.133 A 
ENDROOT
BRANCH   1   8
ATOM      8  C   UNL     1       4.305  42.839  51.181  1.00  0.00     0.260 C 
ATOM      9  N   UNL     1       3.257  43.743  51.272  1.00  0.00    -0.320 N 
ATOM     10  O   UNL     1       4.288  41.687  51.599  1.00  0.00    -0.269 OA
ATOM     11  H   UNL     1       3.485  44.695  51.009  1.00  0.00     0.170 HD
BRANCH   9  12
ATOM     12  C   UNL     1       2.002  43.536  51.793  1.00  0.00     0.058 C 
ATOM     13  C   UNL     1       1.869  43.644  53.251  1.00  0.00     0.031 C 
ATOM     14  C   UNL     1       0.896  43.251  51.079  1.00  0.00     0.120 C 
ATOM     15  C   UNL     1       0.689  43.462  53.878  1.00  0.00     0.052 C 
ATOM     16  N   UNL     1      -0.312  43.066  51.740  1.00  0.00    -0.287 N 
ATOM     17  C   UNL     1      -0.467  43.159  53.112  1.00  0.00     0.160 A 
ATOM     18  C   UNL     1      -1.558  42.772  51.265  1.00  0.00     0.230 A 
ATOM     19  N   UNL     1      -1.723  42.934  53.430  1.00  0.00    -0.131 NA
ATOM     20  N   UNL     1      -2.413  42.690  52.261  1.00  0.00    -0.138 NA
ENDBRANCH   9  12
ENDBRANCH   1   8
BRANCH   7  21
ATOM     21  O   UNL     1       5.479  45.245  51.975  1.00  0.00    -0.492 OA
BRANCH  21  22
ATOM     22  C   UNL     1       6.134  45.421  53.230  1.00  0.00     0.233 C 
BRANCH  22  23
ATOM     23  C   UNL     1       5.312  44.720  54.267  1.00  0.00     0.027 C 
ATOM     24  C   UNL     1       4.437  45.505  55.210  1.00  0.00     0.007 C 
ATOM     25  C   UNL     1       5.670  44.815  55.728  1.00  0.00     0.007 C 
ENDBRANCH  22  23
ENDBRANCH  21  22
ENDBRANCH   7  21
TORSDOF 5
ENDMDL
MODEL 9
REMARK VINA RESULT:    -7.815      2.512      6.365
REMARK INTER + INTRA:         -11.355
REMARK INTER:                 -10.161
REMARK INTRA:                  -1.194
REMARK UNBOUND:                -1.255
REMARK SMILES O=C(Nc1ccc2nncn2c1)c1c(Cl)cccc1OCC1CC1
REMARK SMILES IDX 13 1 14 2 15 3 16 4 17 5 18 6 19 7 2 8 3 9 1 10 4 12 5 13
REMARK SMILES IDX 12 14 6 15 11 16 7 17 10 18 8 19 9 20 20 21 21 22 22 23
REMARK SMILES IDX 23 24 24 25
REMARK H PARENT 3 11
ROOT
ATOM      1  C   UNL     1       2.416  44.246  53.018  1.00  0.00     0.100 A 
ATOM      2  C   UNL     1       1.540  44.399  54.105  1.00  0.00     0.057 A 
ATOM      3  Cl  UNL     1       1.600  45.739  55.199  1.00  0.00    -0.083 Cl
ATOM      4  C   UNL     1       0.513  43.473  54.313  1.00  0.00     0.021 A 
ATOM      5  C   UNL     1       0.347  42.400  53.443  1.00  0.00     0.005 A 
ATOM      6  C   UNL     1       1.199  42.249  52.350  1.00  0.00     0.047 A 
ATOM      7  C   UNL     1       2.236  43.163  52.126  1.00  0.00     0.133 A 
ENDROOT
BRANCH   1   8
ATOM      8  C   UNL     1       3.548  45.202  52.829  1.00  0.00     0.260 C 
ATOM      9  N   UNL     1       4.813  44.636  52.878  1.00  0.00    -0.320 N 
ATOM     10  O   UNL     1       3.308  46.392  52.665  1.00  0.00    -0.269 OA
ATOM     11  H   UNL     1       4.840  43.663  53.165  1.00  0.00     0.170 HD
BRANCH   9  12
ATOM     12  C   UNL     1       6.028  45.259  52.714  1.00  0.00     0.058 C 
ATOM     13  C   UNL     1       6.531  45.369  51.341  1.00  0.00     0.031 C 
ATOM     14  C   UNL     1       6.780  45.776  53.705  1.00  0.00     0.120 C 
ATOM     15  C   UNL     1       7.709  45.959  51.054  1.00  0.00     0.052 C 
ATOM     16  N   UNL     1       7.992  46.381  53.393  1.00  0.00    -0.287 N 
ATOM     17  C   UNL     1       8.493  46.496  52.109  1.00  0.00     0.160 A 
ATOM     18  C   UNL     1       8.930  46.971  54.192  1.00  0.00     0.230 A 
ATOM     19  N   UNL     1       9.653  47.115  52.143  1.00  0.00    -0.131 NA
ATOM     20  N   UNL     1       9.929  47.415  53.460  1.00  0.00    -0.138 NA
ENDBRANCH   9  12
ENDBRANCH   1   8
BRANCH   7  21
ATOM     21  O   UNL     1       3.093  43.090  51.060  1.00  0.00    -0.492 OA
BRANCH  21  22
ATOM     22  C   UNL     1       3.882  41.912  50.899  1.00  0.00     0.233 C 
BRANCH  22  23
ATOM     23  C   UNL     1       5.077  42.281  50.074  1.00  0.00     0.027 C 
ATOM     24  C   UNL     1       5.488  41.433  48.898  1.00  0.00     0.007 C 
ATOM     25  C   UNL     1       6.341  41.464  50.138  1.00  0.00     0.007 C 
ENDBRANCH  22  23
ENDBRANCH  21  22
ENDBRANCH   7  21
TORSDOF 5
ENDMDL
MODEL 10
REMARK VINA RESULT:    -7.439      2.930      5.236
REMARK INTER + INTRA:         -10.869
REMARK INTER:                  -9.985
REMARK INTRA:                  -0.884
REMARK UNBOUND:                -1.255
REMARK SMILES O=C(Nc1ccc2nncn2c1)c1c(Cl)cccc1OCC1CC1
REMARK SMILES IDX 13 1 14 2 15 3 16 4 17 5 18 6 19 7 2 8 3 9 1 10 4 12 5 13
REMARK SMILES IDX 12 14 6 15 11 16 7 17 10 18 8 19 9 20 20 21 21 22 22 23
REMARK SMILES IDX 23 24 24 25
REMARK H PARENT 3 11
ROOT
ATOM      1  C   UNL     1       3.462  43.982  52.010  1.00  0.00     0.100 A 
ATOM      2  C   UNL     1       2.984  42.859  51.316  1.00  0.00     0.057 A 
ATOM      3  Cl  UNL     1       1.312  42.415  51.254  1.00  0.00    -0.083 Cl
ATOM      4  C   UNL     1       3.864  42.068  50.571  1.00  0.00     0.021 A 
ATOM      5  C   UNL     1       5.217  42.391  50.508  1.00  0.00     0.005 A 
ATOM      6  C   UNL     1       5.699  43.514  51.180  1.00  0.00     0.047 A 
ATOM      7  C   UNL     1       4.834  44.317  51.933  1.00  0.00     0.133 A 
ENDROOT
BRANCH   1   8
ATOM      8  C   UNL     1       2.532  44.793  52.853  1.00  0.00     0.260 C 
ATOM      9  N   UNL     1       2.228  44.247  54.090  1.00  0.00    -0.320 N 
ATOM     10  O   UNL     1       2.091  45.849  52.413  1.00  0.00    -0.269 OA
ATOM     11  H   UNL     1       2.561  43.301  54.238  1.00  0.00     0.170 HD
BRANCH   9  12
ATOM     12  C   UNL     1       1.428  44.775  55.076  1.00  0.00     0.058 C 
ATOM     13  C   UNL     1      -0.014  44.530  54.955  1.00  0.00     0.031 C 
ATOM     14  C   UNL     1       1.860  45.487  56.135  1.00  0.00     0.120 C 
ATOM     15  C   UNL     1      -0.898  44.997  55.859  1.00  0.00     0.052 C 
ATOM     16  N   UNL     1       0.935  45.962  57.058  1.00  0.00    -0.287 N 
ATOM     17  C   UNL     1      -0.428  45.748  56.969  1.00  0.00     0.160 A 
ATOM     18  C   UNL     1       1.103  46.697  58.197  1.00  0.00     0.230 A 
ATOM     19  N   UNL     1      -1.032  46.320  57.988  1.00  0.00    -0.131 NA
ATOM     20  N   UNL     1      -0.062  46.919  58.765  1.00  0.00    -0.138 NA
ENDBRANCH   9  12
ENDBRANCH   1   8
BRANCH   7  21
ATOM     21  O   UNL     1       5.234  45.447  52.596  1.00  0.00    -0.492 OA
BRANCH  21  22
ATOM     22  C   UNL     1       5.884  46.478  51.854  1.00  0.00     0.233 C 
BRANCH  22  23
ATOM     23  C   UNL     1       7.247  46.665  52.446  1.00  0.00     0.027 C 
ATOM     24  C   UNL     1       7.938  48.003  52.372  1.00  0.00     0.007 C 
ATOM     25  C   UNL     1       8.454  46.844  51.562  1.00  0.00     0.007 C 
ENDBRANCH  22  23
ENDBRANCH  21  22
ENDBRANCH   7  21
TORSDOF 5
ENDMDL
