MODEL 1
REMARK VINA RESULT:   -10.023      0.000      0.000
REMARK INTER + INTRA:         -13.711
REMARK INTER:                 -12.367
REMARK INTRA:                  -1.345
REMARK UNBOUND:                -1.345
REMARK SMILES O=C(Nc1ccccc1)C1CCC[NH+]1Cc1nc2ccccc2c(=O)[nH]1
REMARK SMILES IDX 10 1 11 2 12 3 13 4 14 5 2 7 3 8 1 9 4 11 5 12 9 13 6 14
REMARK SMILES IDX 8 15 7 16 15 17 16 18 17 19 26 20 18 21 24 22 19 23 23 24
REMARK SMILES IDX 20 25 22 26 21 27 25 29
REMARK H PARENT 14 6 3 10 26 28
ROOT
ATOM      1  C   UNL     1       2.452  46.042  53.009  1.00  0.00     0.275 C 
ATOM      2  C   UNL     1       1.381  45.442  53.918  1.00  0.00     0.081 C 
ATOM      3  C   UNL     1       2.139  44.895  55.117  1.00  0.00     0.068 C 
ATOM      4  C   UNL     1       3.241  45.910  55.331  1.00  0.00     0.263 C 
ATOM      5  N   UNL     1       3.681  46.222  53.938  1.00  0.00    -0.318 N 
ATOM      6  H   UNL     1       4.311  45.456  53.622  1.00  0.00     0.349 HD
ENDROOT
BRANCH   1   7
ATOM      7  C   UNL     1       2.842  45.103  51.852  1.00  0.00     0.282 C 
ATOM      8  N   UNL     1       3.970  44.346  52.073  1.00  0.00    -0.321 N 
ATOM      9  O   UNL     1       2.112  45.113  50.857  1.00  0.00    -0.268 OA
ATOM     10  H   UNL     1       4.466  44.462  52.949  1.00  0.00     0.170 HD
BRANCH   8  11
ATOM     11  C   UNL     1       4.500  43.347  51.227  1.00  0.00     0.041 A 
ATOM     12  C   UNL     1       3.960  42.067  51.092  1.00  0.00     0.026 A 
ATOM     13  C   UNL     1       5.647  43.677  50.493  1.00  0.00     0.026 A 
ATOM     14  C   UNL     1       4.556  41.132  50.239  1.00  0.00     0.002 A 
ATOM     15  C   UNL     1       6.242  42.743  49.641  1.00  0.00     0.002 A 
ATOM     16  C   UNL     1       5.696  41.470  49.514  1.00  0.00     0.000 A 
ENDBRANCH   8  11
ENDBRANCH   1   7
BRANCH   5  17
ATOM     17  C   UNL     1       4.443  47.515  53.755  1.00  0.00     0.339 C 
BRANCH  17  18
ATOM     18  C   UNL     1       5.923  47.259  53.467  1.00  0.00     0.165 C 
ATOM     19  N   UNL     1       6.268  46.766  52.321  1.00  0.00    -0.229 NA
ATOM     20  N   UNL     1       6.807  47.511  54.478  1.00  0.00    -0.305 N 
ATOM     21  C   UNL     1       7.632  46.474  52.114  1.00  0.00     0.078 A 
ATOM     22  C   UNL     1       8.155  47.271  54.372  1.00  0.00     0.258 C 
ATOM     23  C   UNL     1       8.029  45.926  50.894  1.00  0.00     0.029 A 
ATOM     24  C   UNL     1       8.604  46.698  53.094  1.00  0.00     0.065 A 
ATOM     25  C   UNL     1       9.371  45.608  50.662  1.00  0.00     0.002 A 
ATOM     26  C   UNL     1       9.949  46.388  52.874  1.00  0.00     0.016 A 
ATOM     27  C   UNL     1      10.329  45.839  51.651  1.00  0.00     0.001 A 
ATOM     28  H   UNL     1       6.537  47.908  55.369  1.00  0.00     0.171 HD
ATOM     29  O   UNL     1       8.918  47.524  55.294  1.00  0.00    -0.269 OA
ENDBRANCH  17  18
ENDBRANCH   5  17
TORSDOF 4
ENDMDL
MODEL 2
REMARK VINA RESULT:    -9.942      1.275      1.901
REMARK INTER + INTRA:         -13.612
REMARK INTER:                 -12.629
REMARK INTRA:                  -0.983
REMARK UNBOUND:                -1.345
REMARK SMILES O=C(Nc1ccccc1)C1CCC[NH+]1Cc1nc2ccccc2c(=O)[nH]1
REMARK SMILES IDX 10 1 11 2 12 3 13 4 14 5 2 7 3 8 1 9 4 11 5 12 9 13 6 14
REMARK SMILES IDX 8 15 7 16 15 17 16 18 17 19 26 20 18 21 24 22 19 23 23 24
REMARK SMILES IDX 20 25 22 26 21 27 25 29
REMARK H PARENT 14 6 3 10 26 28
ROOT
ATOM      1  C   UNL     1       2.152  45.928  53.098  1.00  0.00     0.275 C 
ATOM      2  C   UNL     1       1.024  45.310  53.923  1.00  0.00     0.081 C 
ATOM      3  C   UNL     1       1.711  44.671  55.119  1.00  0.00     0.068 C 
ATOM      4  C   UNL     1       2.831  45.636  55.440  1.00  0.00     0.263 C 
ATOM      5  N   UNL     1       3.342  46.015  54.088  1.00  0.00    -0.318 N 
ATOM      6  H   UNL     1       3.963  45.250  53.755  1.00  0.00     0.349 HD
ENDROOT
BRANCH   1   7
ATOM      7  C   UNL     1       2.565  45.046  51.905  1.00  0.00     0.282 C 
ATOM      8  N   UNL     1       3.501  44.079  52.196  1.00  0.00    -0.321 N 
ATOM      9  O   UNL     1       2.022  45.281  50.824  1.00  0.00    -0.268 OA
ATOM     10  H   UNL     1       3.859  44.020  53.142  1.00  0.00     0.170 HD
BRANCH   8  11
ATOM     11  C   UNL     1       3.990  43.083  51.321  1.00  0.00     0.041 A 
ATOM     12  C   UNL     1       3.253  41.973  50.906  1.00  0.00     0.026 A 
ATOM     13  C   UNL     1       5.306  43.230  50.862  1.00  0.00     0.026 A 
ATOM     14  C   UNL     1       3.820  41.027  50.046  1.00  0.00     0.002 A 
ATOM     15  C   UNL     1       5.872  42.285  50.002  1.00  0.00     0.002 A 
ATOM     16  C   UNL     1       5.128  41.183  49.594  1.00  0.00     0.000 A 
ENDBRANCH   8  11
ENDBRANCH   1   7
BRANCH   5  17
ATOM     17  C   UNL     1       4.149  47.292  54.015  1.00  0.00     0.339 C 
BRANCH  17  18
ATOM     18  C   UNL     1       5.567  47.032  53.507  1.00  0.00     0.165 C 
ATOM     19  N   UNL     1       6.572  47.257  54.291  1.00  0.00    -0.229 NA
ATOM     20  N   UNL     1       5.699  46.630  52.207  1.00  0.00    -0.305 N 
ATOM     21  C   UNL     1       7.868  47.077  53.768  1.00  0.00     0.078 A 
ATOM     22  C   UNL     1       6.916  46.418  51.608  1.00  0.00     0.258 C 
ATOM     23  C   UNL     1       8.969  47.329  54.587  1.00  0.00     0.029 A 
ATOM     24  C   UNL     1       8.096  46.670  52.450  1.00  0.00     0.065 A 
ATOM     25  C   UNL     1      10.270  47.178  54.094  1.00  0.00     0.002 A 
ATOM     26  C   UNL     1       9.389  46.512  51.946  1.00  0.00     0.016 A 
ATOM     27  C   UNL     1      10.478  46.770  52.776  1.00  0.00     0.001 A 
ATOM     28  H   UNL     1       4.912  46.442  51.598  1.00  0.00     0.171 HD
ATOM     29  O   UNL     1       6.994  46.043  50.446  1.00  0.00    -0.269 OA
ENDBRANCH  17  18
ENDBRANCH   5  17
TORSDOF 4
ENDMDL
MODEL 3
REMARK VINA RESULT:    -9.340      1.831      6.018
REMARK INTER + INTRA:         -12.869
REMARK INTER:                 -11.779
REMARK INTRA:                  -1.090
REMARK UNBOUND:                -1.345
REMARK SMILES O=C(Nc1ccccc1)C1CCC[NH+]1Cc1nc2ccccc2c(=O)[nH]1
REMARK SMILES IDX 10 1 11 2 12 3 13 4 14 5 2 7 3 8 1 9 4 11 5 12 9 13 6 14
REMARK SMILES IDX 8 15 7 16 15 17 16 18 17 19 26 20 18 21 24 22 19 23 23 24
REMARK SMILES IDX 20 25 22 26 21 27 25 29
REMARK H PARENT 14 6 3 10 26 28
ROOT
ATOM      1  C   UNL     1       7.760  47.533  53.439  1.00  0.00     0.275 C 
ATOM      2  C   UNL     1       8.840  48.044  54.391  1.00  0.00     0.081 C 
ATOM      3  C   UNL     1       9.901  46.955  54.409  1.00  0.00     0.068 C 
ATOM      4  C   UNL     1       9.920  46.457  52.981  1.00  0.00     0.263 C 
ATOM      5  N   UNL     1       8.470  46.423  52.621  1.00  0.00    -0.318 N 
ATOM      6  H   UNL     1       8.060  45.556  53.023  1.00  0.00     0.349 HD
ENDROOT
BRANCH   1   7
ATOM      7  C   UNL     1       6.563  46.910  54.181  1.00  0.00     0.282 C 
ATOM      8  N   UNL     1       5.356  47.020  53.528  1.00  0.00    -0.321 N 
ATOM      9  O   UNL     1       6.798  46.375  55.266  1.00  0.00    -0.268 OA
ATOM     10  H   UNL     1       5.329  47.502  52.637  1.00  0.00     0.170 HD
BRANCH   8  11
ATOM     11  C   UNL     1       4.120  46.467  53.933  1.00  0.00     0.041 A 
ATOM     12  C   UNL     1       3.914  45.818  55.152  1.00  0.00     0.026 A 
ATOM     13  C   UNL     1       3.049  46.575  53.035  1.00  0.00     0.026 A 
ATOM     14  C   UNL     1       2.659  45.287  55.468  1.00  0.00     0.002 A 
ATOM     15  C   UNL     1       1.796  46.044  53.352  1.00  0.00     0.002 A 
ATOM     16  C   UNL     1       1.601  45.401  54.570  1.00  0.00     0.000 A 
ENDBRANCH   8  11
ENDBRANCH   1   7
BRANCH   5  17
ATOM     17  C   UNL     1       8.151  46.408  51.143  1.00  0.00     0.339 C 
BRANCH  17  18
ATOM     18  C   UNL     1       7.285  45.206  50.767  1.00  0.00     0.165 C 
ATOM     19  N   UNL     1       6.260  44.910  51.500  1.00  0.00    -0.229 NA
ATOM     20  N   UNL     1       7.686  44.461  49.693  1.00  0.00    -0.305 N 
ATOM     21  C   UNL     1       5.526  43.754  51.168  1.00  0.00     0.078 A 
ATOM     22  C   UNL     1       7.032  43.326  49.283  1.00  0.00     0.258 C 
ATOM     23  C   UNL     1       4.427  43.402  51.953  1.00  0.00     0.029 A 
ATOM     24  C   UNL     1       5.866  42.933  50.088  1.00  0.00     0.065 A 
ATOM     25  C   UNL     1       3.687  42.251  51.662  1.00  0.00     0.002 A 
ATOM     26  C   UNL     1       5.133  41.783  49.785  1.00  0.00     0.016 A 
ATOM     27  C   UNL     1       4.040  41.443  50.580  1.00  0.00     0.001 A 
ATOM     28  H   UNL     1       8.480  44.702  49.112  1.00  0.00     0.171 HD
ATOM     29  O   UNL     1       7.412  42.693  48.307  1.00  0.00    -0.269 OA
ENDBRANCH  17  18
ENDBRANCH   5  17
TORSDOF 4
ENDMDL
MODEL 4
REMARK VINA RESULT:    -9.042      2.136      7.001
REMARK INTER + INTRA:         -12.501
REMARK INTER:                 -11.597
REMARK INTRA:                  -0.904
REMARK UNBOUND:                -1.345
REMARK SMILES O=C(Nc1ccccc1)C1CCC[NH+]1Cc1nc2ccccc2c(=O)[nH]1
REMARK SMILES IDX 10 1 11 2 12 3 13 4 14 5 2 7 3 8 1 9 4 11 5 12 9 13 6 14
REMARK SMILES IDX 8 15 7 16 15 17 16 18 17 19 26 20 18 21 24 22 19 23 23 24
REMARK SMILES IDX 20 25 22 26 21 27 25 29
REMARK H PARENT 14 6 3 10 26 28
ROOT
ATOM      1  C   UNL     1       5.084  44.163  50.781  1.00  0.00     0.275 C 
ATOM      2  C   UNL     1       5.810  43.089  49.972  1.00  0.00     0.081 C 
ATOM      3  C   UNL     1       5.271  41.766  50.494  1.00  0.00     0.068 C 
ATOM      4  C   UNL     1       3.812  42.061  50.764  1.00  0.00     0.263 C 
ATOM      5  N   UNL     1       3.855  43.425  51.373  1.00  0.00    -0.318 N 
ATOM      6  H   UNL     1       4.122  43.320  52.374  1.00  0.00     0.349 HD
ENDROOT
BRANCH   1   7
ATOM      7  C   UNL     1       5.938  44.710  51.940  1.00  0.00     0.282 C 
ATOM      8  N   UNL     1       7.021  45.468  51.555  1.00  0.00    -0.321 N 
ATOM      9  O   UNL     1       5.570  44.428  53.083  1.00  0.00    -0.268 OA
ATOM     10  H   UNL     1       7.192  45.601  50.565  1.00  0.00     0.170 HD
BRANCH   8  11
ATOM     11  C   UNL     1       7.914  46.160  52.403  1.00  0.00     0.041 A 
ATOM     12  C   UNL     1       7.524  46.880  53.534  1.00  0.00     0.026 A 
ATOM     13  C   UNL     1       9.274  46.120  52.064  1.00  0.00     0.026 A 
ATOM     14  C   UNL     1       8.475  47.548  54.311  1.00  0.00     0.002 A 
ATOM     15  C   UNL     1      10.224  46.787  52.842  1.00  0.00     0.002 A 
ATOM     16  C   UNL     1       9.823  47.501  53.967  1.00  0.00     0.000 A 
ENDBRANCH   8  11
ENDBRANCH   1   7
BRANCH   5  17
ATOM     17  C   UNL     1       2.561  44.207  51.349  1.00  0.00     0.339 C 
BRANCH  17  18
ATOM     18  C   UNL     1       1.994  44.398  52.756  1.00  0.00     0.165 C 
ATOM     19  N   UNL     1       0.791  43.995  53.013  1.00  0.00    -0.229 NA
ATOM     20  N   UNL     1       2.781  45.054  53.661  1.00  0.00    -0.305 N 
ATOM     21  C   UNL     1       0.272  44.252  54.298  1.00  0.00     0.078 A 
ATOM     22  C   UNL     1       2.371  45.342  54.940  1.00  0.00     0.258 C 
ATOM     23  C   UNL     1      -1.029  43.843  54.597  1.00  0.00     0.029 A 
ATOM     24  C   UNL     1       1.005  44.918  55.285  1.00  0.00     0.065 A 
ATOM     25  C   UNL     1      -1.581  44.098  55.856  1.00  0.00     0.002 A 
ATOM     26  C   UNL     1       0.466  45.176  56.548  1.00  0.00     0.016 A 
ATOM     27  C   UNL     1      -0.834  44.764  56.829  1.00  0.00     0.001 A 
ATOM     28  H   UNL     1       3.726  45.357  53.462  1.00  0.00     0.171 HD
ATOM     29  O   UNL     1       3.109  45.918  55.727  1.00  0.00    -0.269 OA
ENDBRANCH  17  18
ENDBRANCH   5  17
TORSDOF 4
ENDMDL
MODEL 5
REMARK VINA RESULT:    -8.765      1.744      5.045
REMARK INTER + INTRA:         -12.160
REMARK INTER:                 -11.440
REMARK INTRA:                  -0.720
REMARK UNBOUND:                -1.345
REMARK SMILES O=C(Nc1ccccc1)C1CCC[NH+]1Cc1nc2ccccc2c(=O)[nH]1
REMARK SMILES IDX 10 1 11 2 12 3 13 4 14 5 2 7 3 8 1 9 4 11 5 12 9 13 6 14
REMARK SMILES IDX 8 15 7 16 15 17 16 18 17 19 26 20 18 21 24 22 19 23 23 24
REMARK SMILES IDX 20 25 22 26 21 27 25 29
REMARK H PARENT 14 6 3 10 26 28
ROOT
ATOM      1  C   UNL     1       3.750  45.125  53.951  1.00  0.00     0.275 C 
ATOM      2  C   UNL     1       3.137  44.821  55.317  1.00  0.00     0.081 C 
ATOM      3  C   UNL     1       1.920  45.726  55.418  1.00  0.00     0.068 C 
ATOM      4  C   UNL     1       1.372  45.739  54.008  1.00  0.00     0.263 C 
ATOM      5  N   UNL     1       2.607  45.826  53.171  1.00  0.00    -0.318 N 
ATOM      6  H   UNL     1       2.920  46.818  53.164  1.00  0.00     0.349 HD
ENDROOT
BRANCH   1   7
ATOM      7  C   UNL     1       4.949  46.088  54.040  1.00  0.00     0.282 C 
ATOM      8  N   UNL     1       6.176  45.510  53.806  1.00  0.00    -0.321 N 
ATOM      9  O   UNL     1       4.698  47.267  54.300  1.00  0.00    -0.268 OA
ATOM     10  H   UNL     1       6.213  44.516  53.611  1.00  0.00     0.170 HD
BRANCH   8  11
ATOM     11  C   UNL     1       7.423  46.168  53.737  1.00  0.00     0.041 A 
ATOM     12  C   UNL     1       7.870  47.101  54.675  1.00  0.00     0.026 A 
ATOM     13  C   UNL     1       8.246  45.861  52.644  1.00  0.00     0.026 A 
ATOM     14  C   UNL     1       9.117  47.716  54.524  1.00  0.00     0.002 A 
ATOM     15  C   UNL     1       9.492  46.476  52.495  1.00  0.00     0.002 A 
ATOM     16  C   UNL     1       9.927  47.404  53.435  1.00  0.00     0.000 A 
ENDBRANCH   8  11
ENDBRANCH   1   7
BRANCH   5  17
ATOM     17  C   UNL     1       2.462  45.407  51.725  1.00  0.00     0.339 C 
BRANCH  17  18
ATOM     18  C   UNL     1       3.627  44.525  51.276  1.00  0.00     0.165 C 
ATOM     19  N   UNL     1       4.712  45.081  50.842  1.00  0.00    -0.229 NA
ATOM     20  N   UNL     1       3.429  43.172  51.300  1.00  0.00    -0.305 N 
ATOM     21  C   UNL     1       5.739  44.240  50.368  1.00  0.00     0.078 A 
ATOM     22  C   UNL     1       4.371  42.270  50.871  1.00  0.00     0.258 C 
ATOM     23  C   UNL     1       6.912  44.815  49.878  1.00  0.00     0.029 A 
ATOM     24  C   UNL     1       5.621  42.847  50.354  1.00  0.00     0.065 A 
ATOM     25  C   UNL     1       7.944  44.010  49.383  1.00  0.00     0.002 A 
ATOM     26  C   UNL     1       6.645  42.031  49.866  1.00  0.00     0.016 A 
ATOM     27  C   UNL     1       7.809  42.620  49.377  1.00  0.00     0.001 A 
ATOM     28  H   UNL     1       2.586  42.738  51.653  1.00  0.00     0.171 HD
ATOM     29  O   UNL     1       4.164  41.065  50.922  1.00  0.00    -0.269 OA
ENDBRANCH  17  18
ENDBRANCH   5  17
TORSDOF 4
ENDMDL
MODEL 6
REMARK VINA RESULT:    -8.544      2.834      5.344
REMARK INTER + INTRA:         -11.886
REMARK INTER:                 -10.736
REMARK INTRA:                  -1.150
REMARK UNBOUND:                -1.345
REMARK SMILES O=C(Nc1ccccc1)C1CCC[NH+]1Cc1nc2ccccc2c(=O)[nH]1
REMARK SMILES IDX 10 1 11 2 12 3 13 4 14 5 2 7 3 8 1 9 4 11 5 12 9 13 6 14
REMARK SMILES IDX 8 15 7 16 15 17 16 18 17 19 26 20 18 21 24 22 19 23 23 24
REMARK SMILES IDX 20 25 22 26 21 27 25 29
REMARK H PARENT 14 6 3 10 26 28
ROOT
ATOM      1  C   UNL     1       0.606  43.702  53.939  1.00  0.00     0.275 C 
ATOM      2  C   UNL     1      -0.530  43.748  54.960  1.00  0.00     0.081 C 
ATOM      3  C   UNL     1      -1.684  44.427  54.240  1.00  0.00     0.068 C 
ATOM      4  C   UNL     1      -1.574  43.905  52.825  1.00  0.00     0.263 C 
ATOM      5  N   UNL     1      -0.101  43.924  52.576  1.00  0.00    -0.318 N 
ATOM      6  H   UNL     1       0.171  44.901  52.343  1.00  0.00     0.349 HD
ENDROOT
BRANCH   1   7
ATOM      7  C   UNL     1       1.637  44.826  54.149  1.00  0.00     0.282 C 
ATOM      8  N   UNL     1       2.940  44.400  54.281  1.00  0.00    -0.321 N 
ATOM      9  O   UNL     1       1.206  45.981  54.170  1.00  0.00    -0.268 OA
ATOM     10  H   UNL     1       3.130  43.406  54.249  1.00  0.00     0.170 HD
BRANCH   8  11
ATOM     11  C   UNL     1       4.089  45.213  54.395  1.00  0.00     0.041 A 
ATOM     12  C   UNL     1       4.057  46.602  54.535  1.00  0.00     0.026 A 
ATOM     13  C   UNL     1       5.333  44.568  54.350  1.00  0.00     0.026 A 
ATOM     14  C   UNL     1       5.245  47.333  54.628  1.00  0.00     0.002 A 
ATOM     15  C   UNL     1       6.520  45.299  54.445  1.00  0.00     0.002 A 
ATOM     16  C   UNL     1       6.476  46.682  54.584  1.00  0.00     0.000 A 
ENDBRANCH   8  11
ENDBRANCH   1   7
BRANCH   5  17
ATOM     17  C   UNL     1       0.394  43.054  51.444  1.00  0.00     0.339 C 
BRANCH  17  18
ATOM     18  C   UNL     1       1.910  43.160  51.274  1.00  0.00     0.165 C 
ATOM     19  N   UNL     1       2.458  44.331  51.198  1.00  0.00    -0.229 NA
ATOM     20  N   UNL     1       2.606  41.990  51.147  1.00  0.00    -0.305 N 
ATOM     21  C   UNL     1       3.848  44.393  50.970  1.00  0.00     0.078 A 
ATOM     22  C   UNL     1       3.962  41.945  50.933  1.00  0.00     0.258 C 
ATOM     23  C   UNL     1       4.461  45.642  50.866  1.00  0.00     0.029 A 
ATOM     24  C   UNL     1       4.636  43.247  50.825  1.00  0.00     0.065 A 
ATOM     25  C   UNL     1       5.834  45.740  50.621  1.00  0.00     0.002 A 
ATOM     26  C   UNL     1       6.010  43.332  50.584  1.00  0.00     0.016 A 
ATOM     27  C   UNL     1       6.607  44.586  50.481  1.00  0.00     0.001 A 
ATOM     28  H   UNL     1       2.178  41.076  51.220  1.00  0.00     0.171 HD
ATOM     29  O   UNL     1       4.553  40.878  50.840  1.00  0.00    -0.269 OA
ENDBRANCH  17  18
ENDBRANCH   5  17
TORSDOF 4
ENDMDL
MODEL 7
REMARK VINA RESULT:    -8.431      1.681      2.282
REMARK INTER + INTRA:         -11.747
REMARK INTER:                 -10.647
REMARK INTRA:                  -1.101
REMARK UNBOUND:                -1.345
REMARK SMILES O=C(Nc1ccccc1)C1CCC[NH+]1Cc1nc2ccccc2c(=O)[nH]1
REMARK SMILES IDX 10 1 11 2 12 3 13 4 14 5 2 7 3 8 1 9 4 11 5 12 9 13 6 14
REMARK SMILES IDX 8 15 7 16 15 17 16 18 17 19 26 20 18 21 24 22 19 23 23 24
REMARK SMILES IDX 20 25 22 26 21 27 25 29
REMARK H PARENT 14 6 3 10 26 28
ROOT
ATOM      1  C   UNL     1       1.150  44.397  52.073  1.00  0.00     0.275 C 
ATOM      2  C   UNL     1      -0.066  43.556  52.457  1.00  0.00     0.081 C 
ATOM      3  C   UNL     1       0.209  43.088  53.878  1.00  0.00     0.068 C 
ATOM      4  C   UNL     1       0.899  44.276  54.513  1.00  0.00     0.263 C 
ATOM      5  N   UNL     1       1.814  44.747  53.430  1.00  0.00    -0.318 N 
ATOM      6  H   UNL     1       2.654  44.132  53.430  1.00  0.00     0.349 HD
ENDROOT
BRANCH   1   7
ATOM      7  C   UNL     1       2.163  43.618  51.213  1.00  0.00     0.282 C 
ATOM      8  N   UNL     1       3.481  43.950  51.427  1.00  0.00    -0.321 N 
ATOM      9  O   UNL     1       1.703  42.780  50.435  1.00  0.00    -0.268 OA
ATOM     10  H   UNL     1       3.695  44.674  52.103  1.00  0.00     0.170 HD
BRANCH   8  11
ATOM     11  C   UNL     1       4.614  43.338  50.846  1.00  0.00     0.041 A 
ATOM     12  C   UNL     1       4.755  41.960  50.666  1.00  0.00     0.026 A 
ATOM     13  C   UNL     1       5.657  44.182  50.442  1.00  0.00     0.026 A 
ATOM     14  C   UNL     1       5.917  41.436  50.093  1.00  0.00     0.002 A 
ATOM     15  C   UNL     1       6.818  43.657  49.868  1.00  0.00     0.002 A 
ATOM     16  C   UNL     1       6.948  42.283  49.694  1.00  0.00     0.000 A 
ENDBRANCH   8  11
ENDBRANCH   1   7
BRANCH   5  17
ATOM     17  C   UNL     1       2.317  46.168  53.554  1.00  0.00     0.339 C 
BRANCH  17  18
ATOM     18  C   UNL     1       3.833  46.213  53.740  1.00  0.00     0.165 C 
ATOM     19  N   UNL     1       4.563  46.803  52.848  1.00  0.00    -0.229 NA
ATOM     20  N   UNL     1       4.348  45.561  54.826  1.00  0.00    -0.305 N 
ATOM     21  C   UNL     1       5.963  46.764  53.012  1.00  0.00     0.078 A 
ATOM     22  C   UNL     1       5.695  45.477  55.080  1.00  0.00     0.258 C 
ATOM     23  C   UNL     1       6.773  47.377  52.056  1.00  0.00     0.029 A 
ATOM     24  C   UNL     1       6.574  46.118  54.092  1.00  0.00     0.065 A 
ATOM     25  C   UNL     1       8.166  47.341  52.178  1.00  0.00     0.002 A 
ATOM     26  C   UNL     1       7.964  46.079  54.228  1.00  0.00     0.016 A 
ATOM     27  C   UNL     1       8.759  46.693  53.263  1.00  0.00     0.001 A 
ATOM     28  H   UNL     1       3.775  45.113  55.530  1.00  0.00     0.171 HD
ATOM     29  O   UNL     1       6.117  44.898  56.072  1.00  0.00    -0.269 OA
ENDBRANCH  17  18
ENDBRANCH   5  17
TORSDOF 4
ENDMDL
MODEL 8
REMARK VINA RESULT:    -8.397      2.094      7.349
REMARK INTER + INTRA:         -11.706
REMARK INTER:                 -11.209
REMARK INTRA:                  -0.496
REMARK UNBOUND:                -1.345
REMARK SMILES O=C(Nc1ccccc1)C1CCC[NH+]1Cc1nc2ccccc2c(=O)[nH]1
REMARK SMILES IDX 10 1 11 2 12 3 13 4 14 5 2 7 3 8 1 9 4 11 5 12 9 13 6 14
REMARK SMILES IDX 8 15 7 16 15 17 16 18 17 19 26 20 18 21 24 22 19 23 23 24
REMARK SMILES IDX 20 25 22 26 21 27 25 29
REMARK H PARENT 14 6 3 10 26 28
ROOT
ATOM      1  C   UNL     1       4.969  44.284  50.768  1.00  0.00     0.275 C 
ATOM      2  C   UNL     1       5.486  42.997  50.126  1.00  0.00     0.081 C 
ATOM      3  C   UNL     1       4.690  41.880  50.782  1.00  0.00     0.068 C 
ATOM      4  C   UNL     1       3.312  42.481  50.953  1.00  0.00     0.263 C 
ATOM      5  N   UNL     1       3.610  43.877  51.394  1.00  0.00    -0.318 N 
ATOM      6  H   UNL     1       3.833  43.851  52.410  1.00  0.00     0.349 HD
ENDROOT
BRANCH   1   7
ATOM      7  C   UNL     1       5.892  44.801  51.886  1.00  0.00     0.282 C 
ATOM      8  N   UNL     1       6.992  45.506  51.452  1.00  0.00    -0.321 N 
ATOM      9  O   UNL     1       5.559  44.546  53.046  1.00  0.00    -0.268 OA
ATOM     10  H   UNL     1       7.129  45.623  50.455  1.00  0.00     0.170 HD
BRANCH   8  11
ATOM     11  C   UNL     1       7.950  46.163  52.256  1.00  0.00     0.041 A 
ATOM     12  C   UNL     1       9.321  46.169  51.996  1.00  0.00     0.026 A 
ATOM     13  C   UNL     1       7.475  46.837  53.390  1.00  0.00     0.026 A 
ATOM     14  C   UNL     1      10.203  46.835  52.853  1.00  0.00     0.002 A 
ATOM     15  C   UNL     1       8.356  47.504  54.245  1.00  0.00     0.002 A 
ATOM     16  C   UNL     1       9.721  47.503  53.976  1.00  0.00     0.000 A 
ENDBRANCH   8  11
ENDBRANCH   1   7
BRANCH   5  17
ATOM     17  C   UNL     1       2.493  44.882  51.221  1.00  0.00     0.339 C 
BRANCH  17  18
ATOM     18  C   UNL     1       1.517  44.846  52.396  1.00  0.00     0.165 C 
ATOM     19  N   UNL     1       1.945  45.137  53.583  1.00  0.00    -0.229 NA
ATOM     20  N   UNL     1       0.239  44.440  52.132  1.00  0.00    -0.305 N 
ATOM     21  C   UNL     1       1.036  45.023  54.656  1.00  0.00     0.078 A 
ATOM     22  C   UNL     1      -0.722  44.309  53.105  1.00  0.00     0.258 C 
ATOM     23  C   UNL     1       1.476  45.314  55.948  1.00  0.00     0.029 A 
ATOM     24  C   UNL     1      -0.289  44.614  54.477  1.00  0.00     0.065 A 
ATOM     25  C   UNL     1       0.606  45.194  57.037  1.00  0.00     0.002 A 
ATOM     26  C   UNL     1      -1.168  44.494  55.556  1.00  0.00     0.016 A 
ATOM     27  C   UNL     1      -0.714  44.785  56.840  1.00  0.00     0.001 A 
ATOM     28  H   UNL     1      -0.098  44.227  51.202  1.00  0.00     0.171 HD
ATOM     29  O   UNL     1      -1.860  43.958  52.828  1.00  0.00    -0.269 OA
ENDBRANCH  17  18
ENDBRANCH   5  17
TORSDOF 4
ENDMDL
MODEL 9
REMARK VINA RESULT:    -8.390      2.581      7.237
REMARK INTER + INTRA:         -11.696
REMARK INTER:                 -11.303
REMARK INTRA:                  -0.393
REMARK UNBOUND:                -1.345
REMARK SMILES O=C(Nc1ccccc1)C1CCC[NH+]1Cc1nc2ccccc2c(=O)[nH]1
REMARK SMILES IDX 10 1 11 2 12 3 13 4 14 5 2 7 3 8 1 9 4 11 5 12 9 13 6 14
REMARK SMILES IDX 8 15 7 16 15 17 16 18 17 19 26 20 18 21 24 22 19 23 23 24
REMARK SMILES IDX 20 25 22 26 21 27 25 29
REMARK H PARENT 14 6 3 10 26 28
ROOT
ATOM      1  C   UNL     1       3.639  46.509  53.256  1.00  0.00     0.275 C 
ATOM      2  C   UNL     1       3.067  47.281  52.068  1.00  0.00     0.081 C 
ATOM      3  C   UNL     1       3.313  46.391  50.860  1.00  0.00     0.068 C 
ATOM      4  C   UNL     1       3.094  44.994  51.400  1.00  0.00     0.263 C 
ATOM      5  N   UNL     1       3.750  45.050  52.742  1.00  0.00    -0.318 N 
ATOM      6  H   UNL     1       4.776  44.942  52.601  1.00  0.00     0.349 HD
ENDROOT
BRANCH   1   7
ATOM      7  C   UNL     1       5.042  46.998  53.660  1.00  0.00     0.282 C 
ATOM      8  N   UNL     1       6.085  46.295  53.101  1.00  0.00    -0.321 N 
ATOM      9  O   UNL     1       5.096  47.962  54.427  1.00  0.00    -0.268 OA
ATOM     10  H   UNL     1       5.871  45.515  52.490  1.00  0.00     0.170 HD
BRANCH   8  11
ATOM     11  C   UNL     1       7.463  46.579  53.228  1.00  0.00     0.041 A 
ATOM     12  C   UNL     1       8.062  47.054  54.396  1.00  0.00     0.026 A 
ATOM     13  C   UNL     1       8.262  46.378  52.093  1.00  0.00     0.026 A 
ATOM     14  C   UNL     1       9.434  47.322  54.431  1.00  0.00     0.002 A 
ATOM     15  C   UNL     1       9.633  46.646  52.130  1.00  0.00     0.002 A 
ATOM     16  C   UNL     1      10.219  47.118  53.300  1.00  0.00     0.000 A 
ENDBRANCH   8  11
ENDBRANCH   1   7
BRANCH   5  17
ATOM     17  C   UNL     1       3.334  43.984  53.731  1.00  0.00     0.339 C 
BRANCH  17  18
ATOM     18  C   UNL     1       1.998  44.322  54.393  1.00  0.00     0.165 C 
ATOM     19  N   UNL     1       0.916  44.295  53.683  1.00  0.00    -0.229 NA
ATOM     20  N   UNL     1       2.032  44.703  55.705  1.00  0.00    -0.305 N 
ATOM     21  C   UNL     1      -0.289  44.682  54.306  1.00  0.00     0.078 A 
ATOM     22  C   UNL     1       0.913  45.087  56.403  1.00  0.00     0.258 C 
ATOM     23  C   UNL     1      -1.467  44.679  53.559  1.00  0.00     0.029 A 
ATOM     24  C   UNL     1      -0.346  45.087  55.643  1.00  0.00     0.065 A 
ATOM     25  C   UNL     1      -2.676  45.075  54.141  1.00  0.00     0.002 A 
ATOM     26  C   UNL     1      -1.548  45.482  56.236  1.00  0.00     0.016 A 
ATOM     27  C   UNL     1      -2.715  45.475  55.477  1.00  0.00     0.001 A 
ATOM     28  H   UNL     1       2.877  44.711  56.262  1.00  0.00     0.171 HD
ATOM     29  O   UNL     1       0.981  45.406  57.582  1.00  0.00    -0.269 OA
ENDBRANCH  17  18
ENDBRANCH   5  17
TORSDOF 4
ENDMDL
MODEL 10
REMARK VINA RESULT:    -8.304      2.607      7.607
REMARK INTER + INTRA:         -11.591
REMARK INTER:                 -11.180
REMARK INTRA:                  -0.411
REMARK UNBOUND:                -1.345
REMARK SMILES O=C(Nc1ccccc1)C1CCC[NH+]1Cc1nc2ccccc2c(=O)[nH]1
REMARK SMILES IDX 10 1 11 2 12 3 13 4 14 5 2 7 3 8 1 9 4 11 5 12 9 13 6 14
REMARK SMILES IDX 8 15 7 16 15 17 16 18 17 19 26 20 18 21 24 22 19 23 23 24
REMARK SMILES IDX 20 25 22 26 21 27 25 29
REMARK H PARENT 14 6 3 10 26 28
ROOT
ATOM      1  C   UNL     1       3.800  45.641  53.236  1.00  0.00     0.275 C 
ATOM      2  C   UNL     1       3.431  46.907  52.465  1.00  0.00     0.081 C 
ATOM      3  C   UNL     1       3.206  46.448  51.033  1.00  0.00     0.068 C 
ATOM      4  C   UNL     1       2.547  45.096  51.195  1.00  0.00     0.263 C 
ATOM      5  N   UNL     1       3.312  44.486  52.323  1.00  0.00    -0.318 N 
ATOM      6  H   UNL     1       4.206  44.115  51.940  1.00  0.00     0.349 HD
ENDROOT
BRANCH   1   7
ATOM      7  C   UNL     1       5.318  45.496  53.448  1.00  0.00     0.282 C 
ATOM      8  N   UNL     1       6.078  46.507  52.905  1.00  0.00    -0.321 N 
ATOM      9  O   UNL     1       5.700  44.509  54.080  1.00  0.00    -0.268 OA
ATOM     10  H   UNL     1       5.608  47.251  52.402  1.00  0.00     0.170 HD
BRANCH   8  11
ATOM     11  C   UNL     1       7.476  46.673  53.023  1.00  0.00     0.041 A 
ATOM     12  C   UNL     1       8.119  47.108  54.184  1.00  0.00     0.026 A 
ATOM     13  C   UNL     1       8.249  46.390  51.889  1.00  0.00     0.026 A 
ATOM     14  C   UNL     1       9.509  47.257  54.211  1.00  0.00     0.002 A 
ATOM     15  C   UNL     1       9.639  46.539  51.917  1.00  0.00     0.002 A 
ATOM     16  C   UNL     1      10.268  46.972  53.079  1.00  0.00     0.000 A 
ENDBRANCH   8  11
ENDBRANCH   1   7
BRANCH   5  17
ATOM     17  C   UNL     1       2.639  43.338  53.040  1.00  0.00     0.339 C 
BRANCH  17  18
ATOM     18  C   UNL     1       1.359  43.788  53.744  1.00  0.00     0.165 C 
ATOM     19  N   UNL     1       1.444  44.546  54.790  1.00  0.00    -0.229 NA
ATOM     20  N   UNL     1       0.177  43.303  53.257  1.00  0.00    -0.305 N 
ATOM     21  C   UNL     1       0.249  44.883  55.457  1.00  0.00     0.078 A 
ATOM     22  C   UNL     1      -1.040  43.583  53.829  1.00  0.00     0.258 C 
ATOM     23  C   UNL     1       0.314  45.685  56.598  1.00  0.00     0.029 A 
ATOM     24  C   UNL     1      -1.003  44.430  55.030  1.00  0.00     0.065 A 
ATOM     25  C   UNL     1      -0.850  46.023  57.295  1.00  0.00     0.002 A 
ATOM     26  C   UNL     1      -2.174  44.765  55.715  1.00  0.00     0.016 A 
ATOM     27  C   UNL     1      -2.092  45.564  56.853  1.00  0.00     0.001 A 
ATOM     28  H   UNL     1       0.110  42.721  52.431  1.00  0.00     0.171 HD
ATOM     29  O   UNL     1      -2.079  43.143  53.355  1.00  0.00    -0.269 OA
ENDBRANCH  17  18
ENDBRANCH   5  17
TORSDOF 4
ENDMDL
