MODEL 1
REMARK VINA RESULT:    -8.258      0.000      0.000
REMARK INTER + INTRA:         -10.932
REMARK INTER:                 -10.189
REMARK INTRA:                  -0.742
REMARK UNBOUND:                -0.742
REMARK SMILES O=C(c1cccc2nc[nH]c12)N1CC[C@H](Nc2ncc(Cl)cn2)C1
REMARK SMILES IDX 12 1 13 2 14 3 15 4 24 5 2 6 1 7 3 8 4 9 11 10 5 11 10 12
REMARK SMILES IDX 7 13 6 14 9 15 8 16 16 18 17 20 18 21 23 22 19 23 22 24
REMARK SMILES IDX 20 25 21 26
REMARK H PARENT 10 17 16 19
ROOT
ATOM      1  N   UNL     1       4.314  44.994  52.912  1.00  0.00    -0.336 N 
ATOM      2  C   UNL     1       5.251  45.534  53.880  1.00  0.00     0.122 C 
ATOM      3  C   UNL     1       4.627  45.216  55.227  1.00  0.00     0.048 C 
ATOM      4  C   UNL     1       3.126  45.350  54.947  1.00  0.00     0.103 C 
ATOM      5  C   UNL     1       3.003  44.780  53.522  1.00  0.00     0.144 C 
ENDROOT
BRANCH   1   6
ATOM      6  C   UNL     1       4.589  45.061  51.560  1.00  0.00     0.256 C 
ATOM      7  O   UNL     1       4.355  46.046  50.868  1.00  0.00    -0.269 OA
BRANCH   6   8
ATOM      8  C   UNL     1       5.200  43.882  50.927  1.00  0.00     0.065 A 
ATOM      9  C   UNL     1       4.522  42.655  50.913  1.00  0.00     0.016 A 
ATOM     10  C   UNL     1       6.448  43.946  50.302  1.00  0.00     0.078 A 
ATOM     11  C   UNL     1       5.104  41.529  50.329  1.00  0.00     0.003 A 
ATOM     12  N   UNL     1       7.334  44.969  50.073  1.00  0.00    -0.344 N 
ATOM     13  C   UNL     1       7.046  42.835  49.718  1.00  0.00     0.089 A 
ATOM     14  C   UNL     1       6.372  41.602  49.735  1.00  0.00     0.030 A 
ATOM     15  C   UNL     1       8.412  44.449  49.413  1.00  0.00     0.197 A 
ATOM     16  N   UNL     1       8.270  43.162  49.190  1.00  0.00    -0.237 NA
ATOM     17  H   UNL     1       7.204  45.935  50.338  1.00  0.00     0.168 HD
ENDBRANCH   6   8
ENDBRANCH   1   6
BRANCH   4  18
ATOM     18  N   UNL     1       2.361  44.622  55.945  1.00  0.00    -0.350 N 
ATOM     19  H   UNL     1       2.253  43.623  55.803  1.00  0.00     0.164 HD
BRANCH  18  20
ATOM     20  C   UNL     1       1.100  45.121  56.222  1.00  0.00     0.222 A 
ATOM     21  N   UNL     1       1.040  46.012  57.221  1.00  0.00    -0.220 NA
ATOM     22  N   UNL     1       0.031  44.692  55.537  1.00  0.00    -0.220 NA
ATOM     23  C   UNL     1      -0.179  46.516  57.519  1.00  0.00     0.137 A 
ATOM     24  C   UNL     1      -1.166  45.225  55.870  1.00  0.00     0.137 A 
ATOM     25  C   UNL     1      -1.332  46.155  56.866  1.00  0.00     0.077 A 
ATOM     26  Cl  UNL     1      -2.857  46.809  57.267  1.00  0.00    -0.081 Cl
ENDBRANCH  18  20
ENDBRANCH   4  18
TORSDOF 4
ENDMDL
MODEL 2
REMARK VINA RESULT:    -8.187      1.142      1.905
REMARK INTER + INTRA:         -10.844
REMARK INTER:                 -10.249
REMARK INTRA:                  -0.595
REMARK UNBOUND:                -0.742
REMARK SMILES O=C(c1cccc2nc[nH]c12)N1CC[C@H](Nc2ncc(Cl)cn2)C1
REMARK SMILES IDX 12 1 13 2 14 3 15 4 24 5 2 6 1 7 3 8 4 9 11 10 5 11 10 12
REMARK SMILES IDX 7 13 6 14 9 15 8 16 16 18 17 20 18 21 23 22 19 23 22 24
REMARK SMILES IDX 20 25 21 26
REMARK H PARENT 10 17 16 19
ROOT
ATOM      1  N   UNL     1       4.483  45.304  52.736  1.00  0.00    -0.336 N 
ATOM      2  C   UNL     1       5.463  45.656  53.746  1.00  0.00     0.122 C 
ATOM      3  C   UNL     1       4.855  45.166  55.048  1.00  0.00     0.048 C 
ATOM      4  C   UNL     1       3.356  45.400  54.833  1.00  0.00     0.103 C 
ATOM      5  C   UNL     1       3.177  45.055  53.343  1.00  0.00     0.144 C 
ENDROOT
BRANCH   1   6
ATOM      6  C   UNL     1       4.731  45.562  51.402  1.00  0.00     0.256 C 
ATOM      7  O   UNL     1       4.148  46.428  50.758  1.00  0.00    -0.269 OA
BRANCH   6   8
ATOM      8  C   UNL     1       5.755  44.749  50.727  1.00  0.00     0.065 A 
ATOM      9  C   UNL     1       6.990  45.313  50.380  1.00  0.00     0.016 A 
ATOM     10  C   UNL     1       5.549  43.397  50.437  1.00  0.00     0.078 A 
ATOM     11  C   UNL     1       7.959  44.551  49.724  1.00  0.00     0.003 A 
ATOM     12  N   UNL     1       4.517  42.528  50.690  1.00  0.00    -0.344 N 
ATOM     13  C   UNL     1       6.500  42.623  49.783  1.00  0.00     0.089 A 
ATOM     14  C   UNL     1       7.723  43.205  49.411  1.00  0.00     0.030 A 
ATOM     15  C   UNL     1       4.857  41.313  50.166  1.00  0.00     0.197 A 
ATOM     16  N   UNL     1       6.045  41.340  49.607  1.00  0.00    -0.237 NA
ATOM     17  H   UNL     1       3.665  42.749  51.184  1.00  0.00     0.168 HD
ENDBRANCH   6   8
ENDBRANCH   1   6
BRANCH   4  18
ATOM     18  N   UNL     1       2.581  44.562  55.733  1.00  0.00    -0.350 N 
ATOM     19  H   UNL     1       2.566  43.567  55.536  1.00  0.00     0.164 HD
BRANCH  18  20
ATOM     20  C   UNL     1       1.268  44.947  55.936  1.00  0.00     0.222 A 
ATOM     21  N   UNL     1       1.058  45.750  56.988  1.00  0.00    -0.220 NA
ATOM     22  N   UNL     1       0.294  44.497  55.131  1.00  0.00    -0.220 NA
ATOM     23  C   UNL     1      -0.217  46.141  57.215  1.00  0.00     0.137 A 
ATOM     24  C   UNL     1      -0.965  44.915  55.398  1.00  0.00     0.137 A 
ATOM     25  C   UNL     1      -1.282  45.750  56.440  1.00  0.00     0.077 A 
ATOM     26  Cl  UNL     1      -2.880  46.261  56.754  1.00  0.00    -0.081 Cl
ENDBRANCH  18  20
ENDBRANCH   4  18
TORSDOF 4
ENDMDL
MODEL 3
REMARK VINA RESULT:    -8.136      2.180      3.162
REMARK INTER + INTRA:         -10.781
REMARK INTER:                 -10.184
REMARK INTRA:                  -0.597
REMARK UNBOUND:                -0.742
REMARK SMILES O=C(c1cccc2nc[nH]c12)N1CC[C@H](Nc2ncc(Cl)cn2)C1
REMARK SMILES IDX 12 1 13 2 14 3 15 4 24 5 2 6 1 7 3 8 4 9 11 10 5 11 10 12
REMARK SMILES IDX 7 13 6 14 9 15 8 16 16 18 17 20 18 21 23 22 19 23 22 24
REMARK SMILES IDX 20 25 21 26
REMARK H PARENT 10 17 16 19
ROOT
ATOM      1  N   UNL     1       5.772  46.283  53.571  1.00  0.00    -0.336 N 
ATOM      2  C   UNL     1       6.064  45.864  54.929  1.00  0.00     0.122 C 
ATOM      3  C   UNL     1       4.986  44.842  55.248  1.00  0.00     0.048 C 
ATOM      4  C   UNL     1       3.767  45.389  54.497  1.00  0.00     0.103 C 
ATOM      5  C   UNL     1       4.395  45.950  53.209  1.00  0.00     0.144 C 
ENDROOT
BRANCH   1   6
ATOM      6  C   UNL     1       6.594  47.187  52.927  1.00  0.00     0.256 C 
ATOM      7  O   UNL     1       6.282  48.353  52.709  1.00  0.00    -0.269 OA
BRANCH   6   8
ATOM      8  C   UNL     1       7.916  46.715  52.486  1.00  0.00     0.065 A 
ATOM      9  C   UNL     1       9.072  47.104  53.176  1.00  0.00     0.016 A 
ATOM     10  C   UNL     1       8.065  45.852  51.397  1.00  0.00     0.078 A 
ATOM     11  C   UNL     1      10.331  46.674  52.753  1.00  0.00     0.003 A 
ATOM     12  N   UNL     1       7.172  45.234  50.559  1.00  0.00    -0.344 N 
ATOM     13  C   UNL     1       9.309  45.415  50.958  1.00  0.00     0.089 A 
ATOM     14  C   UNL     1      10.465  45.835  51.637  1.00  0.00     0.030 A 
ATOM     15  C   UNL     1       7.886  44.499  49.655  1.00  0.00     0.197 A 
ATOM     16  N   UNL     1       9.179  44.593  49.866  1.00  0.00    -0.237 NA
ATOM     17  H   UNL     1       6.165  45.303  50.611  1.00  0.00     0.168 HD
ENDBRANCH   6   8
ENDBRANCH   1   6
BRANCH   4  18
ATOM     18  N   UNL     1       2.798  44.328  54.271  1.00  0.00    -0.350 N 
ATOM     19  H   UNL     1       2.615  44.071  53.308  1.00  0.00     0.164 HD
BRANCH  18  20
ATOM     20  C   UNL     1       1.567  44.497  54.879  1.00  0.00     0.222 A 
ATOM     21  N   UNL     1       1.596  45.055  56.096  1.00  0.00    -0.220 NA
ATOM     22  N   UNL     1       0.445  44.084  54.271  1.00  0.00    -0.220 NA
ATOM     23  C   UNL     1       0.407  45.229  56.719  1.00  0.00     0.137 A 
ATOM     24  C   UNL     1      -0.719  44.280  54.932  1.00  0.00     0.137 A 
ATOM     25  C   UNL     1      -0.798  44.857  56.175  1.00  0.00     0.077 A 
ATOM     26  Cl  UNL     1      -2.281  45.090  56.986  1.00  0.00    -0.081 Cl
ENDBRANCH  18  20
ENDBRANCH   4  18
TORSDOF 4
ENDMDL
MODEL 4
REMARK VINA RESULT:    -8.122      4.109      5.333
REMARK INTER + INTRA:         -10.764
REMARK INTER:                 -10.635
REMARK INTRA:                  -0.129
REMARK UNBOUND:                -0.742
REMARK SMILES O=C(c1cccc2nc[nH]c12)N1CC[C@H](Nc2ncc(Cl)cn2)C1
REMARK SMILES IDX 12 1 13 2 14 3 15 4 24 5 2 6 1 7 3 8 4 9 11 10 5 11 10 12
REMARK SMILES IDX 7 13 6 14 9 15 8 16 16 18 17 20 18 21 23 22 19 23 22 24
REMARK SMILES IDX 20 25 21 26
REMARK H PARENT 10 17 16 19
ROOT
ATOM      1  N   UNL     1       3.566  44.468  52.261  1.00  0.00    -0.336 N 
ATOM      2  C   UNL     1       2.665  45.369  51.569  1.00  0.00     0.122 C 
ATOM      3  C   UNL     1       3.097  46.754  52.018  1.00  0.00     0.048 C 
ATOM      4  C   UNL     1       3.529  46.521  53.470  1.00  0.00     0.103 C 
ATOM      5  C   UNL     1       4.196  45.135  53.399  1.00  0.00     0.144 C 
ENDROOT
BRANCH   1   6
ATOM      6  C   UNL     1       3.492  43.105  52.048  1.00  0.00     0.256 C 
ATOM      7  O   UNL     1       2.817  42.346  52.735  1.00  0.00    -0.269 OA
BRANCH   6   8
ATOM      8  C   UNL     1       4.266  42.545  50.929  1.00  0.00     0.065 A 
ATOM      9  C   UNL     1       3.812  41.401  50.257  1.00  0.00     0.016 A 
ATOM     10  C   UNL     1       5.449  43.139  50.482  1.00  0.00     0.078 A 
ATOM     11  C   UNL     1       4.551  40.856  49.206  1.00  0.00     0.003 A 
ATOM     12  N   UNL     1       6.129  44.272  50.850  1.00  0.00    -0.344 N 
ATOM     13  C   UNL     1       6.200  42.609  49.439  1.00  0.00     0.089 A 
ATOM     14  C   UNL     1       5.754  41.445  48.791  1.00  0.00     0.030 A 
ATOM     15  C   UNL     1       7.245  44.363  50.066  1.00  0.00     0.197 A 
ATOM     16  N   UNL     1       7.319  43.371  49.209  1.00  0.00    -0.237 NA
ATOM     17  H   UNL     1       5.846  44.926  51.566  1.00  0.00     0.168 HD
ENDBRANCH   6   8
ENDBRANCH   1   6
BRANCH   4  18
ATOM     18  N   UNL     1       4.418  47.584  53.907  1.00  0.00    -0.350 N 
ATOM     19  H   UNL     1       4.190  48.526  53.609  1.00  0.00     0.164 HD
BRANCH  18  20
ATOM     20  C   UNL     1       5.762  47.397  53.637  1.00  0.00     0.222 A 
ATOM     21  N   UNL     1       6.550  47.246  54.710  1.00  0.00    -0.220 NA
ATOM     22  N   UNL     1       6.211  47.407  52.374  1.00  0.00    -0.220 NA
ATOM     23  C   UNL     1       7.871  47.065  54.479  1.00  0.00     0.137 A 
ATOM     24  C   UNL     1       7.539  47.222  52.193  1.00  0.00     0.137 A 
ATOM     25  C   UNL     1       8.427  47.042  53.223  1.00  0.00     0.077 A 
ATOM     26  Cl  UNL     1      10.099  46.812  52.965  1.00  0.00    -0.081 Cl
ENDBRANCH  18  20
ENDBRANCH   4  18
TORSDOF 4
ENDMDL
MODEL 5
REMARK VINA RESULT:    -8.021      3.857      7.425
REMARK INTER + INTRA:         -10.639
REMARK INTER:                 -10.089
REMARK INTRA:                  -0.550
REMARK UNBOUND:                -0.742
REMARK SMILES O=C(c1cccc2nc[nH]c12)N1CC[C@H](Nc2ncc(Cl)cn2)C1
REMARK SMILES IDX 12 1 13 2 14 3 15 4 24 5 2 6 1 7 3 8 4 9 11 10 5 11 10 12
REMARK SMILES IDX 7 13 6 14 9 15 8 16 16 18 17 20 18 21 23 22 19 23 22 24
REMARK SMILES IDX 20 25 21 26
REMARK H PARENT 10 17 16 19
ROOT
ATOM      1  N   UNL     1       4.021  44.129  51.698  1.00  0.00    -0.336 N 
ATOM      2  C   UNL     1       3.327  45.305  51.209  1.00  0.00     0.122 C 
ATOM      3  C   UNL     1       4.438  46.269  50.831  1.00  0.00     0.048 C 
ATOM      4  C   UNL     1       5.514  45.976  51.882  1.00  0.00     0.103 C 
ATOM      5  C   UNL     1       5.401  44.451  52.057  1.00  0.00     0.144 C 
ENDROOT
BRANCH   1   6
ATOM      6  C   UNL     1       3.311  43.011  52.091  1.00  0.00     0.256 C 
ATOM      7  O   UNL     1       3.725  41.863  51.963  1.00  0.00    -0.269 OA
BRANCH   6   8
ATOM      8  C   UNL     1       1.988  43.221  52.699  1.00  0.00     0.065 A 
ATOM      9  C   UNL     1       0.843  42.669  52.109  1.00  0.00     0.016 A 
ATOM     10  C   UNL     1       1.829  43.943  53.885  1.00  0.00     0.078 A 
ATOM     11  C   UNL     1      -0.417  42.879  52.672  1.00  0.00     0.003 A 
ATOM     12  N   UNL     1       2.712  44.546  54.744  1.00  0.00    -0.344 N 
ATOM     13  C   UNL     1       0.583  44.165  54.459  1.00  0.00     0.089 A 
ATOM     14  C   UNL     1      -0.563  43.634  53.844  1.00  0.00     0.030 A 
ATOM     15  C   UNL     1       1.990  45.120  55.752  1.00  0.00     0.197 A 
ATOM     16  N   UNL     1       0.701  44.913  55.605  1.00  0.00    -0.237 NA
ATOM     17  H   UNL     1       3.718  44.553  54.650  1.00  0.00     0.168 HD
ENDBRANCH   6   8
ENDBRANCH   1   6
BRANCH   4  18
ATOM     18  N   UNL     1       6.814  46.423  51.409  1.00  0.00    -0.350 N 
ATOM     19  H   UNL     1       7.269  45.853  50.705  1.00  0.00     0.164 HD
BRANCH  18  20
ATOM     20  C   UNL     1       7.759  46.673  52.389  1.00  0.00     0.222 A 
ATOM     21  N   UNL     1       7.273  47.092  53.565  1.00  0.00    -0.220 NA
ATOM     22  N   UNL     1       9.066  46.528  52.127  1.00  0.00    -0.220 NA
ATOM     23  C   UNL     1       8.173  47.350  54.542  1.00  0.00     0.137 A 
ATOM     24  C   UNL     1       9.927  46.796  53.136  1.00  0.00     0.137 A 
ATOM     25  C   UNL     1       9.530  47.215  54.381  1.00  0.00     0.077 A 
ATOM     26  Cl  UNL     1      10.640  47.549  55.634  1.00  0.00    -0.081 Cl
ENDBRANCH  18  20
ENDBRANCH   4  18
TORSDOF 4
ENDMDL
MODEL 6
REMARK VINA RESULT:    -8.001      3.100      4.384
REMARK INTER + INTRA:         -10.614
REMARK INTER:                 -10.341
REMARK INTRA:                  -0.273
REMARK UNBOUND:                -0.742
REMARK SMILES O=C(c1cccc2nc[nH]c12)N1CC[C@H](Nc2ncc(Cl)cn2)C1
REMARK SMILES IDX 12 1 13 2 14 3 15 4 24 5 2 6 1 7 3 8 4 9 11 10 5 11 10 12
REMARK SMILES IDX 7 13 6 14 9 15 8 16 16 18 17 20 18 21 23 22 19 23 22 24
REMARK SMILES IDX 20 25 21 26
REMARK H PARENT 10 17 16 19
ROOT
ATOM      1  N   UNL     1       4.676  45.875  52.586  1.00  0.00    -0.336 N 
ATOM      2  C   UNL     1       3.843  45.983  51.403  1.00  0.00     0.122 C 
ATOM      3  C   UNL     1       2.922  44.778  51.480  1.00  0.00     0.048 C 
ATOM      4  C   UNL     1       3.818  43.705  52.108  1.00  0.00     0.103 C 
ATOM      5  C   UNL     1       4.646  44.516  53.121  1.00  0.00     0.144 C 
ENDROOT
BRANCH   1   6
ATOM      6  C   UNL     1       5.615  46.848  52.870  1.00  0.00     0.256 C 
ATOM      7  O   UNL     1       5.351  47.900  53.443  1.00  0.00    -0.269 OA
BRANCH   6   8
ATOM      8  C   UNL     1       7.006  46.595  52.462  1.00  0.00     0.065 A 
ATOM      9  C   UNL     1       7.284  46.019  51.215  1.00  0.00     0.016 A 
ATOM     10  C   UNL     1       8.087  46.941  53.277  1.00  0.00     0.078 A 
ATOM     11  C   UNL     1       8.600  45.761  50.829  1.00  0.00     0.003 A 
ATOM     12  N   UNL     1       8.184  47.566  54.495  1.00  0.00    -0.344 N 
ATOM     13  C   UNL     1       9.405  46.690  52.912  1.00  0.00     0.089 A 
ATOM     14  C   UNL     1       9.672  46.084  51.674  1.00  0.00     0.030 A 
ATOM     15  C   UNL     1       9.508  47.636  54.825  1.00  0.00     0.197 A 
ATOM     16  N   UNL     1      10.269  47.110  53.893  1.00  0.00    -0.237 NA
ATOM     17  H   UNL     1       7.412  47.920  55.042  1.00  0.00     0.168 HD
ENDBRANCH   6   8
ENDBRANCH   1   6
BRANCH   4  18
ATOM     18  N   UNL     1       3.005  42.659  52.708  1.00  0.00    -0.350 N 
ATOM     19  H   UNL     1       2.917  41.792  52.191  1.00  0.00     0.164 HD
BRANCH  18  20
ATOM     20  C   UNL     1       1.726  43.030  53.082  1.00  0.00     0.222 A 
ATOM     21  N   UNL     1       0.742  42.591  52.285  1.00  0.00    -0.220 NA
ATOM     22  N   UNL     1       1.528  43.806  54.157  1.00  0.00    -0.220 NA
ATOM     23  C   UNL     1      -0.521  42.941  52.622  1.00  0.00     0.137 A 
ATOM     24  C   UNL     1       0.249  44.129  54.454  1.00  0.00     0.137 A 
ATOM     25  C   UNL     1      -0.830  43.717  53.712  1.00  0.00     0.077 A 
ATOM     26  Cl  UNL     1      -2.435  44.141  54.111  1.00  0.00    -0.081 Cl
ENDBRANCH  18  20
ENDBRANCH   4  18
TORSDOF 4
ENDMDL
MODEL 7
REMARK VINA RESULT:    -7.946      3.189      4.216
REMARK INTER + INTRA:         -10.547
REMARK INTER:                  -9.895
REMARK INTRA:                  -0.652
REMARK UNBOUND:                -0.742
REMARK SMILES O=C(c1cccc2nc[nH]c12)N1CC[C@H](Nc2ncc(Cl)cn2)C1
REMARK SMILES IDX 12 1 13 2 14 3 15 4 24 5 2 6 1 7 3 8 4 9 11 10 5 11 10 12
REMARK SMILES IDX 7 13 6 14 9 15 8 16 16 18 17 20 18 21 23 22 19 23 22 24
REMARK SMILES IDX 20 25 21 26
REMARK H PARENT 10 17 16 19
ROOT
ATOM      1  N   UNL     1       6.116  46.266  53.411  1.00  0.00    -0.336 N 
ATOM      2  C   UNL     1       6.031  46.307  54.859  1.00  0.00     0.122 C 
ATOM      3  C   UNL     1       5.034  45.216  55.209  1.00  0.00     0.048 C 
ATOM      4  C   UNL     1       4.044  45.274  54.041  1.00  0.00     0.103 C 
ATOM      5  C   UNL     1       4.962  45.573  52.842  1.00  0.00     0.144 C 
ENDROOT
BRANCH   1   6
ATOM      6  C   UNL     1       6.983  47.105  52.738  1.00  0.00     0.256 C 
ATOM      7  O   UNL     1       6.753  48.291  52.527  1.00  0.00    -0.269 OA
BRANCH   6   8
ATOM      8  C   UNL     1       8.250  46.535  52.256  1.00  0.00     0.065 A 
ATOM      9  C   UNL     1       9.452  46.820  52.919  1.00  0.00     0.016 A 
ATOM     10  C   UNL     1       8.300  45.678  51.153  1.00  0.00     0.078 A 
ATOM     11  C   UNL     1      10.660  46.295  52.457  1.00  0.00     0.003 A 
ATOM     12  N   UNL     1       7.338  45.144  50.333  1.00  0.00    -0.344 N 
ATOM     13  C   UNL     1       9.493  45.147  50.676  1.00  0.00     0.089 A 
ATOM     14  C   UNL     1      10.697  45.463  51.328  1.00  0.00     0.030 A 
ATOM     15  C   UNL     1       7.967  44.367  49.401  1.00  0.00     0.197 A 
ATOM     16  N   UNL     1       9.268  44.354  49.578  1.00  0.00    -0.237 NA
ATOM     17  H   UNL     1       6.342  45.294  50.413  1.00  0.00     0.168 HD
ENDBRANCH   6   8
ENDBRANCH   1   6
BRANCH   4  18
ATOM     18  N   UNL     1       3.319  44.018  53.933  1.00  0.00    -0.350 N 
ATOM     19  H   UNL     1       3.848  43.207  53.632  1.00  0.00     0.164 HD
BRANCH  18  20
ATOM     20  C   UNL     1       2.168  44.050  53.167  1.00  0.00     0.222 A 
ATOM     21  N   UNL     1       1.889  42.923  52.499  1.00  0.00    -0.220 NA
ATOM     22  N   UNL     1       1.426  45.165  53.097  1.00  0.00    -0.220 NA
ATOM     23  C   UNL     1       0.771  42.924  51.736  1.00  0.00     0.137 A 
ATOM     24  C   UNL     1       0.318  45.117  52.323  1.00  0.00     0.137 A 
ATOM     25  C   UNL     1      -0.064  44.007  51.612  1.00  0.00     0.077 A 
ATOM     26  Cl  UNL     1      -1.467  43.976  50.641  1.00  0.00    -0.081 Cl
ENDBRANCH  18  20
ENDBRANCH   4  18
TORSDOF 4
ENDMDL
MODEL 8
REMARK VINA RESULT:    -7.945      4.209      5.743
REMARK INTER + INTRA:         -10.545
REMARK INTER:                 -10.059
REMARK INTRA:                  -0.487
REMARK UNBOUND:                -0.742
REMARK SMILES O=C(c1cccc2nc[nH]c12)N1CC[C@H](Nc2ncc(Cl)cn2)C1
REMARK SMILES IDX 12 1 13 2 14 3 15 4 24 5 2 6 1 7 3 8 4 9 11 10 5 11 10 12
REMARK SMILES IDX 7 13 6 14 9 15 8 16 16 18 17 20 18 21 23 22 19 23 22 24
REMARK SMILES IDX 20 25 21 26
REMARK H PARENT 10 17 16 19
ROOT
ATOM      1  N   UNL     1       3.675  44.534  52.581  1.00  0.00    -0.336 N 
ATOM      2  C   UNL     1       2.543  45.405  52.330  1.00  0.00     0.122 C 
ATOM      3  C   UNL     1       2.958  46.743  52.916  1.00  0.00     0.048 C 
ATOM      4  C   UNL     1       3.791  46.335  54.136  1.00  0.00     0.103 C 
ATOM      5  C   UNL     1       4.532  45.085  53.629  1.00  0.00     0.144 C 
ENDROOT
BRANCH   1   6
ATOM      6  C   UNL     1       3.666  43.228  52.131  1.00  0.00     0.256 C 
ATOM      7  O   UNL     1       2.956  42.350  52.610  1.00  0.00    -0.269 OA
BRANCH   6   8
ATOM      8  C   UNL     1       4.558  42.883  51.013  1.00  0.00     0.065 A 
ATOM      9  C   UNL     1       5.748  43.596  50.813  1.00  0.00     0.016 A 
ATOM     10  C   UNL     1       4.272  41.831  50.140  1.00  0.00     0.078 A 
ATOM     11  C   UNL     1       6.591  43.285  49.744  1.00  0.00     0.003 A 
ATOM     12  N   UNL     1       3.260  40.905  50.083  1.00  0.00    -0.344 N 
ATOM     13  C   UNL     1       5.096  41.507  49.068  1.00  0.00     0.089 A 
ATOM     14  C   UNL     1       6.271  42.247  48.856  1.00  0.00     0.030 A 
ATOM     15  C   UNL     1       3.485  40.107  48.997  1.00  0.00     0.197 A 
ATOM     16  N   UNL     1       4.581  40.449  48.361  1.00  0.00    -0.237 NA
ATOM     17  H   UNL     1       2.494  40.825  50.736  1.00  0.00     0.168 HD
ENDBRANCH   6   8
ENDBRANCH   1   6
BRANCH   4  18
ATOM     18  N   UNL     1       4.669  47.425  54.532  1.00  0.00    -0.350 N 
ATOM     19  H   UNL     1       4.338  48.367  54.360  1.00  0.00     0.164 HD
BRANCH  18  20
ATOM     20  C   UNL     1       5.963  47.363  54.047  1.00  0.00     0.222 A 
ATOM     21  N   UNL     1       6.903  47.057  54.951  1.00  0.00    -0.220 NA
ATOM     22  N   UNL     1       6.222  47.634  52.760  1.00  0.00    -0.220 NA
ATOM     23  C   UNL     1       8.180  46.994  54.509  1.00  0.00     0.137 A 
ATOM     24  C   UNL     1       7.513  47.557  52.365  1.00  0.00     0.137 A 
ATOM     25  C   UNL     1       8.547  47.236  53.208  1.00  0.00     0.077 A 
ATOM     26  Cl  UNL     1      10.169  47.148  52.681  1.00  0.00    -0.081 Cl
ENDBRANCH  18  20
ENDBRANCH   4  18
TORSDOF 4
ENDMDL
MODEL 9
REMARK VINA RESULT:    -7.866      2.452      3.333
REMARK INTER + INTRA:         -10.447
REMARK INTER:                 -10.299
REMARK INTRA:                  -0.149
REMARK UNBOUND:                -0.742
REMARK SMILES O=C(c1cccc2nc[nH]c12)N1CC[C@H](Nc2ncc(Cl)cn2)C1
REMARK SMILES IDX 12 1 13 2 14 3 15 4 24 5 2 6 1 7 3 8 4 9 11 10 5 11 10 12
REMARK SMILES IDX 7 13 6 14 9 15 8 16 16 18 17 20 18 21 23 22 19 23 22 24
REMARK SMILES IDX 20 25 21 26
REMARK H PARENT 10 17 16 19
ROOT
ATOM      1  N   UNL     1       3.977  46.290  53.331  1.00  0.00    -0.336 N 
ATOM      2  C   UNL     1       2.906  46.682  52.435  1.00  0.00     0.122 C 
ATOM      3  C   UNL     1       1.781  45.709  52.743  1.00  0.00     0.048 C 
ATOM      4  C   UNL     1       2.533  44.414  53.071  1.00  0.00     0.103 C 
ATOM      5  C   UNL     1       3.771  44.930  53.825  1.00  0.00     0.144 C 
ENDROOT
BRANCH   1   6
ATOM      6  C   UNL     1       5.161  47.002  53.359  1.00  0.00     0.256 C 
ATOM      7  O   UNL     1       5.348  47.980  54.075  1.00  0.00    -0.269 OA
BRANCH   6   8
ATOM      8  C   UNL     1       6.251  46.551  52.481  1.00  0.00     0.065 A 
ATOM      9  C   UNL     1       5.964  45.855  51.298  1.00  0.00     0.016 A 
ATOM     10  C   UNL     1       7.591  46.818  52.773  1.00  0.00     0.078 A 
ATOM     11  C   UNL     1       6.995  45.409  50.469  1.00  0.00     0.003 A 
ATOM     12  N   UNL     1       8.213  47.513  53.779  1.00  0.00    -0.344 N 
ATOM     13  C   UNL     1       8.632  46.380  51.962  1.00  0.00     0.089 A 
ATOM     14  C   UNL     1       8.336  45.657  50.794  1.00  0.00     0.030 A 
ATOM     15  C   UNL     1       9.561  47.442  53.565  1.00  0.00     0.197 A 
ATOM     16  N   UNL     1       9.845  46.759  52.480  1.00  0.00    -0.237 NA
ATOM     17  H   UNL     1       7.753  47.998  54.536  1.00  0.00     0.168 HD
ENDBRANCH   6   8
ENDBRANCH   1   6
BRANCH   4  18
ATOM     18  N   UNL     1       1.688  43.527  53.854  1.00  0.00    -0.350 N 
ATOM     19  H   UNL     1       1.139  42.845  53.342  1.00  0.00     0.164 HD
BRANCH  18  20
ATOM     20  C   UNL     1       0.826  44.144  54.743  1.00  0.00     0.222 A 
ATOM     21  N   UNL     1      -0.472  44.093  54.417  1.00  0.00    -0.220 NA
ATOM     22  N   UNL     1       1.302  44.771  55.829  1.00  0.00    -0.220 NA
ATOM     23  C   UNL     1      -1.340  44.691  55.266  1.00  0.00     0.137 A 
ATOM     24  C   UNL     1       0.396  45.354  56.646  1.00  0.00     0.137 A 
ATOM     25  C   UNL     1      -0.956  45.344  56.411  1.00  0.00     0.077 A 
ATOM     26  Cl  UNL     1      -2.076  46.090  57.461  1.00  0.00    -0.081 Cl
ENDBRANCH  18  20
ENDBRANCH   4  18
TORSDOF 4
ENDMDL
MODEL 10
REMARK VINA RESULT:    -7.807      4.000      7.771
REMARK INTER + INTRA:         -10.375
REMARK INTER:                  -9.662
REMARK INTRA:                  -0.714
REMARK UNBOUND:                -0.742
REMARK SMILES O=C(c1cccc2nc[nH]c12)N1CC[C@H](Nc2ncc(Cl)cn2)C1
REMARK SMILES IDX 12 1 13 2 14 3 15 4 24 5 2 6 1 7 3 8 4 9 11 10 5 11 10 12
REMARK SMILES IDX 7 13 6 14 9 15 8 16 16 18 17 20 18 21 23 22 19 23 22 24
REMARK SMILES IDX 20 25 21 26
REMARK H PARENT 10 17 16 19
ROOT
ATOM      1  N   UNL     1       3.743  44.319  51.968  1.00  0.00    -0.336 N 
ATOM      2  C   UNL     1       3.178  45.478  51.304  1.00  0.00     0.122 C 
ATOM      3  C   UNL     1       4.385  46.254  50.807  1.00  0.00     0.048 C 
ATOM      4  C   UNL     1       5.424  46.006  51.906  1.00  0.00     0.103 C 
ATOM      5  C   UNL     1       5.149  44.543  52.298  1.00  0.00     0.144 C 
ENDROOT
BRANCH   1   6
ATOM      6  C   UNL     1       2.918  43.351  52.508  1.00  0.00     0.256 C 
ATOM      7  O   UNL     1       3.033  42.153  52.272  1.00  0.00    -0.269 OA
BRANCH   6   8
ATOM      8  C   UNL     1       1.850  43.794  53.417  1.00  0.00     0.065 A 
ATOM      9  C   UNL     1       2.155  44.577  54.538  1.00  0.00     0.016 A 
ATOM     10  C   UNL     1       0.508  43.478  53.186  1.00  0.00     0.078 A 
ATOM     11  C   UNL     1       1.147  44.986  55.414  1.00  0.00     0.003 A 
ATOM     12  N   UNL     1      -0.140  42.807  52.179  1.00  0.00    -0.344 N 
ATOM     13  C   UNL     1      -0.509  43.872  54.047  1.00  0.00     0.089 A 
ATOM     14  C   UNL     1      -0.190  44.632  55.185  1.00  0.00     0.030 A 
ATOM     15  C   UNL     1      -1.473  42.791  52.478  1.00  0.00     0.197 A 
ATOM     16  N   UNL     1      -1.726  43.421  53.602  1.00  0.00    -0.237 NA
ATOM     17  H   UNL     1       0.295  42.406  51.360  1.00  0.00     0.168 HD
ENDBRANCH   6   8
ENDBRANCH   1   6
BRANCH   4  18
ATOM     18  N   UNL     1       6.764  46.241  51.393  1.00  0.00    -0.350 N 
ATOM     19  H   UNL     1       7.157  45.527  50.790  1.00  0.00     0.164 HD
BRANCH  18  20
ATOM     20  C   UNL     1       7.729  46.536  52.340  1.00  0.00     0.222 A 
ATOM     21  N   UNL     1       7.264  46.909  53.540  1.00  0.00    -0.220 NA
ATOM     22  N   UNL     1       9.032  46.475  52.028  1.00  0.00    -0.220 NA
ATOM     23  C   UNL     1       8.183  47.209  54.486  1.00  0.00     0.137 A 
ATOM     24  C   UNL     1       9.912  46.783  53.007  1.00  0.00     0.137 A 
ATOM     25  C   UNL     1       9.539  47.160  54.272  1.00  0.00     0.077 A 
ATOM     26  Cl  UNL     1      10.674  47.546  55.488  1.00  0.00    -0.081 Cl
ENDBRANCH  18  20
ENDBRANCH   4  18
TORSDOF 4
ENDMDL
