MODEL 1
REMARK VINA RESULT:   -10.367      0.000      0.000
REMARK INTER + INTRA:         -15.365
REMARK INTER:                 -14.004
REMARK INTRA:                  -1.362
REMARK UNBOUND:                -1.362
REMARK SMILES O=C(CCc1nc2ccccc2c(=O)[nH]1)NC(c1ccccc1)C1CCCCC1
REMARK SMILES IDX 3 1 2 2 16 3 1 4 17 6 18 7 19 8 23 9 20 10 22 11 21 12 24 13
REMARK SMILES IDX 25 14 29 15 26 16 28 17 27 18 4 19 5 20 6 21 15 22 7 23
REMARK SMILES IDX 13 24 8 25 12 26 9 27 11 28 10 29 14 31
REMARK H PARENT 16 5 15 30
ROOT
ATOM      1  C   UNL     1       3.931  47.566  53.174  1.00  0.00     0.108 C 
ENDROOT
BRANCH   1   2
ATOM      2  C   UNL     1       5.208  46.750  53.277  1.00  0.00     0.220 C 
ATOM      3  N   UNL     1       5.916  46.701  52.098  1.00  0.00    -0.349 N 
ATOM      4  O   UNL     1       5.558  46.197  54.320  1.00  0.00    -0.275 OA
ATOM      5  H   UNL     1       5.523  47.135  51.268  1.00  0.00     0.164 HD
BRANCH   3   6
ATOM      6  C   UNL     1       7.188  45.990  51.949  1.00  0.00     0.115 C 
BRANCH   6   7
ATOM      7  C   UNL     1       6.991  44.913  50.887  1.00  0.00    -0.025 A 
ATOM      8  C   UNL     1       7.949  44.766  49.866  1.00  0.00     0.006 A 
ATOM      9  C   UNL     1       5.889  44.034  50.911  1.00  0.00     0.006 A 
ATOM     10  C   UNL     1       7.807  43.777  48.889  1.00  0.00     0.000 A 
ATOM     11  C   UNL     1       5.751  43.044  49.934  1.00  0.00     0.000 A 
ATOM     12  C   UNL     1       6.710  42.917  48.924  1.00  0.00     0.000 A 
ENDBRANCH   6   7
BRANCH   6  13
ATOM     13  C   UNL     1       8.353  46.986  51.634  1.00  0.00     0.016 C 
ATOM     14  C   UNL     1       8.237  48.304  52.434  1.00  0.00     0.006 C 
ATOM     15  C   UNL     1       9.756  46.383  51.878  1.00  0.00     0.006 C 
ATOM     16  C   UNL     1       8.557  48.135  53.922  1.00  0.00     0.000 C 
ATOM     17  C   UNL     1      10.062  46.176  53.362  1.00  0.00     0.000 C 
ATOM     18  C   UNL     1       9.924  47.483  54.137  1.00  0.00     0.000 C 
ENDBRANCH   6  13
ENDBRANCH   3   6
ENDBRANCH   1   2
BRANCH   1  19
ATOM     19  C   UNL     1       3.149  47.214  51.913  1.00  0.00     0.085 C 
BRANCH  19  20
ATOM     20  C   UNL     1       2.325  45.970  52.158  1.00  0.00     0.110 C 
ATOM     21  N   UNL     1       1.447  45.944  53.111  1.00  0.00    -0.235 NA
ATOM     22  N   UNL     1       2.603  44.897  51.353  1.00  0.00    -0.310 N 
ATOM     23  C   UNL     1       0.744  44.745  53.319  1.00  0.00     0.078 A 
ATOM     24  C   UNL     1       1.989  43.678  51.486  1.00  0.00     0.258 C 
ATOM     25  C   UNL     1      -0.217  44.692  54.337  1.00  0.00     0.029 A 
ATOM     26  C   UNL     1       0.977  43.593  52.556  1.00  0.00     0.065 A 
ATOM     27  C   UNL     1      -0.933  43.515  54.581  1.00  0.00     0.002 A 
ATOM     28  C   UNL     1       0.272  42.408  52.795  1.00  0.00     0.016 A 
ATOM     29  C   UNL     1      -0.688  42.373  53.813  1.00  0.00     0.001 A 
ATOM     30  H   UNL     1       3.399  44.923  50.722  1.00  0.00     0.171 HD
ATOM     31  O   UNL     1       2.254  42.724  50.759  1.00  0.00    -0.269 OA
ENDBRANCH  19  20
ENDBRANCH   1  19
TORSDOF 6
ENDMDL
MODEL 2
REMARK VINA RESULT:   -10.309      1.536      2.024
REMARK INTER + INTRA:         -15.286
REMARK INTER:                 -14.178
REMARK INTRA:                  -1.109
REMARK UNBOUND:                -1.362
REMARK SMILES O=C(CCc1nc2ccccc2c(=O)[nH]1)NC(c1ccccc1)C1CCCCC1
REMARK SMILES IDX 3 1 2 2 16 3 1 4 17 6 18 7 19 8 23 9 20 10 22 11 21 12 24 13
REMARK SMILES IDX 25 14 29 15 26 16 28 17 27 18 4 19 5 20 6 21 15 22 7 23
REMARK SMILES IDX 13 24 8 25 12 26 9 27 11 28 10 29 14 31
REMARK H PARENT 16 5 15 30
ROOT
ATOM      1  C   UNL     1       3.758  47.525  52.906  1.00  0.00     0.108 C 
ENDROOT
BRANCH   1   2
ATOM      2  C   UNL     1       5.033  46.716  53.078  1.00  0.00     0.220 C 
ATOM      3  N   UNL     1       5.786  46.641  51.929  1.00  0.00    -0.349 N 
ATOM      4  O   UNL     1       5.343  46.192  54.147  1.00  0.00    -0.275 OA
ATOM      5  H   UNL     1       5.424  47.052  51.075  1.00  0.00     0.164 HD
BRANCH   3   6
ATOM      6  C   UNL     1       7.065  45.932  51.848  1.00  0.00     0.115 C 
BRANCH   6   7
ATOM      7  C   UNL     1       6.898  44.798  50.841  1.00  0.00    -0.025 A 
ATOM      8  C   UNL     1       5.768  43.963  50.923  1.00  0.00     0.006 A 
ATOM      9  C   UNL     1       7.829  44.577  49.805  1.00  0.00     0.006 A 
ATOM     10  C   UNL     1       5.576  42.927  50.005  1.00  0.00     0.000 A 
ATOM     11  C   UNL     1       7.633  43.541  48.887  1.00  0.00     0.000 A 
ATOM     12  C   UNL     1       6.507  42.718  48.987  1.00  0.00     0.000 A 
ENDBRANCH   6   7
BRANCH   6  13
ATOM     13  C   UNL     1       8.231  46.917  51.506  1.00  0.00     0.016 C 
ATOM     14  C   UNL     1       8.109  48.263  52.258  1.00  0.00     0.006 C 
ATOM     15  C   UNL     1       9.633  46.325  51.781  1.00  0.00     0.006 C 
ATOM     16  C   UNL     1       8.418  48.146  53.754  1.00  0.00     0.000 C 
ATOM     17  C   UNL     1       9.928  46.170  53.274  1.00  0.00     0.000 C 
ATOM     18  C   UNL     1       9.784  47.504  54.002  1.00  0.00     0.000 C 
ENDBRANCH   6  13
ENDBRANCH   3   6
ENDBRANCH   1   2
BRANCH   1  19
ATOM     19  C   UNL     1       2.772  46.814  51.984  1.00  0.00     0.085 C 
BRANCH  19  20
ATOM     20  C   UNL     1       1.752  46.066  52.813  1.00  0.00     0.110 C 
ATOM     21  N   UNL     1       0.618  45.715  52.294  1.00  0.00    -0.235 NA
ATOM     22  N   UNL     1       2.091  45.841  54.121  1.00  0.00    -0.310 N 
ATOM     23  C   UNL     1      -0.307  45.062  53.127  1.00  0.00     0.078 A 
ATOM     24  C   UNL     1       1.254  45.230  55.020  1.00  0.00     0.258 C 
ATOM     25  C   UNL     1      -1.537  44.663  52.589  1.00  0.00     0.029 A 
ATOM     26  C   UNL     1      -0.053  44.807  54.481  1.00  0.00     0.065 A 
ATOM     27  C   UNL     1      -2.489  44.017  53.387  1.00  0.00     0.002 A 
ATOM     28  C   UNL     1      -0.999  44.167  55.291  1.00  0.00     0.016 A 
ATOM     29  C   UNL     1      -2.221  43.771  54.737  1.00  0.00     0.001 A 
ATOM     30  H   UNL     1       2.926  46.265  54.514  1.00  0.00     0.171 HD
ATOM     31  O   UNL     1       1.571  45.040  56.191  1.00  0.00    -0.269 OA
ENDBRANCH  19  20
ENDBRANCH   1  19
TORSDOF 6
ENDMDL
MODEL 3
REMARK VINA RESULT:   -10.260      1.225      1.635
REMARK INTER + INTRA:         -15.221
REMARK INTER:                 -14.046
REMARK INTRA:                  -1.175
REMARK UNBOUND:                -1.362
REMARK SMILES O=C(CCc1nc2ccccc2c(=O)[nH]1)NC(c1ccccc1)C1CCCCC1
REMARK SMILES IDX 3 1 2 2 16 3 1 4 17 6 18 7 19 8 23 9 20 10 22 11 21 12 24 13
REMARK SMILES IDX 25 14 29 15 26 16 28 17 27 18 4 19 5 20 6 21 15 22 7 23
REMARK SMILES IDX 13 24 8 25 12 26 9 27 11 28 10 29 14 31
REMARK H PARENT 16 5 15 30
ROOT
ATOM      1  C   UNL     1       4.075  47.919  53.474  1.00  0.00     0.108 C 
ENDROOT
BRANCH   1   2
ATOM      2  C   UNL     1       5.284  47.001  53.546  1.00  0.00     0.220 C 
ATOM      3  N   UNL     1       5.921  46.849  52.337  1.00  0.00    -0.349 N 
ATOM      4  O   UNL     1       5.641  46.460  54.592  1.00  0.00    -0.275 OA
ATOM      5  H   UNL     1       5.523  47.284  51.511  1.00  0.00     0.164 HD
BRANCH   3   6
ATOM      6  C   UNL     1       7.121  46.028  52.154  1.00  0.00     0.115 C 
BRANCH   6   7
ATOM      7  C   UNL     1       6.777  44.930  51.153  1.00  0.00    -0.025 A 
ATOM      8  C   UNL     1       7.648  44.680  50.076  1.00  0.00     0.006 A 
ATOM      9  C   UNL     1       5.624  44.130  51.289  1.00  0.00     0.006 A 
ATOM     10  C   UNL     1       7.371  43.669  49.152  1.00  0.00     0.000 A 
ATOM     11  C   UNL     1       5.351  43.118  50.364  1.00  0.00     0.000 A 
ATOM     12  C   UNL     1       6.224  42.888  49.297  1.00  0.00     0.000 A 
ENDBRANCH   6   7
BRANCH   6  13
ATOM     13  C   UNL     1       8.344  46.908  51.735  1.00  0.00     0.016 C 
ATOM     14  C   UNL     1       8.357  48.281  52.446  1.00  0.00     0.006 C 
ATOM     15  C   UNL     1       9.707  46.216  51.975  1.00  0.00     0.006 C 
ATOM     16  C   UNL     1       8.717  48.186  53.932  1.00  0.00     0.000 C 
ATOM     17  C   UNL     1      10.050  46.084  53.460  1.00  0.00     0.000 C 
ATOM     18  C   UNL     1      10.039  47.447  54.148  1.00  0.00     0.000 C 
ENDBRANCH   6  13
ENDBRANCH   3   6
ENDBRANCH   1   2
BRANCH   1  19
ATOM     19  C   UNL     1       3.161  47.540  52.313  1.00  0.00     0.085 C 
BRANCH  19  20
ATOM     20  C   UNL     1       2.386  46.290  52.666  1.00  0.00     0.110 C 
ATOM     21  N   UNL     1       1.734  45.645  51.750  1.00  0.00    -0.235 NA
ATOM     22  N   UNL     1       2.389  45.935  53.988  1.00  0.00    -0.310 N 
ATOM     23  C   UNL     1       0.996  44.516  52.147  1.00  0.00     0.078 A 
ATOM     24  C   UNL     1       1.688  44.864  54.482  1.00  0.00     0.258 C 
ATOM     25  C   UNL     1       0.289  43.795  51.177  1.00  0.00     0.029 A 
ATOM     26  C   UNL     1       0.928  44.091  53.481  1.00  0.00     0.065 A 
ATOM     27  C   UNL     1      -0.464  42.670  51.532  1.00  0.00     0.002 A 
ATOM     28  C   UNL     1       0.173  42.971  53.849  1.00  0.00     0.016 A 
ATOM     29  C   UNL     1      -0.524  42.259  52.867  1.00  0.00     0.001 A 
ATOM     30  H   UNL     1       2.794  46.555  54.685  1.00  0.00     0.171 HD
ATOM     31  O   UNL     1       1.697  44.562  55.672  1.00  0.00    -0.269 OA
ENDBRANCH  19  20
ENDBRANCH   1  19
TORSDOF 6
ENDMDL
MODEL 4
REMARK VINA RESULT:   -10.215      1.218      1.743
REMARK INTER + INTRA:         -15.159
REMARK INTER:                 -14.136
REMARK INTRA:                  -1.023
REMARK UNBOUND:                -1.362
REMARK SMILES O=C(CCc1nc2ccccc2c(=O)[nH]1)NC(c1ccccc1)C1CCCCC1
REMARK SMILES IDX 3 1 2 2 16 3 1 4 17 6 18 7 19 8 23 9 20 10 22 11 21 12 24 13
REMARK SMILES IDX 25 14 29 15 26 16 28 17 27 18 4 19 5 20 6 21 15 22 7 23
REMARK SMILES IDX 13 24 8 25 12 26 9 27 11 28 10 29 14 31
REMARK H PARENT 16 5 15 30
ROOT
ATOM      1  C   UNL     1       3.747  47.265  53.086  1.00  0.00     0.108 C 
ENDROOT
BRANCH   1   2
ATOM      2  C   UNL     1       5.087  46.557  53.192  1.00  0.00     0.220 C 
ATOM      3  N   UNL     1       5.763  46.495  51.995  1.00  0.00    -0.349 N 
ATOM      4  O   UNL     1       5.508  46.094  54.252  1.00  0.00    -0.275 OA
ATOM      5  H   UNL     1       5.314  46.849  51.157  1.00  0.00     0.164 HD
BRANCH   3   6
ATOM      6  C   UNL     1       7.083  45.877  51.844  1.00  0.00     0.115 C 
BRANCH   6   7
ATOM      7  C   UNL     1       6.956  44.773  50.800  1.00  0.00    -0.025 A 
ATOM      8  C   UNL     1       5.852  43.900  50.848  1.00  0.00     0.006 A 
ATOM      9  C   UNL     1       7.897  44.615  49.763  1.00  0.00     0.006 A 
ATOM     10  C   UNL     1       5.697  42.890  49.895  1.00  0.00     0.000 A 
ATOM     11  C   UNL     1       7.738  43.605  48.810  1.00  0.00     0.000 A 
ATOM     12  C   UNL     1       6.638  42.744  48.877  1.00  0.00     0.000 A 
ENDBRANCH   6   7
BRANCH   6  13
ATOM     13  C   UNL     1       8.168  46.951  51.504  1.00  0.00     0.016 C 
ATOM     14  C   UNL     1       8.045  48.217  52.384  1.00  0.00     0.006 C 
ATOM     15  C   UNL     1       9.615  46.414  51.613  1.00  0.00     0.006 C 
ATOM     16  C   UNL     1       8.482  47.987  53.834  1.00  0.00     0.000 C 
ATOM     17  C   UNL     1      10.039  46.146  53.058  1.00  0.00     0.000 C 
ATOM     18  C   UNL     1       9.894  47.401  53.914  1.00  0.00     0.000 C 
ENDBRANCH   6  13
ENDBRANCH   3   6
ENDBRANCH   1   2
BRANCH   1  19
ATOM     19  C   UNL     1       2.832  46.572  52.082  1.00  0.00     0.085 C 
BRANCH  19  20
ATOM     20  C   UNL     1       1.673  45.931  52.811  1.00  0.00     0.110 C 
ATOM     21  N   UNL     1       1.616  45.962  54.105  1.00  0.00    -0.235 NA
ATOM     22  N   UNL     1       0.746  45.297  52.026  1.00  0.00    -0.310 N 
ATOM     23  C   UNL     1       0.537  45.310  54.728  1.00  0.00     0.078 A 
ATOM     24  C   UNL     1      -0.331  44.617  52.533  1.00  0.00     0.258 C 
ATOM     25  C   UNL     1       0.447  45.335  56.125  1.00  0.00     0.029 A 
ATOM     26  C   UNL     1      -0.446  44.622  54.005  1.00  0.00     0.065 A 
ATOM     27  C   UNL     1      -0.607  44.692  56.784  1.00  0.00     0.002 A 
ATOM     28  C   UNL     1      -1.501  43.969  54.652  1.00  0.00     0.016 A 
ATOM     29  C   UNL     1      -1.579  44.008  56.049  1.00  0.00     0.001 A 
ATOM     30  H   UNL     1       0.914  45.176  51.031  1.00  0.00     0.171 HD
ATOM     31  O   UNL     1      -1.151  44.049  51.816  1.00  0.00    -0.269 OA
ENDBRANCH  19  20
ENDBRANCH   1  19
TORSDOF 6
ENDMDL
MODEL 5
REMARK VINA RESULT:    -9.753      1.799      7.223
REMARK INTER + INTRA:         -14.536
REMARK INTER:                 -12.983
REMARK INTRA:                  -1.553
REMARK UNBOUND:                -1.362
REMARK SMILES O=C(CCc1nc2ccccc2c(=O)[nH]1)NC(c1ccccc1)C1CCCCC1
REMARK SMILES IDX 3 1 2 2 16 3 1 4 17 6 18 7 19 8 23 9 20 10 22 11 21 12 24 13
REMARK SMILES IDX 25 14 29 15 26 16 28 17 27 18 4 19 5 20 6 21 15 22 7 23
REMARK SMILES IDX 13 24 8 25 12 26 9 27 11 28 10 29 14 31
REMARK H PARENT 16 5 15 30
ROOT
ATOM      1  C   UNL     1       4.029  47.796  53.504  1.00  0.00     0.108 C 
ENDROOT
BRANCH   1   2
ATOM      2  C   UNL     1       3.046  46.789  52.931  1.00  0.00     0.220 C 
ATOM      3  N   UNL     1       3.422  45.483  53.144  1.00  0.00    -0.349 N 
ATOM      4  O   UNL     1       2.021  47.128  52.340  1.00  0.00    -0.275 OA
ATOM      5  H   UNL     1       4.316  45.293  53.587  1.00  0.00     0.164 HD
BRANCH   3   6
ATOM      6  C   UNL     1       2.631  44.332  52.701  1.00  0.00     0.115 C 
BRANCH   6   7
ATOM      7  C   UNL     1       3.517  43.490  51.788  1.00  0.00    -0.025 A 
ATOM      8  C   UNL     1       4.822  43.930  51.494  1.00  0.00     0.006 A 
ATOM      9  C   UNL     1       3.081  42.262  51.250  1.00  0.00     0.006 A 
ATOM     10  C   UNL     1       5.665  43.173  50.677  1.00  0.00     0.000 A 
ATOM     11  C   UNL     1       3.928  41.506  50.435  1.00  0.00     0.000 A 
ATOM     12  C   UNL     1       5.218  41.962  50.149  1.00  0.00     0.000 A 
ENDBRANCH   6   7
BRANCH   6  13
ATOM     13  C   UNL     1       2.052  43.547  53.923  1.00  0.00     0.016 C 
ATOM     14  C   UNL     1       1.631  44.481  55.082  1.00  0.00     0.006 C 
ATOM     15  C   UNL     1       0.850  42.644  53.557  1.00  0.00     0.006 C 
ATOM     16  C   UNL     1       0.361  45.282  54.777  1.00  0.00     0.000 C 
ATOM     17  C   UNL     1      -0.408  43.443  53.214  1.00  0.00     0.000 C 
ATOM     18  C   UNL     1      -0.796  44.372  54.361  1.00  0.00     0.000 C 
ENDBRANCH   6  13
ENDBRANCH   3   6
ENDBRANCH   1   2
BRANCH   1  19
ATOM     19  C   UNL     1       4.915  47.160  54.570  1.00  0.00     0.085 C 
BRANCH  19  20
ATOM     20  C   UNL     1       6.326  47.029  54.044  1.00  0.00     0.110 C 
ATOM     21  N   UNL     1       6.546  46.484  52.889  1.00  0.00    -0.235 NA
ATOM     22  N   UNL     1       7.320  47.473  54.875  1.00  0.00    -0.310 N 
ATOM     23  C   UNL     1       7.883  46.350  52.474  1.00  0.00     0.078 A 
ATOM     24  C   UNL     1       8.654  47.371  54.574  1.00  0.00     0.258 C 
ATOM     25  C   UNL     1       8.149  45.772  51.226  1.00  0.00     0.029 A 
ATOM     26  C   UNL     1       8.963  46.759  53.268  1.00  0.00     0.065 A 
ATOM     27  C   UNL     1       9.465  45.614  50.780  1.00  0.00     0.002 A 
ATOM     28  C   UNL     1      10.284  46.600  52.835  1.00  0.00     0.016 A 
ATOM     29  C   UNL     1      10.533  46.025  51.583  1.00  0.00     0.001 A 
ATOM     30  H   UNL     1       7.104  47.756  55.828  1.00  0.00     0.171 HD
ATOM     31  O   UNL     1       9.534  47.769  55.333  1.00  0.00    -0.269 OA
ENDBRANCH  19  20
ENDBRANCH   1  19
TORSDOF 6
ENDMDL
MODEL 6
REMARK VINA RESULT:    -9.566      1.855      7.233
REMARK INTER + INTRA:         -14.284
REMARK INTER:                 -13.172
REMARK INTRA:                  -1.111
REMARK UNBOUND:                -1.362
REMARK SMILES O=C(CCc1nc2ccccc2c(=O)[nH]1)NC(c1ccccc1)C1CCCCC1
REMARK SMILES IDX 3 1 2 2 16 3 1 4 17 6 18 7 19 8 23 9 20 10 22 11 21 12 24 13
REMARK SMILES IDX 25 14 29 15 26 16 28 17 27 18 4 19 5 20 6 21 15 22 7 23
REMARK SMILES IDX 13 24 8 25 12 26 9 27 11 28 10 29 14 31
REMARK H PARENT 16 5 15 30
ROOT
ATOM      1  C   UNL     1       3.526  46.198  54.892  1.00  0.00     0.108 C 
ENDROOT
BRANCH   1   2
ATOM      2  C   UNL     1       2.722  45.714  53.696  1.00  0.00     0.220 C 
ATOM      3  N   UNL     1       2.751  44.347  53.542  1.00  0.00    -0.349 N 
ATOM      4  O   UNL     1       2.112  46.484  52.955  1.00  0.00    -0.275 OA
ATOM      5  H   UNL     1       3.330  43.793  54.165  1.00  0.00     0.164 HD
BRANCH   3   6
ATOM      6  C   UNL     1       2.040  43.640  52.474  1.00  0.00     0.115 C 
BRANCH   6   7
ATOM      7  C   UNL     1       3.084  42.938  51.614  1.00  0.00    -0.025 A 
ATOM      8  C   UNL     1       4.416  43.396  51.632  1.00  0.00     0.006 A 
ATOM      9  C   UNL     1       2.766  41.818  50.819  1.00  0.00     0.006 A 
ATOM     10  C   UNL     1       5.401  42.762  50.870  1.00  0.00     0.000 A 
ATOM     11  C   UNL     1       3.755  41.185  50.059  1.00  0.00     0.000 A 
ATOM     12  C   UNL     1       5.070  41.657  50.086  1.00  0.00     0.000 A 
ENDBRANCH   6   7
BRANCH   6  13
ATOM     13  C   UNL     1       0.954  42.682  53.063  1.00  0.00     0.016 C 
ATOM     14  C   UNL     1       0.295  43.248  54.343  1.00  0.00     0.006 C 
ATOM     15  C   UNL     1      -0.161  42.323  52.052  1.00  0.00     0.006 C 
ATOM     16  C   UNL     1      -0.649  44.422  54.064  1.00  0.00     0.000 C 
ATOM     17  C   UNL     1      -1.080  43.506  51.742  1.00  0.00     0.000 C 
ATOM     18  C   UNL     1      -1.706  44.062  53.018  1.00  0.00     0.000 C 
ENDBRANCH   6  13
ENDBRANCH   3   6
ENDBRANCH   1   2
BRANCH   1  19
ATOM     19  C   UNL     1       4.278  47.485  54.568  1.00  0.00     0.085 C 
BRANCH  19  20
ATOM     20  C   UNL     1       5.573  47.150  53.861  1.00  0.00     0.110 C 
ATOM     21  N   UNL     1       6.709  47.330  54.457  1.00  0.00    -0.235 NA
ATOM     22  N   UNL     1       5.454  46.703  52.572  1.00  0.00    -0.310 N 
ATOM     23  C   UNL     1       7.879  47.043  53.733  1.00  0.00     0.078 A 
ATOM     24  C   UNL     1       6.531  46.414  51.774  1.00  0.00     0.258 C 
ATOM     25  C   UNL     1       9.121  47.220  54.356  1.00  0.00     0.029 A 
ATOM     26  C   UNL     1       7.853  46.600  52.404  1.00  0.00     0.065 A 
ATOM     27  C   UNL     1      10.310  46.954  53.667  1.00  0.00     0.002 A 
ATOM     28  C   UNL     1       9.035  46.335  51.702  1.00  0.00     0.016 A 
ATOM     29  C   UNL     1      10.268  46.514  52.341  1.00  0.00     0.001 A 
ATOM     30  H   UNL     1       4.552  46.720  52.104  1.00  0.00     0.171 HD
ATOM     31  O   UNL     1       6.409  46.019  50.617  1.00  0.00    -0.269 OA
ENDBRANCH  19  20
ENDBRANCH   1  19
TORSDOF 6
ENDMDL
MODEL 7
REMARK VINA RESULT:    -9.481      2.288      4.684
REMARK INTER + INTRA:         -14.168
REMARK INTER:                 -13.723
REMARK INTRA:                  -0.445
REMARK UNBOUND:                -1.362
REMARK SMILES O=C(CCc1nc2ccccc2c(=O)[nH]1)NC(c1ccccc1)C1CCCCC1
REMARK SMILES IDX 3 1 2 2 16 3 1 4 17 6 18 7 19 8 23 9 20 10 22 11 21 12 24 13
REMARK SMILES IDX 25 14 29 15 26 16 28 17 27 18 4 19 5 20 6 21 15 22 7 23
REMARK SMILES IDX 13 24 8 25 12 26 9 27 11 28 10 29 14 31
REMARK H PARENT 16 5 15 30
ROOT
ATOM      1  C   UNL     1       4.057  46.196  55.507  1.00  0.00     0.108 C 
ENDROOT
BRANCH   1   2
ATOM      2  C   UNL     1       4.652  46.953  54.331  1.00  0.00     0.220 C 
ATOM      3  N   UNL     1       5.326  46.140  53.449  1.00  0.00    -0.349 N 
ATOM      4  O   UNL     1       4.530  48.170  54.200  1.00  0.00    -0.275 OA
ATOM      5  H   UNL     1       5.430  45.154  53.668  1.00  0.00     0.164 HD
BRANCH   3   6
ATOM      6  C   UNL     1       5.971  46.632  52.230  1.00  0.00     0.115 C 
BRANCH   6   7
ATOM      7  C   UNL     1       7.473  46.673  52.490  1.00  0.00    -0.025 A 
ATOM      8  C   UNL     1       8.365  46.556  51.406  1.00  0.00     0.006 A 
ATOM      9  C   UNL     1       8.002  46.856  53.784  1.00  0.00     0.006 A 
ATOM     10  C   UNL     1       9.747  46.608  51.609  1.00  0.00     0.000 A 
ATOM     11  C   UNL     1       9.385  46.909  53.983  1.00  0.00     0.000 A 
ATOM     12  C   UNL     1      10.256  46.785  52.896  1.00  0.00     0.000 A 
ENDBRANCH   6   7
BRANCH   6  13
ATOM     13  C   UNL     1       5.565  45.767  50.992  1.00  0.00     0.016 C 
ATOM     14  C   UNL     1       5.627  44.249  51.284  1.00  0.00     0.006 C 
ATOM     15  C   UNL     1       4.159  46.105  50.443  1.00  0.00     0.006 C 
ATOM     16  C   UNL     1       4.502  43.767  52.206  1.00  0.00     0.000 C 
ATOM     17  C   UNL     1       3.035  45.661  51.381  1.00  0.00     0.000 C 
ATOM     18  C   UNL     1       3.124  44.165  51.672  1.00  0.00     0.000 C 
ENDBRANCH   6  13
ENDBRANCH   3   6
ENDBRANCH   1   2
BRANCH   1  19
ATOM     19  C   UNL     1       3.324  44.941  55.044  1.00  0.00     0.085 C 
BRANCH  19  20
ATOM     20  C   UNL     1       1.886  44.995  55.509  1.00  0.00     0.110 C 
ATOM     21  N   UNL     1       0.945  44.474  54.786  1.00  0.00    -0.235 NA
ATOM     22  N   UNL     1       1.660  45.655  56.687  1.00  0.00    -0.310 N 
ATOM     23  C   UNL     1      -0.377  44.594  55.248  1.00  0.00     0.078 A 
ATOM     24  C   UNL     1       0.409  45.844  57.216  1.00  0.00     0.258 C 
ATOM     25  C   UNL     1      -1.413  44.032  54.491  1.00  0.00     0.029 A 
ATOM     26  C   UNL     1      -0.702  45.269  56.433  1.00  0.00     0.065 A 
ATOM     27  C   UNL     1      -2.743  44.137  54.913  1.00  0.00     0.002 A 
ATOM     28  C   UNL     1      -2.029  45.385  56.862  1.00  0.00     0.016 A 
ATOM     29  C   UNL     1      -3.052  44.814  56.096  1.00  0.00     0.001 A 
ATOM     30  H   UNL     1       2.411  46.170  57.138  1.00  0.00     0.171 HD
ATOM     31  O   UNL     1       0.222  46.443  58.272  1.00  0.00    -0.269 OA
ENDBRANCH  19  20
ENDBRANCH   1  19
TORSDOF 6
ENDMDL
MODEL 8
REMARK VINA RESULT:    -9.465      2.109      8.108
REMARK INTER + INTRA:         -14.146
REMARK INTER:                 -12.691
REMARK INTRA:                  -1.455
REMARK UNBOUND:                -1.362
REMARK SMILES O=C(CCc1nc2ccccc2c(=O)[nH]1)NC(c1ccccc1)C1CCCCC1
REMARK SMILES IDX 3 1 2 2 16 3 1 4 17 6 18 7 19 8 23 9 20 10 22 11 21 12 24 13
REMARK SMILES IDX 25 14 29 15 26 16 28 17 27 18 4 19 5 20 6 21 15 22 7 23
REMARK SMILES IDX 13 24 8 25 12 26 9 27 11 28 10 29 14 31
REMARK H PARENT 16 5 15 30
ROOT
ATOM      1  C   UNL     1       3.459  46.234  50.774  1.00  0.00     0.108 C 
ENDROOT
BRANCH   1   2
ATOM      2  C   UNL     1       2.375  46.295  51.837  1.00  0.00     0.220 C 
ATOM      3  N   UNL     1       1.461  45.272  51.737  1.00  0.00    -0.349 N 
ATOM      4  O   UNL     1       2.339  47.179  52.693  1.00  0.00    -0.275 OA
ATOM      5  H   UNL     1       1.532  44.621  50.962  1.00  0.00     0.164 HD
BRANCH   3   6
ATOM      6  C   UNL     1       0.333  45.105  52.657  1.00  0.00     0.115 C 
BRANCH   6   7
ATOM      7  C   UNL     1      -0.912  44.847  51.815  1.00  0.00    -0.025 A 
ATOM      8  C   UNL     1      -0.910  43.788  50.887  1.00  0.00     0.006 A 
ATOM      9  C   UNL     1      -2.083  45.619  51.957  1.00  0.00     0.006 A 
ATOM     10  C   UNL     1      -2.041  43.514  50.113  1.00  0.00     0.000 A 
ATOM     11  C   UNL     1      -3.213  45.341  51.183  1.00  0.00     0.000 A 
ATOM     12  C   UNL     1      -3.191  44.289  50.263  1.00  0.00     0.000 A 
ENDBRANCH   6   7
BRANCH   6  13
ATOM     13  C   UNL     1       0.630  43.988  53.710  1.00  0.00     0.016 C 
ATOM     14  C   UNL     1       1.701  44.414  54.741  1.00  0.00     0.006 C 
ATOM     15  C   UNL     1      -0.630  43.517  54.475  1.00  0.00     0.006 C 
ATOM     16  C   UNL     1       1.192  45.458  55.740  1.00  0.00     0.000 C 
ATOM     17  C   UNL     1      -1.163  44.573  55.444  1.00  0.00     0.000 C 
ATOM     18  C   UNL     1      -0.087  44.995  56.441  1.00  0.00     0.000 C 
ENDBRANCH   6  13
ENDBRANCH   3   6
ENDBRANCH   1   2
BRANCH   1  19
ATOM     19  C   UNL     1       4.476  45.140  51.083  1.00  0.00     0.085 C 
BRANCH  19  20
ATOM     20  C   UNL     1       5.651  45.736  51.827  1.00  0.00     0.110 C 
ATOM     21  N   UNL     1       6.849  45.643  51.341  1.00  0.00    -0.235 NA
ATOM     22  N   UNL     1       5.364  46.318  53.033  1.00  0.00    -0.310 N 
ATOM     23  C   UNL     1       7.905  46.177  52.099  1.00  0.00     0.078 A 
ATOM     24  C   UNL     1       6.322  46.851  53.857  1.00  0.00     0.258 C 
ATOM     25  C   UNL     1       9.208  46.098  51.593  1.00  0.00     0.029 A 
ATOM     26  C   UNL     1       7.706  46.773  53.351  1.00  0.00     0.065 A 
ATOM     27  C   UNL     1      10.288  46.611  52.321  1.00  0.00     0.002 A 
ATOM     28  C   UNL     1       8.779  47.284  54.091  1.00  0.00     0.016 A 
ATOM     29  C   UNL     1      10.075  47.201  53.569  1.00  0.00     0.001 A 
ATOM     30  H   UNL     1       4.434  46.235  53.435  1.00  0.00     0.171 HD
ATOM     31  O   UNL     1       6.050  47.365  54.939  1.00  0.00    -0.269 OA
ENDBRANCH  19  20
ENDBRANCH   1  19
TORSDOF 6
ENDMDL
MODEL 9
REMARK VINA RESULT:    -9.182      3.744      6.663
REMARK INTER + INTRA:         -13.764
REMARK INTER:                 -12.812
REMARK INTRA:                  -0.951
REMARK UNBOUND:                -1.362
REMARK SMILES O=C(CCc1nc2ccccc2c(=O)[nH]1)NC(c1ccccc1)C1CCCCC1
REMARK SMILES IDX 3 1 2 2 16 3 1 4 17 6 18 7 19 8 23 9 20 10 22 11 21 12 24 13
REMARK SMILES IDX 25 14 29 15 26 16 28 17 27 18 4 19 5 20 6 21 15 22 7 23
REMARK SMILES IDX 13 24 8 25 12 26 9 27 11 28 10 29 14 31
REMARK H PARENT 16 5 15 30
ROOT
ATOM      1  C   UNL     1       6.186  43.050  49.283  1.00  0.00     0.108 C 
ENDROOT
BRANCH   1   2
ATOM      2  C   UNL     1       5.813  43.593  50.652  1.00  0.00     0.220 C 
ATOM      3  N   UNL     1       6.205  44.899  50.842  1.00  0.00    -0.349 N 
ATOM      4  O   UNL     1       5.219  42.917  51.492  1.00  0.00    -0.275 OA
ATOM      5  H   UNL     1       6.745  45.362  50.118  1.00  0.00     0.164 HD
BRANCH   3   6
ATOM      6  C   UNL     1       5.945  45.648  52.073  1.00  0.00     0.115 C 
BRANCH   6   7
ATOM      7  C   UNL     1       7.278  46.203  52.563  1.00  0.00    -0.025 A 
ATOM      8  C   UNL     1       8.354  46.312  51.661  1.00  0.00     0.006 A 
ATOM      9  C   UNL     1       7.462  46.641  53.890  1.00  0.00     0.006 A 
ATOM     10  C   UNL     1       9.583  46.833  52.074  1.00  0.00     0.000 A 
ATOM     11  C   UNL     1       8.692  47.164  54.299  1.00  0.00     0.000 A 
ATOM     12  C   UNL     1       9.751  47.260  53.391  1.00  0.00     0.000 A 
ENDBRANCH   6   7
BRANCH   6  13
ATOM     13  C   UNL     1       4.849  46.741  51.843  1.00  0.00     0.016 C 
ATOM     14  C   UNL     1       3.644  46.210  51.032  1.00  0.00     0.006 C 
ATOM     15  C   UNL     1       4.322  47.365  53.157  1.00  0.00     0.006 C 
ATOM     16  C   UNL     1       2.759  45.247  51.829  1.00  0.00     0.000 C 
ATOM     17  C   UNL     1       3.470  46.392  53.974  1.00  0.00     0.000 C 
ATOM     18  C   UNL     1       2.298  45.865  53.151  1.00  0.00     0.000 C 
ENDBRANCH   6  13
ENDBRANCH   3   6
ENDBRANCH   1   2
BRANCH   1  19
ATOM     19  C   UNL     1       5.979  41.541  49.211  1.00  0.00     0.085 C 
BRANCH  19  20
ATOM     20  C   UNL     1       5.214  41.194  47.953  1.00  0.00     0.110 C 
ATOM     21  N   UNL     1       4.217  40.368  48.001  1.00  0.00    -0.235 NA
ATOM     22  N   UNL     1       5.672  41.765  46.795  1.00  0.00    -0.310 N 
ATOM     23  C   UNL     1       3.573  40.050  46.792  1.00  0.00     0.078 A 
ATOM     24  C   UNL     1       5.128  41.507  45.563  1.00  0.00     0.258 C 
ATOM     25  C   UNL     1       2.487  39.167  46.816  1.00  0.00     0.029 A 
ATOM     26  C   UNL     1       3.986  40.572  45.559  1.00  0.00     0.065 A 
ATOM     27  C   UNL     1       1.824  38.819  45.633  1.00  0.00     0.002 A 
ATOM     28  C   UNL     1       3.335  40.227  44.369  1.00  0.00     0.016 A 
ATOM     29  C   UNL     1       2.248  39.346  44.411  1.00  0.00     0.001 A 
ATOM     30  H   UNL     1       6.544  42.287  46.791  1.00  0.00     0.171 HD
ATOM     31  O   UNL     1       5.554  42.022  44.533  1.00  0.00    -0.269 OA
ENDBRANCH  19  20
ENDBRANCH   1  19
TORSDOF 6
ENDMDL
MODEL 10
REMARK VINA RESULT:    -9.096      2.001      7.660
REMARK INTER + INTRA:         -13.648
REMARK INTER:                 -11.797
REMARK INTRA:                  -1.851
REMARK UNBOUND:                -1.362
REMARK SMILES O=C(CCc1nc2ccccc2c(=O)[nH]1)NC(c1ccccc1)C1CCCCC1
REMARK SMILES IDX 3 1 2 2 16 3 1 4 17 6 18 7 19 8 23 9 20 10 22 11 21 12 24 13
REMARK SMILES IDX 25 14 29 15 26 16 28 17 27 18 4 19 5 20 6 21 15 22 7 23
REMARK SMILES IDX 13 24 8 25 12 26 9 27 11 28 10 29 14 31
REMARK H PARENT 16 5 15 30
ROOT
ATOM      1  C   UNL     1       5.705  42.439  49.921  1.00  0.00     0.108 C 
ENDROOT
BRANCH   1   2
ATOM      2  C   UNL     1       4.604  42.513  50.967  1.00  0.00     0.220 C 
ATOM      3  N   UNL     1       4.158  43.795  51.193  1.00  0.00    -0.349 N 
ATOM      4  O   UNL     1       4.169  41.515  51.540  1.00  0.00    -0.275 OA
ATOM      5  H   UNL     1       4.616  44.567  50.720  1.00  0.00     0.164 HD
BRANCH   3   6
ATOM      6  C   UNL     1       3.092  44.122  52.143  1.00  0.00     0.115 C 
BRANCH   6   7
ATOM      7  C   UNL     1       3.593  45.265  53.020  1.00  0.00    -0.025 A 
ATOM      8  C   UNL     1       3.902  45.014  54.371  1.00  0.00     0.006 A 
ATOM      9  C   UNL     1       3.789  46.565  52.512  1.00  0.00     0.006 A 
ATOM     10  C   UNL     1       4.381  46.035  55.196  1.00  0.00     0.000 A 
ATOM     11  C   UNL     1       4.271  47.584  53.340  1.00  0.00     0.000 A 
ATOM     12  C   UNL     1       4.566  47.317  54.680  1.00  0.00     0.000 A 
ENDBRANCH   6   7
BRANCH   6  13
ATOM     13  C   UNL     1       1.754  44.436  51.396  1.00  0.00     0.016 C 
ATOM     14  C   UNL     1       0.966  43.157  51.029  1.00  0.00     0.006 C 
ATOM     15  C   UNL     1       0.819  45.381  52.187  1.00  0.00     0.006 C 
ATOM     16  C   UNL     1       0.327  42.475  52.243  1.00  0.00     0.000 C 
ATOM     17  C   UNL     1       0.211  44.715  53.422  1.00  0.00     0.000 C 
ATOM     18  C   UNL     1      -0.546  43.445  53.043  1.00  0.00     0.000 C 
ENDBRANCH   6  13
ENDBRANCH   3   6
ENDBRANCH   1   2
BRANCH   1  19
ATOM     19  C   UNL     1       6.001  43.813  49.330  1.00  0.00     0.085 C 
BRANCH  19  20
ATOM     20  C   UNL     1       7.096  44.483  50.129  1.00  0.00     0.110 C 
ATOM     21  N   UNL     1       6.808  45.411  50.987  1.00  0.00    -0.235 NA
ATOM     22  N   UNL     1       8.375  44.078  49.851  1.00  0.00    -0.310 N 
ATOM     23  C   UNL     1       7.873  46.026  51.667  1.00  0.00     0.078 A 
ATOM     24  C   UNL     1       9.484  44.627  50.443  1.00  0.00     0.258 C 
ATOM     25  C   UNL     1       7.589  47.026  52.605  1.00  0.00     0.029 A 
ATOM     26  C   UNL     1       9.212  45.689  51.431  1.00  0.00     0.065 A 
ATOM     27  C   UNL     1       8.621  47.669  53.297  1.00  0.00     0.002 A 
ATOM     28  C   UNL     1      10.254  46.329  52.112  1.00  0.00     0.016 A 
ATOM     29  C   UNL     1       9.952  47.324  53.050  1.00  0.00     0.001 A 
ATOM     30  H   UNL     1       8.557  43.455  49.068  1.00  0.00     0.171 HD
ATOM     31  O   UNL     1      10.624  44.257  50.178  1.00  0.00    -0.269 OA
ENDBRANCH  19  20
ENDBRANCH   1  19
TORSDOF 6
ENDMDL
