MODEL 1
REMARK VINA RESULT:    -8.413      0.000      0.000
REMARK INTER + INTRA:         -11.889
REMARK INTER:                 -11.364
REMARK INTRA:                  -0.525
REMARK UNBOUND:                -0.525
REMARK SMILES c1cc(NC2CC[NH2+]CC2)nc(Nc2ccc(OC3CCOC3)cc2)n1
REMARK SMILES IDX 1 1 2 2 3 3 11 4 12 5 26 6 4 7 5 9 6 10 10 11 7 12 9 13 8 14
REMARK SMILES IDX 13 17 14 19 15 20 25 21 16 22 24 23 17 24 18 25 19 26 20 27
REMARK SMILES IDX 23 28 21 29 22 30
REMARK H PARENT 4 8 8 15 8 16 13 18
ROOT
ATOM      1  C   UNL     1       9.207  47.494  53.934  1.00  0.00     0.119 A 
ATOM      2  C   UNL     1       9.283  47.086  52.624  1.00  0.00     0.067 A 
ATOM      3  C   UNL     1       8.096  46.707  52.039  1.00  0.00     0.131 A 
ATOM      4  N   UNL     1       6.939  46.745  52.714  1.00  0.00    -0.196 NA
ATOM      5  C   UNL     1       6.947  47.158  53.992  1.00  0.00     0.229 A 
ATOM      6  N   UNL     1       8.061  47.531  54.634  1.00  0.00    -0.221 NA
ENDROOT
BRANCH   3   7
ATOM      7  N   UNL     1       8.118  46.217  50.713  1.00  0.00    -0.367 N 
ATOM      8  H   UNL     1       7.559  46.853  50.146  1.00  0.00     0.162 HD
BRANCH   7   9
ATOM      9  C   UNL     1       7.744  44.806  50.574  1.00  0.00     0.091 C 
ATOM     10  C   UNL     1       8.409  44.193  49.322  1.00  0.00     0.086 C 
ATOM     11  C   UNL     1       6.222  44.686  50.481  1.00  0.00     0.086 C 
ATOM     12  C   UNL     1       7.546  43.165  48.617  1.00  0.00     0.262 C 
ATOM     13  C   UNL     1       5.787  43.226  50.400  1.00  0.00     0.262 C 
ATOM     14  N   UNL     1       6.765  42.401  49.627  1.00  0.00    -0.346 N 
ATOM     15  H   UNL     1       6.266  41.629  49.161  1.00  0.00     0.346 HD
ATOM     16  H   UNL     1       7.425  41.935  50.269  1.00  0.00     0.346 HD
ENDBRANCH   7   9
ENDBRANCH   3   7
BRANCH   5  17
ATOM     17  N   UNL     1       5.778  47.157  54.745  1.00  0.00    -0.324 N 
ATOM     18  H   UNL     1       5.921  47.664  55.608  1.00  0.00     0.170 HD
BRANCH  17  19
ATOM     19  C   UNL     1       4.488  46.684  54.481  1.00  0.00     0.041 A 
ATOM     20  C   UNL     1       3.787  46.995  53.308  1.00  0.00     0.030 A 
ATOM     21  C   UNL     1       3.896  45.784  55.380  1.00  0.00     0.030 A 
ATOM     22  C   UNL     1       2.529  46.445  53.050  1.00  0.00     0.048 A 
ATOM     23  C   UNL     1       2.639  45.225  55.126  1.00  0.00     0.048 A 
ATOM     24  C   UNL     1       1.953  45.575  53.969  1.00  0.00     0.120 A 
BRANCH  24  25
ATOM     25  O   UNL     1       0.747  45.022  53.645  1.00  0.00    -0.488 OA
BRANCH  25  26
ATOM     26  C   UNL     1       0.482  43.800  54.360  1.00  0.00     0.201 C 
ATOM     27  C   UNL     1       0.780  42.651  53.421  1.00  0.00     0.076 C 
ATOM     28  C   UNL     1      -1.014  43.610  54.586  1.00  0.00     0.205 C 
ATOM     29  C   UNL     1      -0.465  42.610  52.558  1.00  0.00     0.164 C 
ATOM     30  O   UNL     1      -1.558  43.064  53.369  1.00  0.00    -0.377 OA
ENDBRANCH  25  26
ENDBRANCH  24  25
ENDBRANCH  17  19
ENDBRANCH   5  17
TORSDOF 6
ENDMDL
MODEL 2
REMARK VINA RESULT:    -8.290      3.936      7.626
REMARK INTER + INTRA:         -11.722
REMARK INTER:                 -10.828
REMARK INTRA:                  -0.894
REMARK UNBOUND:                -0.525
REMARK SMILES c1cc(NC2CC[NH2+]CC2)nc(Nc2ccc(OC3CCOC3)cc2)n1
REMARK SMILES IDX 1 1 2 2 3 3 11 4 12 5 26 6 4 7 5 9 6 10 10 11 7 12 9 13 8 14
REMARK SMILES IDX 13 17 14 19 15 20 25 21 16 22 24 23 17 24 18 25 19 26 20 27
REMARK SMILES IDX 23 28 21 29 22 30
REMARK H PARENT 4 8 8 15 8 16 13 18
ROOT
ATOM      1  C   UNL     1      -0.415  45.901  57.208  1.00  0.00     0.119 A 
ATOM      2  C   UNL     1      -0.958  45.043  56.283  1.00  0.00     0.067 A 
ATOM      3  C   UNL     1      -0.081  44.507  55.367  1.00  0.00     0.131 A 
ATOM      4  N   UNL     1       1.225  44.806  55.390  1.00  0.00    -0.196 NA
ATOM      5  C   UNL     1       1.680  45.653  56.328  1.00  0.00     0.229 A 
ATOM      6  N   UNL     1       0.889  46.223  57.244  1.00  0.00    -0.221 NA
ENDROOT
BRANCH   3   7
ATOM      7  N   UNL     1      -0.589  43.667  54.350  1.00  0.00    -0.367 N 
ATOM      8  H   UNL     1      -0.561  42.711  54.705  1.00  0.00     0.162 HD
BRANCH   7   9
ATOM      9  C   UNL     1       0.046  43.837  53.039  1.00  0.00     0.091 C 
ATOM     10  C   UNL     1      -1.026  44.011  51.940  1.00  0.00     0.086 C 
ATOM     11  C   UNL     1       0.927  42.625  52.735  1.00  0.00     0.086 C 
ATOM     12  C   UNL     1      -0.646  43.380  50.614  1.00  0.00     0.262 C 
ATOM     13  C   UNL     1       1.657  42.792  51.406  1.00  0.00     0.262 C 
ATOM     14  N   UNL     1       0.820  43.521  50.405  1.00  0.00    -0.346 N 
ATOM     15  H   UNL     1       1.062  43.195  49.457  1.00  0.00     0.346 HD
ATOM     16  H   UNL     1       1.058  44.525  50.404  1.00  0.00     0.346 HD
ENDBRANCH   7   9
ENDBRANCH   3   7
BRANCH   5  17
ATOM     17  N   UNL     1       3.017  46.035  56.351  1.00  0.00    -0.324 N 
ATOM     18  H   UNL     1       3.290  46.285  57.292  1.00  0.00     0.170 HD
BRANCH  17  19
ATOM     19  C   UNL     1       4.012  46.037  55.368  1.00  0.00     0.041 A 
ATOM     20  C   UNL     1       4.147  47.060  54.420  1.00  0.00     0.030 A 
ATOM     21  C   UNL     1       4.980  45.020  55.377  1.00  0.00     0.030 A 
ATOM     22  C   UNL     1       5.197  47.060  53.498  1.00  0.00     0.048 A 
ATOM     23  C   UNL     1       6.037  45.016  54.461  1.00  0.00     0.048 A 
ATOM     24  C   UNL     1       6.128  46.028  53.513  1.00  0.00     0.120 A 
BRANCH  24  25
ATOM     25  O   UNL     1       7.167  46.102  52.629  1.00  0.00    -0.488 OA
BRANCH  25  26
ATOM     26  C   UNL     1       7.898  47.339  52.726  1.00  0.00     0.201 C 
ATOM     27  C   UNL     1       8.938  47.340  51.626  1.00  0.00     0.076 C 
ATOM     28  C   UNL     1       8.786  47.355  53.966  1.00  0.00     0.205 C 
ATOM     29  C   UNL     1      10.024  46.460  52.211  1.00  0.00     0.164 C 
ATOM     30  O   UNL     1       9.983  46.626  53.636  1.00  0.00    -0.377 OA
ENDBRANCH  25  26
ENDBRANCH  24  25
ENDBRANCH  17  19
ENDBRANCH   5  17
TORSDOF 6
ENDMDL
MODEL 3
REMARK VINA RESULT:    -8.027      2.126      4.661
REMARK INTER + INTRA:         -11.368
REMARK INTER:                 -10.893
REMARK INTRA:                  -0.475
REMARK UNBOUND:                -0.525
REMARK SMILES c1cc(NC2CC[NH2+]CC2)nc(Nc2ccc(OC3CCOC3)cc2)n1
REMARK SMILES IDX 1 1 2 2 3 3 11 4 12 5 26 6 4 7 5 9 6 10 10 11 7 12 9 13 8 14
REMARK SMILES IDX 13 17 14 19 15 20 25 21 16 22 24 23 17 24 18 25 19 26 20 27
REMARK SMILES IDX 23 28 21 29 22 30
REMARK H PARENT 4 8 8 15 8 16 13 18
ROOT
ATOM      1  C   UNL     1       6.505  41.997  49.683  1.00  0.00     0.119 A 
ATOM      2  C   UNL     1       7.132  43.219  49.658  1.00  0.00     0.067 A 
ATOM      3  C   UNL     1       6.534  44.221  50.388  1.00  0.00     0.131 A 
ATOM      4  N   UNL     1       5.410  44.004  51.085  1.00  0.00    -0.196 NA
ATOM      5  C   UNL     1       4.858  42.780  51.061  1.00  0.00     0.229 A 
ATOM      6  N   UNL     1       5.372  41.759  50.366  1.00  0.00    -0.221 NA
ENDROOT
BRANCH   3   7
ATOM      7  N   UNL     1       7.096  45.517  50.351  1.00  0.00    -0.367 N 
ATOM      8  H   UNL     1       7.650  45.583  49.497  1.00  0.00     0.162 HD
BRANCH   7   9
ATOM      9  C   UNL     1       7.820  45.907  51.565  1.00  0.00     0.091 C 
ATOM     10  C   UNL     1       7.285  47.252  52.103  1.00  0.00     0.086 C 
ATOM     11  C   UNL     1       9.315  46.013  51.259  1.00  0.00     0.086 C 
ATOM     12  C   UNL     1       8.356  48.128  52.725  1.00  0.00     0.262 C 
ATOM     13  C   UNL     1      10.113  46.355  52.513  1.00  0.00     0.262 C 
ATOM     14  N   UNL     1       9.352  47.268  53.419  1.00  0.00    -0.346 N 
ATOM     15  H   UNL     1      10.016  47.864  53.936  1.00  0.00     0.346 HD
ATOM     16  H   UNL     1       8.867  46.724  54.149  1.00  0.00     0.346 HD
ENDBRANCH   7   9
ENDBRANCH   3   7
BRANCH   5  17
ATOM     17  N   UNL     1       3.660  42.529  51.723  1.00  0.00    -0.324 N 
ATOM     18  H   UNL     1       3.334  41.597  51.507  1.00  0.00     0.170 HD
BRANCH  17  19
ATOM     19  C   UNL     1       2.928  43.269  52.656  1.00  0.00     0.041 A 
ATOM     20  C   UNL     1       3.458  44.369  53.343  1.00  0.00     0.030 A 
ATOM     21  C   UNL     1       1.573  42.962  52.856  1.00  0.00     0.030 A 
ATOM     22  C   UNL     1       2.671  45.126  54.216  1.00  0.00     0.048 A 
ATOM     23  C   UNL     1       0.778  43.718  53.724  1.00  0.00     0.048 A 
ATOM     24  C   UNL     1       1.338  44.786  54.415  1.00  0.00     0.120 A 
BRANCH  24  25
ATOM     25  O   UNL     1       0.597  45.588  55.235  1.00  0.00    -0.488 OA
BRANCH  25  26
ATOM     26  C   UNL     1       0.491  45.074  56.576  1.00  0.00     0.201 C 
ATOM     27  C   UNL     1      -0.980  44.887  56.876  1.00  0.00     0.076 C 
ATOM     28  C   UNL     1       0.865  46.138  57.602  1.00  0.00     0.205 C 
ATOM     29  C   UNL     1      -1.422  46.298  57.206  1.00  0.00     0.164 C 
ATOM     30  O   UNL     1      -0.295  46.971  57.787  1.00  0.00    -0.377 OA
ENDBRANCH  25  26
ENDBRANCH  24  25
ENDBRANCH  17  19
ENDBRANCH   5  17
TORSDOF 6
ENDMDL
MODEL 4
REMARK VINA RESULT:    -7.995      4.814      7.614
REMARK INTER + INTRA:         -11.324
REMARK INTER:                 -10.475
REMARK INTRA:                  -0.849
REMARK UNBOUND:                -0.525
REMARK SMILES c1cc(NC2CC[NH2+]CC2)nc(Nc2ccc(OC3CCOC3)cc2)n1
REMARK SMILES IDX 1 1 2 2 3 3 11 4 12 5 26 6 4 7 5 9 6 10 10 11 7 12 9 13 8 14
REMARK SMILES IDX 13 17 14 19 15 20 25 21 16 22 24 23 17 24 18 25 19 26 20 27
REMARK SMILES IDX 23 28 21 29 22 30
REMARK H PARENT 4 8 8 15 8 16 13 18
ROOT
ATOM      1  C   UNL     1       8.312  44.606  49.702  1.00  0.00     0.119 A 
ATOM      2  C   UNL     1       7.496  45.392  50.479  1.00  0.00     0.067 A 
ATOM      3  C   UNL     1       6.245  44.885  50.747  1.00  0.00     0.131 A 
ATOM      4  N   UNL     1       5.859  43.689  50.281  1.00  0.00    -0.196 NA
ATOM      5  C   UNL     1       6.717  42.979  49.530  1.00  0.00     0.229 A 
ATOM      6  N   UNL     1       7.944  43.410  49.215  1.00  0.00    -0.221 NA
ENDROOT
BRANCH   3   7
ATOM      7  N   UNL     1       5.336  45.675  51.488  1.00  0.00    -0.367 N 
ATOM      8  H   UNL     1       5.744  46.606  51.573  1.00  0.00     0.162 HD
BRANCH   7   9
ATOM      9  C   UNL     1       4.910  45.089  52.763  1.00  0.00     0.091 C 
ATOM     10  C   UNL     1       3.579  45.720  53.228  1.00  0.00     0.086 C 
ATOM     11  C   UNL     1       5.999  45.305  53.815  1.00  0.00     0.086 C 
ATOM     12  C   UNL     1       3.474  45.876  54.733  1.00  0.00     0.262 C 
ATOM     13  C   UNL     1       5.622  44.653  55.141  1.00  0.00     0.262 C 
ATOM     14  N   UNL     1       4.151  44.729  55.396  1.00  0.00    -0.346 N 
ATOM     15  H   UNL     1       3.983  44.773  56.412  1.00  0.00     0.346 HD
ATOM     16  H   UNL     1       3.691  43.855  55.093  1.00  0.00     0.346 HD
ENDBRANCH   7   9
ENDBRANCH   3   7
BRANCH   5  17
ATOM     17  N   UNL     1       6.335  41.760  48.979  1.00  0.00    -0.324 N 
ATOM     18  H   UNL     1       6.707  40.999  49.530  1.00  0.00     0.170 HD
BRANCH  17  19
ATOM     19  C   UNL     1       5.494  41.433  47.910  1.00  0.00     0.041 A 
ATOM     20  C   UNL     1       4.329  40.670  48.061  1.00  0.00     0.030 A 
ATOM     21  C   UNL     1       5.770  41.964  46.641  1.00  0.00     0.030 A 
ATOM     22  C   UNL     1       3.478  40.424  46.981  1.00  0.00     0.048 A 
ATOM     23  C   UNL     1       4.920  41.727  45.554  1.00  0.00     0.048 A 
ATOM     24  C   UNL     1       3.787  40.940  45.727  1.00  0.00     0.120 A 
BRANCH  24  25
ATOM     25  O   UNL     1       2.897  40.719  44.716  1.00  0.00    -0.488 OA
BRANCH  25  26
ATOM     26  C   UNL     1       1.527  40.866  45.134  1.00  0.00     0.201 C 
ATOM     27  C   UNL     1       0.658  40.206  44.085  1.00  0.00     0.076 C 
ATOM     28  C   UNL     1       1.071  42.317  45.019  1.00  0.00     0.205 C 
ATOM     29  C   UNL     1       0.612  41.261  42.997  1.00  0.00     0.164 C 
ATOM     30  O   UNL     1       0.716  42.539  43.641  1.00  0.00    -0.377 OA
ENDBRANCH  25  26
ENDBRANCH  24  25
ENDBRANCH  17  19
ENDBRANCH   5  17
TORSDOF 6
ENDMDL
MODEL 5
REMARK VINA RESULT:    -7.916      4.596      9.474
REMARK INTER + INTRA:         -11.217
REMARK INTER:                 -10.513
REMARK INTRA:                  -0.704
REMARK UNBOUND:                -0.525
REMARK SMILES c1cc(NC2CC[NH2+]CC2)nc(Nc2ccc(OC3CCOC3)cc2)n1
REMARK SMILES IDX 1 1 2 2 3 3 11 4 12 5 26 6 4 7 5 9 6 10 10 11 7 12 9 13 8 14
REMARK SMILES IDX 13 17 14 19 15 20 25 21 16 22 24 23 17 24 18 25 19 26 20 27
REMARK SMILES IDX 23 28 21 29 22 30
REMARK H PARENT 4 8 8 15 8 16 13 18
ROOT
ATOM      1  C   UNL     1       0.279  44.138  54.528  1.00  0.00     0.119 A 
ATOM      2  C   UNL     1      -0.787  44.581  55.273  1.00  0.00     0.067 A 
ATOM      3  C   UNL     1      -0.492  45.468  56.284  1.00  0.00     0.131 A 
ATOM      4  N   UNL     1       0.764  45.876  56.514  1.00  0.00    -0.196 NA
ATOM      5  C   UNL     1       1.752  45.398  55.740  1.00  0.00     0.229 A 
ATOM      6  N   UNL     1       1.547  44.524  54.747  1.00  0.00    -0.221 NA
ENDROOT
BRANCH   3   7
ATOM      7  N   UNL     1      -1.537  45.911  57.126  1.00  0.00    -0.367 N 
ATOM      8  H   UNL     1      -2.385  45.424  56.838  1.00  0.00     0.162 HD
BRANCH   7   9
ATOM      9  C   UNL     1      -1.683  47.368  57.208  1.00  0.00     0.091 C 
ATOM     10  C   UNL     1      -1.221  47.879  58.591  1.00  0.00     0.086 C 
ATOM     11  C   UNL     1      -3.143  47.752  56.960  1.00  0.00     0.086 C 
ATOM     12  C   UNL     1      -2.030  49.053  59.107  1.00  0.00     0.262 C 
ATOM     13  C   UNL     1      -3.326  49.265  56.973  1.00  0.00     0.262 C 
ATOM     14  N   UNL     1      -2.420  49.922  57.964  1.00  0.00    -0.346 N 
ATOM     15  H   UNL     1      -2.870  50.777  58.323  1.00  0.00     0.346 HD
ATOM     16  H   UNL     1      -1.562  50.256  57.496  1.00  0.00     0.346 HD
ENDBRANCH   7   9
ENDBRANCH   3   7
BRANCH   5  17
ATOM     17  N   UNL     1       3.076  45.750  55.982  1.00  0.00    -0.324 N 
ATOM     18  H   UNL     1       3.225  45.873  56.974  1.00  0.00     0.170 HD
BRANCH  17  19
ATOM     19  C   UNL     1       4.190  45.859  55.143  1.00  0.00     0.041 A 
ATOM     20  C   UNL     1       5.110  44.820  54.957  1.00  0.00     0.030 A 
ATOM     21  C   UNL     1       4.353  47.025  54.379  1.00  0.00     0.030 A 
ATOM     22  C   UNL     1       6.171  44.944  54.056  1.00  0.00     0.048 A 
ATOM     23  C   UNL     1       5.409  47.155  53.470  1.00  0.00     0.048 A 
ATOM     24  C   UNL     1       6.325  46.119  53.329  1.00  0.00     0.120 A 
BRANCH  24  25
ATOM     25  O   UNL     1       7.344  46.172  52.421  1.00  0.00    -0.488 OA
BRANCH  25  26
ATOM     26  C   UNL     1       8.114  47.385  52.513  1.00  0.00     0.201 C 
ATOM     27  C   UNL     1       9.273  47.263  51.547  1.00  0.00     0.076 C 
ATOM     28  C   UNL     1       8.853  47.465  53.845  1.00  0.00     0.205 C 
ATOM     29  C   UNL     1      10.244  46.393  52.319  1.00  0.00     0.164 C 
ATOM     30  O   UNL     1      10.046  46.670  53.713  1.00  0.00    -0.377 OA
ENDBRANCH  25  26
ENDBRANCH  24  25
ENDBRANCH  17  19
ENDBRANCH   5  17
TORSDOF 6
ENDMDL
MODEL 6
REMARK VINA RESULT:    -7.880      3.322      6.668
REMARK INTER + INTRA:         -11.170
REMARK INTER:                 -10.793
REMARK INTRA:                  -0.377
REMARK UNBOUND:                -0.525
REMARK SMILES c1cc(NC2CC[NH2+]CC2)nc(Nc2ccc(OC3CCOC3)cc2)n1
REMARK SMILES IDX 1 1 2 2 3 3 11 4 12 5 26 6 4 7 5 9 6 10 10 11 7 12 9 13 8 14
REMARK SMILES IDX 13 17 14 19 15 20 25 21 16 22 24 23 17 24 18 25 19 26 20 27
REMARK SMILES IDX 23 28 21 29 22 30
REMARK H PARENT 4 8 8 15 8 16 13 18
ROOT
ATOM      1  C   UNL     1      -0.358  43.226  53.753  1.00  0.00     0.119 A 
ATOM      2  C   UNL     1       0.129  42.608  52.626  1.00  0.00     0.067 A 
ATOM      3  C   UNL     1       1.466  42.796  52.362  1.00  0.00     0.131 A 
ATOM      4  N   UNL     1       2.242  43.535  53.168  1.00  0.00    -0.196 NA
ATOM      5  C   UNL     1       1.691  44.106  54.252  1.00  0.00     0.229 A 
ATOM      6  N   UNL     1       0.398  43.979  54.569  1.00  0.00    -0.221 NA
ENDROOT
BRANCH   3   7
ATOM      7  N   UNL     1       2.011  42.239  51.184  1.00  0.00    -0.367 N 
ATOM      8  H   UNL     1       1.555  41.339  51.035  1.00  0.00     0.162 HD
BRANCH   7   9
ATOM      9  C   UNL     1       3.477  42.179  51.154  1.00  0.00     0.091 C 
ATOM     10  C   UNL     1       4.073  43.603  51.106  1.00  0.00     0.086 C 
ATOM     11  C   UNL     1       3.932  41.369  49.938  1.00  0.00     0.086 C 
ATOM     12  C   UNL     1       5.338  43.705  50.276  1.00  0.00     0.262 C 
ATOM     13  C   UNL     1       5.450  41.229  49.907  1.00  0.00     0.262 C 
ATOM     14  N   UNL     1       6.129  42.454  50.429  1.00  0.00    -0.346 N 
ATOM     15  H   UNL     1       7.040  42.566  49.959  1.00  0.00     0.346 HD
ATOM     16  H   UNL     1       6.365  42.333  51.427  1.00  0.00     0.346 HD
ENDBRANCH   7   9
ENDBRANCH   3   7
BRANCH   5  17
ATOM     17  N   UNL     1       2.448  44.928  55.082  1.00  0.00    -0.324 N 
ATOM     18  H   UNL     1       1.996  45.020  55.982  1.00  0.00     0.170 HD
BRANCH  17  19
ATOM     19  C   UNL     1       3.699  45.532  54.921  1.00  0.00     0.041 A 
ATOM     20  C   UNL     1       4.897  44.923  55.317  1.00  0.00     0.030 A 
ATOM     21  C   UNL     1       3.778  46.763  54.252  1.00  0.00     0.030 A 
ATOM     22  C   UNL     1       6.132  45.529  55.074  1.00  0.00     0.048 A 
ATOM     23  C   UNL     1       5.012  47.374  54.001  1.00  0.00     0.048 A 
ATOM     24  C   UNL     1       6.182  46.761  54.432  1.00  0.00     0.120 A 
BRANCH  24  25
ATOM     25  O   UNL     1       7.415  47.287  54.170  1.00  0.00    -0.488 OA
BRANCH  25  26
ATOM     26  C   UNL     1       8.274  46.374  53.460  1.00  0.00     0.201 C 
ATOM     27  C   UNL     1       9.504  47.144  53.033  1.00  0.00     0.076 C 
ATOM     28  C   UNL     1       7.678  46.002  52.106  1.00  0.00     0.205 C 
ATOM     29  C   UNL     1       9.008  47.888  51.810  1.00  0.00     0.164 C 
ATOM     30  O   UNL     1       7.999  47.073  51.197  1.00  0.00    -0.377 OA
ENDBRANCH  25  26
ENDBRANCH  24  25
ENDBRANCH  17  19
ENDBRANCH   5  17
TORSDOF 6
ENDMDL
MODEL 7
REMARK VINA RESULT:    -7.855      3.242      5.014
REMARK INTER + INTRA:         -11.135
REMARK INTER:                 -10.240
REMARK INTRA:                  -0.895
REMARK UNBOUND:                -0.525
REMARK SMILES c1cc(NC2CC[NH2+]CC2)nc(Nc2ccc(OC3CCOC3)cc2)n1
REMARK SMILES IDX 1 1 2 2 3 3 11 4 12 5 26 6 4 7 5 9 6 10 10 11 7 12 9 13 8 14
REMARK SMILES IDX 13 17 14 19 15 20 25 21 16 22 24 23 17 24 18 25 19 26 20 27
REMARK SMILES IDX 23 28 21 29 22 30
REMARK H PARENT 4 8 8 15 8 16 13 18
ROOT
ATOM      1  C   UNL     1       3.106  46.171  50.993  1.00  0.00     0.119 A 
ATOM      2  C   UNL     1       4.464  46.046  50.830  1.00  0.00     0.067 A 
ATOM      3  C   UNL     1       5.086  45.115  51.630  1.00  0.00     0.131 A 
ATOM      4  N   UNL     1       4.396  44.373  52.509  1.00  0.00    -0.196 NA
ATOM      5  C   UNL     1       3.069  44.554  52.607  1.00  0.00     0.229 A 
ATOM      6  N   UNL     1       2.395  45.447  51.874  1.00  0.00    -0.221 NA
ENDROOT
BRANCH   3   7
ATOM      7  N   UNL     1       6.491  44.984  51.554  1.00  0.00    -0.367 N 
ATOM      8  H   UNL     1       6.735  44.087  51.974  1.00  0.00     0.162 HD
BRANCH   7   9
ATOM      9  C   UNL     1       7.244  46.121  52.094  1.00  0.00     0.091 C 
ATOM     10  C   UNL     1       8.654  46.181  51.466  1.00  0.00     0.086 C 
ATOM     11  C   UNL     1       7.343  45.995  53.615  1.00  0.00     0.086 C 
ATOM     12  C   UNL     1       9.726  46.663  52.424  1.00  0.00     0.262 C 
ATOM     13  C   UNL     1       8.064  47.193  54.223  1.00  0.00     0.262 C 
ATOM     14  N   UNL     1       9.151  47.696  53.327  1.00  0.00    -0.346 N 
ATOM     15  H   UNL     1       9.903  48.105  53.901  1.00  0.00     0.346 HD
ATOM     16  H   UNL     1       8.805  48.480  52.752  1.00  0.00     0.346 HD
ENDBRANCH   7   9
ENDBRANCH   3   7
BRANCH   5  17
ATOM     17  N   UNL     1       2.326  43.846  53.547  1.00  0.00    -0.324 N 
ATOM     18  H   UNL     1       2.599  42.873  53.543  1.00  0.00     0.170 HD
BRANCH  17  19
ATOM     19  C   UNL     1       1.389  44.251  54.504  1.00  0.00     0.041 A 
ATOM     20  C   UNL     1       0.019  43.981  54.393  1.00  0.00     0.030 A 
ATOM     21  C   UNL     1       1.841  44.876  55.676  1.00  0.00     0.030 A 
ATOM     22  C   UNL     1      -0.875  44.341  55.405  1.00  0.00     0.048 A 
ATOM     23  C   UNL     1       0.954  45.234  56.697  1.00  0.00     0.048 A 
ATOM     24  C   UNL     1      -0.405  44.982  56.545  1.00  0.00     0.120 A 
BRANCH  24  25
ATOM     25  O   UNL     1      -1.309  45.263  57.530  1.00  0.00    -0.488 OA
BRANCH  25  26
ATOM     26  C   UNL     1      -2.291  46.236  57.126  1.00  0.00     0.201 C 
ATOM     27  C   UNL     1      -1.680  47.607  57.318  1.00  0.00     0.076 C 
ATOM     28  C   UNL     1      -3.448  46.291  58.119  1.00  0.00     0.205 C 
ATOM     29  C   UNL     1      -1.838  47.823  58.810  1.00  0.00     0.164 C 
ATOM     30  O   UNL     1      -3.020  47.119  59.217  1.00  0.00    -0.377 OA
ENDBRANCH  25  26
ENDBRANCH  24  25
ENDBRANCH  17  19
ENDBRANCH   5  17
TORSDOF 6
ENDMDL
MODEL 8
REMARK VINA RESULT:    -7.851      4.098      8.999
REMARK INTER + INTRA:         -11.130
REMARK INTER:                 -10.556
REMARK INTRA:                  -0.574
REMARK UNBOUND:                -0.525
REMARK SMILES c1cc(NC2CC[NH2+]CC2)nc(Nc2ccc(OC3CCOC3)cc2)n1
REMARK SMILES IDX 1 1 2 2 3 3 11 4 12 5 26 6 4 7 5 9 6 10 10 11 7 12 9 13 8 14
REMARK SMILES IDX 13 17 14 19 15 20 25 21 16 22 24 23 17 24 18 25 19 26 20 27
REMARK SMILES IDX 23 28 21 29 22 30
REMARK H PARENT 4 8 8 15 8 16 13 18
ROOT
ATOM      1  C   UNL     1      -0.162  43.765  52.965  1.00  0.00     0.119 A 
ATOM      2  C   UNL     1      -0.497  43.843  54.295  1.00  0.00     0.067 A 
ATOM      3  C   UNL     1       0.133  44.827  55.022  1.00  0.00     0.131 A 
ATOM      4  N   UNL     1       1.014  45.662  54.454  1.00  0.00    -0.196 NA
ATOM      5  C   UNL     1       1.287  45.523  53.146  1.00  0.00     0.229 A 
ATOM      6  N   UNL     1       0.726  44.584  52.376  1.00  0.00    -0.221 NA
ENDROOT
BRANCH   3   7
ATOM      7  N   UNL     1      -0.122  44.917  56.409  1.00  0.00    -0.367 N 
ATOM      8  H   UNL     1      -0.850  44.237  56.628  1.00  0.00     0.162 HD
BRANCH   7   9
ATOM      9  C   UNL     1      -0.404  46.271  56.895  1.00  0.00     0.091 C 
ATOM     10  C   UNL     1       0.610  46.673  57.990  1.00  0.00     0.086 C 
ATOM     11  C   UNL     1      -1.831  46.333  57.443  1.00  0.00     0.086 C 
ATOM     12  C   UNL     1       0.013  47.538  59.083  1.00  0.00     0.262 C 
ATOM     13  C   UNL     1      -2.186  47.744  57.901  1.00  0.00     0.262 C 
ATOM     14  N   UNL     1      -1.006  48.446  58.491  1.00  0.00    -0.346 N 
ATOM     15  H   UNL     1      -1.329  49.111  59.210  1.00  0.00     0.346 HD
ATOM     16  H   UNL     1      -0.548  49.035  57.778  1.00  0.00     0.346 HD
ENDBRANCH   7   9
ENDBRANCH   3   7
BRANCH   5  17
ATOM     17  N   UNL     1       2.239  46.331  52.531  1.00  0.00    -0.324 N 
ATOM     18  H   UNL     1       1.796  47.152  52.142  1.00  0.00     0.170 HD
BRANCH  17  19
ATOM     19  C   UNL     1       3.632  46.249  52.451  1.00  0.00     0.041 A 
ATOM     20  C   UNL     1       4.466  46.297  53.576  1.00  0.00     0.030 A 
ATOM     21  C   UNL     1       4.229  46.018  51.202  1.00  0.00     0.030 A 
ATOM     22  C   UNL     1       5.849  46.141  53.460  1.00  0.00     0.048 A 
ATOM     23  C   UNL     1       5.613  45.856  51.078  1.00  0.00     0.048 A 
ATOM     24  C   UNL     1       6.419  45.938  52.208  1.00  0.00     0.120 A 
BRANCH  24  25
ATOM     25  O   UNL     1       7.768  45.737  52.153  1.00  0.00    -0.488 OA
BRANCH  25  26
ATOM     26  C   UNL     1       8.481  46.865  51.613  1.00  0.00     0.201 C 
ATOM     27  C   UNL     1       9.908  46.782  52.110  1.00  0.00     0.076 C 
ATOM     28  C   UNL     1       8.021  48.166  52.263  1.00  0.00     0.205 C 
ATOM     29  C   UNL     1       9.788  47.323  53.521  1.00  0.00     0.164 C 
ATOM     30  O   UNL     1       8.716  48.277  53.519  1.00  0.00    -0.377 OA
ENDBRANCH  25  26
ENDBRANCH  24  25
ENDBRANCH  17  19
ENDBRANCH   5  17
TORSDOF 6
ENDMDL
MODEL 9
REMARK VINA RESULT:    -7.846      1.502      2.123
REMARK INTER + INTRA:         -11.123
REMARK INTER:                 -10.741
REMARK INTRA:                  -0.382
REMARK UNBOUND:                -0.525
REMARK SMILES c1cc(NC2CC[NH2+]CC2)nc(Nc2ccc(OC3CCOC3)cc2)n1
REMARK SMILES IDX 1 1 2 2 3 3 11 4 12 5 26 6 4 7 5 9 6 10 10 11 7 12 9 13 8 14
REMARK SMILES IDX 13 17 14 19 15 20 25 21 16 22 24 23 17 24 18 25 19 26 20 27
REMARK SMILES IDX 23 28 21 29 22 30
REMARK H PARENT 4 8 8 15 8 16 13 18
ROOT
ATOM      1  C   UNL     1       8.309  47.570  52.603  1.00  0.00     0.119 A 
ATOM      2  C   UNL     1       8.412  46.680  51.562  1.00  0.00     0.067 A 
ATOM      3  C   UNL     1       7.245  46.060  51.179  1.00  0.00     0.131 A 
ATOM      4  N   UNL     1       6.079  46.322  51.786  1.00  0.00    -0.196 NA
ATOM      5  C   UNL     1       6.061  47.207  52.796  1.00  0.00     0.229 A 
ATOM      6  N   UNL     1       7.154  47.841  53.235  1.00  0.00    -0.221 NA
ENDROOT
BRANCH   3   7
ATOM      7  N   UNL     1       7.297  45.086  50.155  1.00  0.00    -0.367 N 
ATOM      8  H   UNL     1       6.926  45.516  49.308  1.00  0.00     0.162 HD
BRANCH   7   9
ATOM      9  C   UNL     1       6.674  43.803  50.497  1.00  0.00     0.091 C 
ATOM     10  C   UNL     1       7.054  42.725  49.457  1.00  0.00     0.086 C 
ATOM     11  C   UNL     1       5.154  43.971  50.557  1.00  0.00     0.086 C 
ATOM     12  C   UNL     1       5.944  41.731  49.177  1.00  0.00     0.262 C 
ATOM     13  C   UNL     1       4.472  42.672  50.973  1.00  0.00     0.262 C 
ATOM     14  N   UNL     1       5.185  41.475  50.431  1.00  0.00    -0.346 N 
ATOM     15  H   UNL     1       4.504  40.718  50.269  1.00  0.00     0.346 HD
ATOM     16  H   UNL     1       5.834  41.097  51.138  1.00  0.00     0.346 HD
ENDBRANCH   7   9
ENDBRANCH   3   7
BRANCH   5  17
ATOM     17  N   UNL     1       4.883  47.464  53.492  1.00  0.00    -0.324 N 
ATOM     18  H   UNL     1       4.763  48.461  53.612  1.00  0.00     0.170 HD
BRANCH  17  19
ATOM     19  C   UNL     1       3.854  46.631  53.940  1.00  0.00     0.041 A 
ATOM     20  C   UNL     1       3.879  45.987  55.184  1.00  0.00     0.030 A 
ATOM     21  C   UNL     1       2.698  46.496  53.156  1.00  0.00     0.030 A 
ATOM     22  C   UNL     1       2.799  45.218  55.624  1.00  0.00     0.048 A 
ATOM     23  C   UNL     1       1.609  45.733  53.592  1.00  0.00     0.048 A 
ATOM     24  C   UNL     1       1.675  45.081  54.817  1.00  0.00     0.120 A 
BRANCH  24  25
ATOM     25  O   UNL     1       0.624  44.365  55.315  1.00  0.00    -0.488 OA
BRANCH  25  26
ATOM     26  C   UNL     1      -0.653  44.953  55.001  1.00  0.00     0.201 C 
ATOM     27  C   UNL     1      -1.293  45.374  56.306  1.00  0.00     0.076 C 
ATOM     28  C   UNL     1      -1.640  43.893  54.521  1.00  0.00     0.205 C 
ATOM     29  C   UNL     1      -1.841  44.063  56.833  1.00  0.00     0.164 C 
ATOM     30  O   UNL     1      -2.177  43.256  55.695  1.00  0.00    -0.377 OA
ENDBRANCH  25  26
ENDBRANCH  24  25
ENDBRANCH  17  19
ENDBRANCH   5  17
TORSDOF 6
ENDMDL
MODEL 10
REMARK VINA RESULT:    -7.796      4.023      8.811
REMARK INTER + INTRA:         -11.055
REMARK INTER:                 -10.217
REMARK INTRA:                  -0.838
REMARK UNBOUND:                -0.525
REMARK SMILES c1cc(NC2CC[NH2+]CC2)nc(Nc2ccc(OC3CCOC3)cc2)n1
REMARK SMILES IDX 1 1 2 2 3 3 11 4 12 5 26 6 4 7 5 9 6 10 10 11 7 12 9 13 8 14
REMARK SMILES IDX 13 17 14 19 15 20 25 21 16 22 24 23 17 24 18 25 19 26 20 27
REMARK SMILES IDX 23 28 21 29 22 30
REMARK H PARENT 4 8 8 15 8 16 13 18
ROOT
ATOM      1  C   UNL     1      -0.767  43.233  50.940  1.00  0.00     0.119 A 
ATOM      2  C   UNL     1      -1.232  43.346  52.227  1.00  0.00     0.067 A 
ATOM      3  C   UNL     1      -0.283  43.269  53.222  1.00  0.00     0.131 A 
ATOM      4  N   UNL     1       1.016  43.102  52.939  1.00  0.00    -0.196 NA
ATOM      5  C   UNL     1       1.392  43.003  51.654  1.00  0.00     0.229 A 
ATOM      6  N   UNL     1       0.529  43.055  50.633  1.00  0.00    -0.221 NA
ENDROOT
BRANCH   3   7
ATOM      7  N   UNL     1      -0.707  43.314  54.570  1.00  0.00    -0.367 N 
ATOM      8  H   UNL     1      -1.538  42.729  54.646  1.00  0.00     0.162 HD
BRANCH   7   9
ATOM      9  C   UNL     1      -0.875  44.666  55.115  1.00  0.00     0.091 C 
ATOM     10  C   UNL     1       0.390  45.094  55.892  1.00  0.00     0.086 C 
ATOM     11  C   UNL     1      -2.100  44.700  56.031  1.00  0.00     0.086 C 
ATOM     12  C   UNL     1       0.095  45.953  57.107  1.00  0.00     0.262 C 
ATOM     13  C   UNL     1      -2.347  46.105  56.569  1.00  0.00     0.262 C 
ATOM     14  N   UNL     1      -1.066  46.836  56.816  1.00  0.00    -0.346 N 
ATOM     15  H   UNL     1      -1.196  47.497  57.596  1.00  0.00     0.346 HD
ATOM     16  H   UNL     1      -0.833  47.431  56.005  1.00  0.00     0.346 HD
ENDBRANCH   7   9
ENDBRANCH   3   7
BRANCH   5  17
ATOM     17  N   UNL     1       2.722  42.771  51.320  1.00  0.00    -0.324 N 
ATOM     18  H   UNL     1       2.859  41.793  51.104  1.00  0.00     0.170 HD
BRANCH  17  19
ATOM     19  C   UNL     1       3.813  43.629  51.149  1.00  0.00     0.041 A 
ATOM     20  C   UNL     1       3.748  45.006  51.402  1.00  0.00     0.030 A 
ATOM     21  C   UNL     1       5.057  43.086  50.795  1.00  0.00     0.030 A 
ATOM     22  C   UNL     1       4.879  45.818  51.287  1.00  0.00     0.048 A 
ATOM     23  C   UNL     1       6.196  43.891  50.683  1.00  0.00     0.048 A 
ATOM     24  C   UNL     1       6.095  45.259  50.911  1.00  0.00     0.120 A 
BRANCH  24  25
ATOM     25  O   UNL     1       7.183  46.083  50.865  1.00  0.00    -0.488 OA
BRANCH  25  26
ATOM     26  C   UNL     1       7.271  46.958  52.006  1.00  0.00     0.201 C 
ATOM     27  C   UNL     1       8.397  47.934  51.746  1.00  0.00     0.076 C 
ATOM     28  C   UNL     1       7.806  46.214  53.226  1.00  0.00     0.205 C 
ATOM     29  C   UNL     1       9.623  47.106  52.078  1.00  0.00     0.164 C 
ATOM     30  O   UNL     1       9.240  46.172  53.098  1.00  0.00    -0.377 OA
ENDBRANCH  25  26
ENDBRANCH  24  25
ENDBRANCH  17  19
ENDBRANCH   5  17
TORSDOF 6
ENDMDL
