MODEL 1
REMARK VINA RESULT:    -6.996      0.000      0.000
REMARK INTER + INTRA:         -11.398
REMARK INTER:                 -11.085
REMARK INTRA:                  -0.313
REMARK UNBOUND:                -0.313
REMARK SMILES CC(c1nc2ccccc2c(=O)[nH]1)[NH+]1CCC(C[NH+]2CCCCCC2)CC1
REMARK SMILES IDX 18 1 17 2 14 3 15 4 27 5 16 6 26 7 2 9 1 10 3 11 4 12 13 13
REMARK SMILES IDX 5 14 11 15 6 16 10 17 7 18 9 19 8 20 12 22 19 23 20 25 21 26
REMARK SMILES IDX 25 28 24 29 23 30 22 31
REMARK H PARENT 14 8 13 21 19 24
REMARK Flexibility Score:   85.900
ROOT
ATOM      1  C   UNL     1       0.381  45.199  55.279  1.00  0.00     0.266 C 
ENDROOT
BRANCH   1   2
ATOM      2  C   UNL     1       1.767  44.526  55.116  1.00  0.00     0.055 C 
ATOM      3  N   UNL     1       3.458  45.735  53.004  1.00  0.00    -0.326 N 
ATOM      4  C   UNL     1       3.193  46.497  54.282  1.00  0.00     0.263 C 
ATOM      5  C   UNL     1       2.313  44.858  52.608  1.00  0.00     0.263 C 
ATOM      6  C   UNL     1       2.913  45.512  55.409  1.00  0.00     0.071 C 
ATOM      7  C   UNL     1       1.986  43.877  53.738  1.00  0.00     0.071 C 
ATOM      8  H   UNL     1       4.287  45.132  53.198  1.00  0.00     0.348 HD
BRANCH   3   9
ATOM      9  C   UNL     1       4.042  46.682  51.912  1.00  0.00     0.248 C 
ATOM     10  C   UNL     1       3.460  46.401  50.531  1.00  0.00     0.084 C 
BRANCH   9  11
ATOM     11  C   UNL     1       5.565  46.467  51.849  1.00  0.00     0.167 C 
ATOM     12  N   UNL     1       6.296  47.080  52.729  1.00  0.00    -0.228 NA
ATOM     13  N   UNL     1       6.061  45.645  50.882  1.00  0.00    -0.305 N 
ATOM     14  C   UNL     1       7.690  46.866  52.674  1.00  0.00     0.078 A 
ATOM     15  C   UNL     1       7.404  45.393  50.734  1.00  0.00     0.258 C 
ATOM     16  C   UNL     1       8.508  47.495  53.614  1.00  0.00     0.029 A 
ATOM     17  C   UNL     1       8.289  46.046  51.710  1.00  0.00     0.065 A 
ATOM     18  C   UNL     1       9.893  47.306  53.587  1.00  0.00     0.002 A 
ATOM     19  C   UNL     1       9.671  45.850  51.672  1.00  0.00     0.016 A 
ATOM     20  C   UNL     1      10.474  46.486  52.618  1.00  0.00     0.001 A 
ATOM     21  H   UNL     1       5.486  45.160  50.204  1.00  0.00     0.171 HD
ATOM     22  O   UNL     1       7.814  44.677  49.832  1.00  0.00    -0.269 OA
ENDBRANCH   9  11
ENDBRANCH   3   9
ENDBRANCH   1   2
BRANCH   1  23
ATOM     23  N   UNL     1      -0.213  45.021  56.671  1.00  0.00    -0.335 N 
ATOM     24  H   UNL     1       0.393  44.345  57.151  1.00  0.00     0.348 HD
BRANCH  23  25
ATOM     25  C   UNL     1      -1.551  44.293  56.652  1.00  0.00     0.262 C 
BRANCH  25  26
ATOM     26  C   UNL     1      -2.595  44.824  55.680  1.00  0.00     0.061 CG0
ATOM     27  G   UNL     1      -3.237  46.155  56.040  1.00  0.00     0.000 G0
ENDBRANCH  25  26
ENDBRANCH  23  25
BRANCH  23  28
ATOM     28  C   UNL     1      -0.173  46.224  57.604  1.00  0.00     0.262 C 
BRANCH  28  29
ATOM     29  C   UNL     1      -1.275  47.244  57.344  1.00  0.00     0.061 C 
BRANCH  29  30
ATOM     30  C   UNL     1      -2.700  46.706  57.377  1.00  0.00     0.006 C 
BRANCH  30  31
ATOM     31  C   UNL     1      -3.236  46.167  56.054  1.00  0.00     0.006 CG0
ATOM     32  G   UNL     1      -2.606  44.836  55.672  1.00  0.00     0.000 G0
ENDBRANCH  30  31
ENDBRANCH  29  30
ENDBRANCH  28  29
ENDBRANCH  23  28
ENDBRANCH   1  23
TORSDOF 4
ENDMDL
MODEL 2
REMARK VINA RESULT:    -6.952      2.792      3.628
REMARK INTER + INTRA:         -11.329
REMARK INTER:                 -10.842
REMARK INTRA:                  -0.487
REMARK UNBOUND:                -0.313
REMARK SMILES CC(c1nc2ccccc2c(=O)[nH]1)[NH+]1CCC(C[NH+]2CCCCCC2)CC1
REMARK SMILES IDX 18 1 17 2 14 3 15 4 27 5 16 6 26 7 2 9 1 10 3 11 4 12 13 13
REMARK SMILES IDX 5 14 11 15 6 16 10 17 7 18 9 19 8 20 12 22 19 23 20 25 21 26
REMARK SMILES IDX 25 28 24 29 23 30 22 31
REMARK H PARENT 14 8 13 21 19 24
REMARK Flexibility Score:   85.900
ROOT
ATOM      1  C   UNL     1       0.266  42.623  52.689  1.00  0.00     0.266 C 
ENDROOT
BRANCH   1   2
ATOM      2  C   UNL     1       1.534  42.730  51.806  1.00  0.00     0.055 C 
ATOM      3  N   UNL     1       3.196  45.121  52.360  1.00  0.00    -0.326 N 
ATOM      4  C   UNL     1       3.135  43.999  53.370  1.00  0.00     0.263 C 
ATOM      5  C   UNL     1       1.917  45.282  51.599  1.00  0.00     0.263 C 
ATOM      6  C   UNL     1       2.820  42.692  52.654  1.00  0.00     0.071 C 
ATOM      7  C   UNL     1       1.556  43.970  50.894  1.00  0.00     0.071 C 
ATOM      8  H   UNL     1       3.951  44.862  51.689  1.00  0.00     0.348 HD
BRANCH   3   9
ATOM      9  C   UNL     1       3.809  46.404  53.001  1.00  0.00     0.248 C 
ATOM     10  C   UNL     1       3.217  47.682  52.419  1.00  0.00     0.084 C 
BRANCH   9  11
ATOM     11  C   UNL     1       5.324  46.403  52.728  1.00  0.00     0.167 C 
ATOM     12  N   UNL     1       6.107  46.824  53.675  1.00  0.00    -0.228 NA
ATOM     13  N   UNL     1       5.761  45.959  51.517  1.00  0.00    -0.305 N 
ATOM     14  C   UNL     1       7.495  46.806  53.423  1.00  0.00     0.078 A 
ATOM     15  C   UNL     1       7.090  45.926  51.169  1.00  0.00     0.258 C 
ATOM     16  C   UNL     1       8.369  47.235  54.423  1.00  0.00     0.029 A 
ATOM     17  C   UNL     1       8.033  46.376  52.204  1.00  0.00     0.065 A 
ATOM     18  C   UNL     1       9.750  47.233  54.205  1.00  0.00     0.002 A 
ATOM     19  C   UNL     1       9.411  46.370  51.974  1.00  0.00     0.016 A 
ATOM     20  C   UNL     1      10.270  46.801  52.983  1.00  0.00     0.001 A 
ATOM     21  H   UNL     1       5.148  45.622  50.785  1.00  0.00     0.171 HD
ATOM     22  O   UNL     1       7.441  45.553  50.060  1.00  0.00    -0.269 OA
ENDBRANCH   9  11
ENDBRANCH   3   9
ENDBRANCH   1   2
BRANCH   1  23
ATOM     23  N   UNL     1      -0.965  43.254  52.052  1.00  0.00    -0.335 N 
ATOM     24  H   UNL     1      -0.629  43.738  51.209  1.00  0.00     0.348 HD
BRANCH  23  25
ATOM     25  C   UNL     1      -1.531  44.405  52.874  1.00  0.00     0.262 C 
BRANCH  25  26
ATOM     26  C   UNL     1      -2.025  45.614  52.092  1.00  0.00     0.061 CG0
ATOM     27  G   UNL     1      -3.026  45.336  50.982  1.00  0.00     0.000 G0
ENDBRANCH  25  26
ENDBRANCH  23  25
BRANCH  23  28
ATOM     28  C   UNL     1      -2.021  42.310  51.493  1.00  0.00     0.262 C 
BRANCH  28  29
ATOM     29  C   UNL     1      -2.784  42.873  50.300  1.00  0.00     0.061 C 
BRANCH  29  30
ATOM     30  C   UNL     1      -2.505  44.332  49.962  1.00  0.00     0.006 C 
BRANCH  30  31
ATOM     31  C   UNL     1      -3.025  45.357  50.966  1.00  0.00     0.006 CG0
ATOM     32  G   UNL     1      -2.031  45.628  52.085  1.00  0.00     0.000 G0
ENDBRANCH  30  31
ENDBRANCH  29  30
ENDBRANCH  28  29
ENDBRANCH  23  28
ENDBRANCH   1  23
TORSDOF 4
ENDMDL
MODEL 3
REMARK VINA RESULT:    -6.852      2.076      2.943
REMARK INTER + INTRA:         -11.171
REMARK INTER:                 -10.810
REMARK INTRA:                  -0.361
REMARK UNBOUND:                -0.313
REMARK SMILES CC(c1nc2ccccc2c(=O)[nH]1)[NH+]1CCC(C[NH+]2CCCCCC2)CC1
REMARK SMILES IDX 18 1 17 2 14 3 15 4 27 5 16 6 26 7 2 9 1 10 3 11 4 12 13 13
REMARK SMILES IDX 5 14 11 15 6 16 10 17 7 18 9 19 8 20 12 22 19 23 20 25 21 26
REMARK SMILES IDX 25 28 24 29 23 30 22 31
REMARK H PARENT 14 8 13 21 19 24
REMARK Flexibility Score:   85.900
ROOT
ATOM      1  C   UNL     1       0.600  42.310  52.794  1.00  0.00     0.266 C 
ENDROOT
BRANCH   1   2
ATOM      2  C   UNL     1       1.573  42.781  51.685  1.00  0.00     0.055 C 
ATOM      3  N   UNL     1       3.114  45.216  52.379  1.00  0.00    -0.326 N 
ATOM      4  C   UNL     1       3.420  43.910  53.075  1.00  0.00     0.263 C 
ATOM      5  C   UNL     1       1.670  45.348  52.008  1.00  0.00     0.263 C 
ATOM      6  C   UNL     1       3.037  42.750  52.165  1.00  0.00     0.071 C 
ATOM      7  C   UNL     1       1.247  44.174  51.118  1.00  0.00     0.071 C 
ATOM      8  H   UNL     1       3.682  45.213  51.505  1.00  0.00     0.348 HD
BRANCH   3   9
ATOM      9  C   UNL     1       3.765  46.409  53.142  1.00  0.00     0.248 C 
ATOM     10  C   UNL     1       3.180  47.753  52.723  1.00  0.00     0.084 C 
BRANCH   9  11
ATOM     11  C   UNL     1       5.272  46.418  52.829  1.00  0.00     0.167 C 
ATOM     12  N   UNL     1       6.081  46.799  53.770  1.00  0.00    -0.228 NA
ATOM     13  N   UNL     1       5.676  46.025  51.588  1.00  0.00    -0.305 N 
ATOM     14  C   UNL     1       7.462  46.790  53.480  1.00  0.00     0.078 A 
ATOM     15  C   UNL     1       6.995  46.004  51.204  1.00  0.00     0.258 C 
ATOM     16  C   UNL     1       8.364  47.176  54.473  1.00  0.00     0.029 A 
ATOM     17  C   UNL     1       7.967  46.410  52.230  1.00  0.00     0.065 A 
ATOM     18  C   UNL     1       9.738  47.181  54.218  1.00  0.00     0.002 A 
ATOM     19  C   UNL     1       9.337  46.411  51.963  1.00  0.00     0.016 A 
ATOM     20  C   UNL     1      10.225  46.800  52.966  1.00  0.00     0.001 A 
ATOM     21  H   UNL     1       5.042  45.718  50.860  1.00  0.00     0.171 HD
ATOM     22  O   UNL     1       7.315  45.677  50.071  1.00  0.00    -0.269 OA
ENDBRANCH   9  11
ENDBRANCH   3   9
ENDBRANCH   1   2
BRANCH   1  23
ATOM     23  N   UNL     1      -0.675  43.141  52.866  1.00  0.00    -0.335 N 
ATOM     24  H   UNL     1      -0.446  44.046  52.437  1.00  0.00     0.348 HD
BRANCH  23  25
ATOM     25  C   UNL     1      -1.036  43.545  54.290  1.00  0.00     0.262 C 
BRANCH  25  26
ATOM     26  C   UNL     1      -1.656  44.925  54.462  1.00  0.00     0.061 CG0
ATOM     27  G   UNL     1      -2.836  45.252  53.560  1.00  0.00     0.000 G0
ENDBRANCH  25  26
ENDBRANCH  23  25
BRANCH  23  28
ATOM     28  C   UNL     1      -1.860  42.670  52.034  1.00  0.00     0.262 C 
BRANCH  28  29
ATOM     29  C   UNL     1      -2.686  43.804  51.439  1.00  0.00     0.061 C 
BRANCH  29  30
ATOM     30  C   UNL     1      -2.495  45.173  52.080  1.00  0.00     0.006 C 
BRANCH  30  31
ATOM     31  C   UNL     1      -2.851  45.267  53.560  1.00  0.00     0.006 CG0
ATOM     32  G   UNL     1      -1.674  44.929  54.462  1.00  0.00     0.000 G0
ENDBRANCH  30  31
ENDBRANCH  29  30
ENDBRANCH  28  29
ENDBRANCH  23  28
ENDBRANCH   1  23
TORSDOF 4
ENDMDL
MODEL 4
REMARK VINA RESULT:    -6.842      1.825      2.769
REMARK INTER + INTRA:         -11.154
REMARK INTER:                 -11.714
REMARK INTRA:                   0.559
REMARK UNBOUND:                -0.313
REMARK SMILES CC(c1nc2ccccc2c(=O)[nH]1)[NH+]1CCC(C[NH+]2CCCCCC2)CC1
REMARK SMILES IDX 18 1 17 2 14 3 15 4 27 5 16 6 26 7 2 9 1 10 3 11 4 12 13 13
REMARK SMILES IDX 5 14 11 15 6 16 10 17 7 18 9 19 8 20 12 22 19 23 20 25 21 26
REMARK SMILES IDX 25 28 24 29 23 30 22 31
REMARK H PARENT 14 8 13 21 19 24
REMARK Flexibility Score:   85.900
ROOT
ATOM      1  C   UNL     1       1.705  45.140  54.174  1.00  0.00     0.266 C 
ENDROOT
BRANCH   1   2
ATOM      2  C   UNL     1       1.621  44.320  52.863  1.00  0.00     0.055 C 
ATOM      3  N   UNL     1       3.958  44.660  51.071  1.00  0.00    -0.326 N 
ATOM      4  C   UNL     1       4.110  43.899  52.368  1.00  0.00     0.263 C 
ATOM      5  C   UNL     1       2.943  45.756  51.162  1.00  0.00     0.263 C 
ATOM      6  C   UNL     1       2.767  43.296  52.761  1.00  0.00     0.071 C 
ATOM      7  C   UNL     1       1.587  45.184  51.589  1.00  0.00     0.071 C 
ATOM      8  H   UNL     1       3.632  43.963  50.368  1.00  0.00     0.348 HD
BRANCH   3   9
ATOM      9  C   UNL     1       5.355  45.029  50.486  1.00  0.00     0.248 C 
ATOM     10  C   UNL     1       6.123  43.804  50.005  1.00  0.00     0.084 C 
BRANCH   9  11
ATOM     11  C   UNL     1       6.177  45.714  51.593  1.00  0.00     0.167 C 
ATOM     12  N   UNL     1       7.471  45.633  51.519  1.00  0.00    -0.228 NA
ATOM     13  N   UNL     1       5.508  46.369  52.582  1.00  0.00    -0.305 N 
ATOM     14  C   UNL     1       8.218  46.276  52.529  1.00  0.00     0.078 A 
ATOM     15  C   UNL     1       6.145  47.005  53.621  1.00  0.00     0.258 C 
ATOM     16  C   UNL     1       9.611  46.225  52.475  1.00  0.00     0.029 A 
ATOM     17  C   UNL     1       7.614  46.964  53.590  1.00  0.00     0.065 A 
ATOM     18  C   UNL     1      10.381  46.849  53.461  1.00  0.00     0.002 A 
ATOM     19  C   UNL     1       8.373  47.591  54.581  1.00  0.00     0.016 A 
ATOM     20  C   UNL     1       9.764  47.530  54.512  1.00  0.00     0.001 A 
ATOM     21  H   UNL     1       4.498  46.438  52.630  1.00  0.00     0.171 HD
ATOM     22  O   UNL     1       5.508  47.552  54.508  1.00  0.00    -0.269 OA
ENDBRANCH   9  11
ENDBRANCH   3   9
ENDBRANCH   1   2
BRANCH   1  23
ATOM     23  N   UNL     1       0.418  45.103  54.989  1.00  0.00    -0.335 N 
ATOM     24  H   UNL     1      -0.087  45.967  54.758  1.00  0.00     0.348 HD
BRANCH  23  25
ATOM     25  C   UNL     1       0.662  45.267  56.484  1.00  0.00     0.262 C 
BRANCH  25  26
ATOM     26  C   UNL     1      -0.244  46.251  57.211  1.00  0.00     0.061 CG0
ATOM     27  G   UNL     1      -1.733  45.942  57.186  1.00  0.00     0.000 G0
ENDBRANCH  25  26
ENDBRANCH  23  25
BRANCH  23  28
ATOM     28  C   UNL     1      -0.596  44.022  54.640  1.00  0.00     0.262 C 
BRANCH  28  29
ATOM     29  C   UNL     1      -1.983  44.266  55.221  1.00  0.00     0.061 C 
BRANCH  29  30
ATOM     30  C   UNL     1      -2.039  44.518  56.723  1.00  0.00     0.006 C 
BRANCH  30  31
ATOM     31  C   UNL     1      -1.741  45.946  57.167  1.00  0.00     0.006 CG0
ATOM     32  G   UNL     1      -0.249  46.239  57.214  1.00  0.00     0.000 G0
ENDBRANCH  30  31
ENDBRANCH  29  30
ENDBRANCH  28  29
ENDBRANCH  23  28
ENDBRANCH   1  23
TORSDOF 4
ENDMDL
MODEL 5
REMARK VINA RESULT:    -6.793      3.224      3.993
REMARK INTER + INTRA:         -11.077
REMARK INTER:                 -10.662
REMARK INTRA:                  -0.416
REMARK UNBOUND:                -0.313
REMARK SMILES CC(c1nc2ccccc2c(=O)[nH]1)[NH+]1CCC(C[NH+]2CCCCCC2)CC1
REMARK SMILES IDX 18 1 17 2 14 3 15 4 27 5 16 6 26 7 2 9 1 10 3 11 4 12 13 13
REMARK SMILES IDX 5 14 11 15 6 16 10 17 7 18 9 19 8 20 12 22 19 23 20 25 21 26
REMARK SMILES IDX 25 28 24 29 23 30 22 31
REMARK H PARENT 14 8 13 21 19 24
REMARK Flexibility Score:   85.900
ROOT
ATOM      1  C   UNL     1      -0.161  43.280  51.665  1.00  0.00     0.266 C 
ENDROOT
BRANCH   1   2
ATOM      2  C   UNL     1       0.688  44.023  52.727  1.00  0.00     0.055 C 
ATOM      3  N   UNL     1       3.478  44.563  51.883  1.00  0.00    -0.326 N 
ATOM      4  C   UNL     1       2.339  45.319  51.239  1.00  0.00     0.263 C 
ATOM      5  C   UNL     1       3.094  43.174  52.285  1.00  0.00     0.263 C 
ATOM      6  C   UNL     1       1.168  45.393  52.211  1.00  0.00     0.071 C 
ATOM      7  C   UNL     1       1.895  43.215  53.238  1.00  0.00     0.071 C 
ATOM      8  H   UNL     1       3.728  45.100  52.742  1.00  0.00     0.348 HD
BRANCH   3   9
ATOM      9  C   UNL     1       4.785  44.728  51.050  1.00  0.00     0.248 C 
ATOM     10  C   UNL     1       5.385  43.388  50.644  1.00  0.00     0.084 C 
BRANCH   9  11
ATOM     11  C   UNL     1       5.816  45.479  51.913  1.00  0.00     0.167 C 
ATOM     12  N   UNL     1       7.054  45.463  51.522  1.00  0.00    -0.228 NA
ATOM     13  N   UNL     1       5.377  46.121  53.032  1.00  0.00    -0.305 N 
ATOM     14  C   UNL     1       7.991  46.165  52.310  1.00  0.00     0.078 A 
ATOM     15  C   UNL     1       6.215  46.812  53.874  1.00  0.00     0.258 C 
ATOM     16  C   UNL     1       9.329  46.185  51.913  1.00  0.00     0.029 A 
ATOM     17  C   UNL     1       7.631  46.845  53.480  1.00  0.00     0.065 A 
ATOM     18  C   UNL     1      10.282  46.870  52.672  1.00  0.00     0.002 A 
ATOM     19  C   UNL     1       8.575  47.532  54.247  1.00  0.00     0.016 A 
ATOM     20  C   UNL     1       9.907  47.542  53.836  1.00  0.00     0.001 A 
ATOM     21  H   UNL     1       4.408  46.140  53.326  1.00  0.00     0.171 HD
ATOM     22  O   UNL     1       5.788  47.346  54.886  1.00  0.00    -0.269 OA
ENDBRANCH   9  11
ENDBRANCH   3   9
ENDBRANCH   1   2
BRANCH   1  23
ATOM     23  N   UNL     1      -1.561  42.931  52.153  1.00  0.00    -0.335 N 
ATOM     24  H   UNL     1      -1.472  42.034  52.647  1.00  0.00     0.348 HD
BRANCH  23  25
ATOM     25  C   UNL     1      -2.511  42.577  51.016  1.00  0.00     0.262 C 
BRANCH  25  26
ATOM     26  C   UNL     1      -2.526  43.529  49.829  1.00  0.00     0.061 CG0
ATOM     27  G   UNL     1      -2.980  44.953  50.112  1.00  0.00     0.000 G0
ENDBRANCH  25  26
ENDBRANCH  23  25
BRANCH  23  28
ATOM     28  C   UNL     1      -2.173  43.835  53.215  1.00  0.00     0.262 C 
BRANCH  28  29
ATOM     29  C   UNL     1      -2.683  45.166  52.675  1.00  0.00     0.061 C 
BRANCH  29  30
ATOM     30  C   UNL     1      -3.642  45.079  51.494  1.00  0.00     0.006 C 
BRANCH  30  31
ATOM     31  C   UNL     1      -2.992  44.960  50.119  1.00  0.00     0.006 CG0
ATOM     32  G   UNL     1      -2.533  43.541  49.816  1.00  0.00     0.000 G0
ENDBRANCH  30  31
ENDBRANCH  29  30
ENDBRANCH  28  29
ENDBRANCH  23  28
ENDBRANCH   1  23
TORSDOF 4
ENDMDL
MODEL 6
REMARK VINA RESULT:    -6.757      4.586      7.636
REMARK INTER + INTRA:         -11.020
REMARK INTER:                 -11.569
REMARK INTRA:                   0.550
REMARK UNBOUND:                -0.313
REMARK SMILES CC(c1nc2ccccc2c(=O)[nH]1)[NH+]1CCC(C[NH+]2CCCCCC2)CC1
REMARK SMILES IDX 18 1 17 2 14 3 15 4 27 5 16 6 26 7 2 9 1 10 3 11 4 12 13 13
REMARK SMILES IDX 5 14 11 15 6 16 10 17 7 18 9 19 8 20 12 22 19 23 20 25 21 26
REMARK SMILES IDX 25 28 24 29 23 30 22 31
REMARK H PARENT 14 8 13 21 19 24
REMARK Flexibility Score:   85.900
ROOT
ATOM      1  C   UNL     1       6.643  46.466  54.546  1.00  0.00     0.266 C 
ENDROOT
BRANCH   1   2
ATOM      2  C   UNL     1       5.201  46.901  54.907  1.00  0.00     0.055 C 
ATOM      3  N   UNL     1       3.092  45.462  53.402  1.00  0.00    -0.326 N 
ATOM      4  C   UNL     1       3.891  44.733  54.457  1.00  0.00     0.263 C 
ATOM      5  C   UNL     1       3.885  46.525  52.709  1.00  0.00     0.263 C 
ATOM      6  C   UNL     1       4.387  45.731  55.494  1.00  0.00     0.071 C 
ATOM      7  C   UNL     1       4.427  47.527  53.733  1.00  0.00     0.071 C 
ATOM      8  H   UNL     1       2.299  45.914  53.905  1.00  0.00     0.348 HD
BRANCH   3   9
ATOM      9  C   UNL     1       2.320  44.449  52.502  1.00  0.00     0.248 C 
ATOM     10  C   UNL     1       1.516  43.444  53.318  1.00  0.00     0.084 C 
BRANCH   9  11
ATOM     11  C   UNL     1       3.348  43.674  51.656  1.00  0.00     0.167 C 
ATOM     12  N   UNL     1       4.412  44.310  51.269  1.00  0.00    -0.228 NA
ATOM     13  N   UNL     1       3.090  42.368  51.364  1.00  0.00    -0.305 N 
ATOM     14  C   UNL     1       5.356  43.590  50.508  1.00  0.00     0.078 A 
ATOM     15  C   UNL     1       3.937  41.591  50.611  1.00  0.00     0.258 C 
ATOM     16  C   UNL     1       6.520  44.235  50.088  1.00  0.00     0.029 A 
ATOM     17  C   UNL     1       5.170  42.248  50.152  1.00  0.00     0.065 A 
ATOM     18  C   UNL     1       7.474  43.551  49.330  1.00  0.00     0.002 A 
ATOM     19  C   UNL     1       6.116  41.554  49.395  1.00  0.00     0.016 A 
ATOM     20  C   UNL     1       7.274  42.213  48.984  1.00  0.00     0.001 A 
ATOM     21  H   UNL     1       2.264  41.873  51.677  1.00  0.00     0.171 HD
ATOM     22  O   UNL     1       3.655  40.433  50.341  1.00  0.00    -0.269 OA
ENDBRANCH   9  11
ENDBRANCH   3   9
ENDBRANCH   1   2
BRANCH   1  23
ATOM     23  N   UNL     1       7.403  47.513  53.742  1.00  0.00    -0.335 N 
ATOM     24  H   UNL     1       6.821  48.360  53.763  1.00  0.00     0.348 HD
BRANCH  23  25
ATOM     25  C   UNL     1       7.447  47.195  52.253  1.00  0.00     0.262 C 
BRANCH  25  26
ATOM     26  C   UNL     1       8.714  47.601  51.514  1.00  0.00     0.061 CG0
ATOM     27  G   UNL     1       9.944  46.740  51.759  1.00  0.00     0.000 G0
ENDBRANCH  25  26
ENDBRANCH  23  25
BRANCH  23  28
ATOM     28  C   UNL     1       8.726  48.004  54.312  1.00  0.00     0.262 C 
BRANCH  28  29
ATOM     29  C   UNL     1       9.822  46.945  54.332  1.00  0.00     0.061 C 
BRANCH  29  30
ATOM     30  C   UNL     1       9.891  46.039  53.109  1.00  0.00     0.006 C 
BRANCH  30  31
ATOM     31  C   UNL     1       9.931  46.748  51.759  1.00  0.00     0.006 CG0
ATOM     32  G   UNL     1       8.699  47.607  51.519  1.00  0.00     0.000 G0
ENDBRANCH  30  31
ENDBRANCH  29  30
ENDBRANCH  28  29
ENDBRANCH  23  28
ENDBRANCH   1  23
TORSDOF 4
ENDMDL
MODEL 7
REMARK VINA RESULT:    -6.661      1.359      2.070
REMARK INTER + INTRA:         -10.868
REMARK INTER:                 -11.113
REMARK INTRA:                   0.245
REMARK UNBOUND:                -0.313
REMARK SMILES CC(c1nc2ccccc2c(=O)[nH]1)[NH+]1CCC(C[NH+]2CCCCCC2)CC1
REMARK SMILES IDX 18 1 17 2 14 3 15 4 27 5 16 6 26 7 2 9 1 10 3 11 4 12 13 13
REMARK SMILES IDX 5 14 11 15 6 16 10 17 7 18 9 19 8 20 12 22 19 23 20 25 21 26
REMARK SMILES IDX 25 28 24 29 23 30 22 31
REMARK H PARENT 14 8 13 21 19 24
REMARK Flexibility Score:   85.900
ROOT
ATOM      1  C   UNL     1       0.695  42.963  53.695  1.00  0.00     0.266 C 
ENDROOT
BRANCH   1   2
ATOM      2  C   UNL     1       1.433  43.367  52.395  1.00  0.00     0.055 C 
ATOM      3  N   UNL     1       3.155  45.763  52.676  1.00  0.00    -0.326 N 
ATOM      4  C   UNL     1       3.558  44.467  53.340  1.00  0.00     0.263 C 
ATOM      5  C   UNL     1       1.671  45.937  52.604  1.00  0.00     0.263 C 
ATOM      6  C   UNL     1       2.963  43.297  52.567  1.00  0.00     0.071 C 
ATOM      7  C   UNL     1       1.039  44.756  51.859  1.00  0.00     0.071 C 
ATOM      8  H   UNL     1       3.532  45.716  51.705  1.00  0.00     0.348 HD
BRANCH   3   9
ATOM      9  C   UNL     1       3.984  46.953  53.249  1.00  0.00     0.248 C 
ATOM     10  C   UNL     1       3.520  48.298  52.702  1.00  0.00     0.084 C 
BRANCH   9  11
ATOM     11  C   UNL     1       5.458  46.751  52.852  1.00  0.00     0.167 C 
ATOM     12  N   UNL     1       6.367  47.154  53.686  1.00  0.00    -0.228 NA
ATOM     13  N   UNL     1       5.728  46.157  51.656  1.00  0.00    -0.305 N 
ATOM     14  C   UNL     1       7.715  46.952  53.322  1.00  0.00     0.078 A 
ATOM     15  C   UNL     1       7.007  45.937  51.203  1.00  0.00     0.258 C 
ATOM     16  C   UNL     1       8.721  47.357  54.200  1.00  0.00     0.029 A 
ATOM     17  C   UNL     1       8.087  46.359  52.108  1.00  0.00     0.065 A 
ATOM     18  C   UNL     1      10.067  47.174  53.869  1.00  0.00     0.002 A 
ATOM     19  C   UNL     1       9.427  46.171  51.766  1.00  0.00     0.016 A 
ATOM     20  C   UNL     1      10.420  46.582  52.654  1.00  0.00     0.001 A 
ATOM     21  H   UNL     1       5.015  45.834  51.013  1.00  0.00     0.171 HD
ATOM     22  O   UNL     1       7.209  45.433  50.109  1.00  0.00    -0.269 OA
ENDBRANCH   9  11
ENDBRANCH   3   9
ENDBRANCH   1   2
BRANCH   1  23
ATOM     23  N   UNL     1      -0.154  44.086  54.277  1.00  0.00    -0.335 N 
ATOM     24  H   UNL     1      -0.085  44.866  53.611  1.00  0.00     0.348 HD
BRANCH  23  25
ATOM     25  C   UNL     1       0.451  44.690  55.538  1.00  0.00     0.262 C 
BRANCH  25  26
ATOM     26  C   UNL     1      -0.463  44.774  56.752  1.00  0.00     0.061 CG0
ATOM     27  G   UNL     1      -1.475  45.910  56.757  1.00  0.00     0.000 G0
ENDBRANCH  25  26
ENDBRANCH  23  25
BRANCH  23  28
ATOM     28  C   UNL     1      -1.657  43.852  54.360  1.00  0.00     0.262 C 
BRANCH  28  29
ATOM     29  C   UNL     1      -2.474  45.130  54.498  1.00  0.00     0.061 C 
BRANCH  29  30
ATOM     30  C   UNL     1      -2.723  45.608  55.924  1.00  0.00     0.006 C 
BRANCH  30  31
ATOM     31  C   UNL     1      -1.476  45.924  56.744  1.00  0.00     0.006 CG0
ATOM     32  G   UNL     1      -0.479  44.775  56.748  1.00  0.00     0.000 G0
ENDBRANCH  30  31
ENDBRANCH  29  30
ENDBRANCH  28  29
ENDBRANCH  23  28
ENDBRANCH   1  23
TORSDOF 4
ENDMDL
MODEL 8
REMARK VINA RESULT:    -6.489      3.962      8.577
REMARK INTER + INTRA:         -10.595
REMARK INTER:                 -11.153
REMARK INTRA:                   0.558
REMARK UNBOUND:                -0.313
REMARK SMILES CC(c1nc2ccccc2c(=O)[nH]1)[NH+]1CCC(C[NH+]2CCCCCC2)CC1
REMARK SMILES IDX 18 1 17 2 14 3 15 4 27 5 16 6 26 7 2 9 1 10 3 11 4 12 13 13
REMARK SMILES IDX 5 14 11 15 6 16 10 17 7 18 9 19 8 20 12 22 19 23 20 25 21 26
REMARK SMILES IDX 25 28 24 29 23 30 22 31
REMARK H PARENT 14 8 13 21 19 24
REMARK Flexibility Score:   85.900
ROOT
ATOM      1  C   UNL     1       6.904  45.326  51.682  1.00  0.00     0.266 C 
ENDROOT
BRANCH   1   2
ATOM      2  C   UNL     1       5.998  45.019  50.464  1.00  0.00     0.055 C 
ATOM      3  N   UNL     1       3.496  43.585  51.147  1.00  0.00    -0.326 N 
ATOM      4  C   UNL     1       3.666  45.031  51.550  1.00  0.00     0.263 C 
ATOM      5  C   UNL     1       4.790  42.832  51.140  1.00  0.00     0.263 C 
ATOM      6  C   UNL     1       4.629  45.714  50.587  1.00  0.00     0.071 C 
ATOM      7  C   UNL     1       5.791  43.516  50.203  1.00  0.00     0.071 C 
ATOM      8  H   UNL     1       3.116  43.602  50.177  1.00  0.00     0.348 HD
BRANCH   3   9
ATOM      9  C   UNL     1       2.301  42.939  51.913  1.00  0.00     0.248 C 
ATOM     10  C   UNL     1       1.008  42.980  51.107  1.00  0.00     0.084 C 
BRANCH   9  11
ATOM     11  C   UNL     1       2.083  43.726  53.218  1.00  0.00     0.167 C 
ATOM     12  N   UNL     1       0.861  43.892  53.625  1.00  0.00    -0.228 NA
ATOM     13  N   UNL     1       3.178  44.199  53.878  1.00  0.00    -0.305 N 
ATOM     14  C   UNL     1       0.670  44.601  54.830  1.00  0.00     0.078 A 
ATOM     15  C   UNL     1       3.093  44.919  55.045  1.00  0.00     0.258 C 
ATOM     16  C   UNL     1      -0.628  44.785  55.308  1.00  0.00     0.029 A 
ATOM     17  C   UNL     1       1.736  45.131  55.568  1.00  0.00     0.065 A 
ATOM     18  C   UNL     1      -0.852  45.485  56.497  1.00  0.00     0.002 A 
ATOM     19  C   UNL     1       1.524  45.832  56.758  1.00  0.00     0.016 A 
ATOM     20  C   UNL     1       0.221  46.007  57.221  1.00  0.00     0.001 A 
ATOM     21  H   UNL     1       4.130  44.058  53.563  1.00  0.00     0.171 HD
ATOM     22  O   UNL     1       4.097  45.356  55.588  1.00  0.00    -0.269 OA
ENDBRANCH   9  11
ENDBRANCH   3   9
ENDBRANCH   1   2
BRANCH   1  23
ATOM     23  N   UNL     1       7.047  46.816  51.964  1.00  0.00    -0.335 N 
ATOM     24  H   UNL     1       6.424  47.290  51.298  1.00  0.00     0.348 HD
BRANCH  23  25
ATOM     25  C   UNL     1       8.413  47.363  51.568  1.00  0.00     0.262 C 
BRANCH  25  26
ATOM     26  C   UNL     1       9.622  46.615  52.110  1.00  0.00     0.061 CG0
ATOM     27  G   UNL     1       9.908  46.781  53.594  1.00  0.00     0.000 G0
ENDBRANCH  25  26
ENDBRANCH  23  25
BRANCH  23  28
ATOM     28  C   UNL     1       6.541  47.322  53.308  1.00  0.00     0.262 C 
BRANCH  28  29
ATOM     29  C   UNL     1       7.496  47.058  54.467  1.00  0.00     0.061 C 
BRANCH  29  30
ATOM     30  C   UNL     1       8.892  47.652  54.324  1.00  0.00     0.006 C 
BRANCH  30  31
ATOM     31  C   UNL     1       9.913  46.781  53.600  1.00  0.00     0.006 CG0
ATOM     32  G   UNL     1       9.598  46.626  52.120  1.00  0.00     0.000 G0
ENDBRANCH  30  31
ENDBRANCH  29  30
ENDBRANCH  28  29
ENDBRANCH  23  28
ENDBRANCH   1  23
TORSDOF 4
ENDMDL
MODEL 9
REMARK VINA RESULT:    -6.446      1.473      1.976
REMARK INTER + INTRA:         -10.527
REMARK INTER:                 -10.592
REMARK INTRA:                   0.065
REMARK UNBOUND:                -0.313
REMARK SMILES CC(c1nc2ccccc2c(=O)[nH]1)[NH+]1CCC(C[NH+]2CCCCCC2)CC1
REMARK SMILES IDX 18 1 17 2 14 3 15 4 27 5 16 6 26 7 2 9 1 10 3 11 4 12 13 13
REMARK SMILES IDX 5 14 11 15 6 16 10 17 7 18 9 19 8 20 12 22 19 23 20 25 21 26
REMARK SMILES IDX 25 28 24 29 23 30 22 31
REMARK H PARENT 14 8 13 21 19 24
REMARK Flexibility Score:   85.900
ROOT
ATOM      1  C   UNL     1       0.691  43.982  53.593  1.00  0.00     0.266 C 
ENDROOT
BRANCH   1   2
ATOM      2  C   UNL     1       1.596  45.233  53.715  1.00  0.00     0.055 C 
ATOM      3  N   UNL     1       3.955  45.199  51.920  1.00  0.00    -0.326 N 
ATOM      4  C   UNL     1       2.572  45.386  51.339  1.00  0.00     0.263 C 
ATOM      5  C   UNL     1       3.955  44.334  53.141  1.00  0.00     0.263 C 
ATOM      6  C   UNL     1       1.664  46.014  52.389  1.00  0.00     0.071 C 
ATOM      7  C   UNL     1       3.023  44.924  54.204  1.00  0.00     0.071 C 
ATOM      8  H   UNL     1       4.283  46.151  52.187  1.00  0.00     0.348 HD
BRANCH   3   9
ATOM      9  C   UNL     1       4.977  44.846  50.797  1.00  0.00     0.248 C 
ATOM     10  C   UNL     1       5.019  43.352  50.501  1.00  0.00     0.084 C 
BRANCH   9  11
ATOM     11  C   UNL     1       6.377  45.288  51.262  1.00  0.00     0.167 C 
ATOM     12  N   UNL     1       6.457  45.980  52.357  1.00  0.00    -0.228 NA
ATOM     13  N   UNL     1       7.452  44.926  50.507  1.00  0.00    -0.305 N 
ATOM     14  C   UNL     1       7.744  46.369  52.785  1.00  0.00     0.078 A 
ATOM     15  C   UNL     1       8.741  45.276  50.828  1.00  0.00     0.258 C 
ATOM     16  C   UNL     1       7.872  47.100  53.967  1.00  0.00     0.029 A 
ATOM     17  C   UNL     1       8.904  46.050  52.068  1.00  0.00     0.065 A 
ATOM     18  C   UNL     1       9.132  47.502  54.418  1.00  0.00     0.002 A 
ATOM     19  C   UNL     1      10.169  46.447  52.508  1.00  0.00     0.016 A 
ATOM     20  C   UNL     1      10.278  47.177  53.690  1.00  0.00     0.001 A 
ATOM     21  H   UNL     1       7.386  44.376  49.659  1.00  0.00     0.171 HD
ATOM     22  O   UNL     1       9.676  44.961  50.107  1.00  0.00    -0.269 OA
ENDBRANCH   9  11
ENDBRANCH   3   9
ENDBRANCH   1   2
BRANCH   1  23
ATOM     23  N   UNL     1      -0.498  44.006  54.546  1.00  0.00    -0.335 N 
ATOM     24  H   UNL     1      -0.458  43.122  55.068  1.00  0.00     0.348 HD
BRANCH  23  25
ATOM     25  C   UNL     1      -1.834  43.890  53.825  1.00  0.00     0.262 C 
BRANCH  25  26
ATOM     26  C   UNL     1      -2.889  44.926  54.187  1.00  0.00     0.061 CG0
ATOM     27  G   UNL     1      -3.551  44.767  55.547  1.00  0.00     0.000 G0
ENDBRANCH  25  26
ENDBRANCH  23  25
BRANCH  23  28
ATOM     28  C   UNL     1      -0.479  45.049  55.656  1.00  0.00     0.262 C 
BRANCH  28  29
ATOM     29  C   UNL     1      -1.331  44.680  56.864  1.00  0.00     0.061 C 
BRANCH  29  30
ATOM     30  C   UNL     1      -2.673  44.026  56.556  1.00  0.00     0.006 C 
BRANCH  30  31
ATOM     31  C   UNL     1      -3.554  44.762  55.552  1.00  0.00     0.006 CG0
ATOM     32  G   UNL     1      -2.885  44.913  54.195  1.00  0.00     0.000 G0
ENDBRANCH  30  31
ENDBRANCH  29  30
ENDBRANCH  28  29
ENDBRANCH  23  28
ENDBRANCH   1  23
TORSDOF 4
ENDMDL
MODEL 10
REMARK VINA RESULT:    -6.421      2.563      3.587
REMARK INTER + INTRA:         -10.488
REMARK INTER:                 -10.313
REMARK INTRA:                  -0.175
REMARK UNBOUND:                -0.313
REMARK SMILES CC(c1nc2ccccc2c(=O)[nH]1)[NH+]1CCC(C[NH+]2CCCCCC2)CC1
REMARK SMILES IDX 18 1 17 2 14 3 15 4 27 5 16 6 26 7 2 9 1 10 3 11 4 12 13 13
REMARK SMILES IDX 5 14 11 15 6 16 10 17 7 18 9 19 8 20 12 22 19 23 20 25 21 26
REMARK SMILES IDX 25 28 24 29 23 30 22 31
REMARK H PARENT 14 8 13 21 19 24
REMARK Flexibility Score:   85.900
ROOT
ATOM      1  C   UNL     1       1.228  42.950  52.841  1.00  0.00     0.266 C 
ENDROOT
BRANCH   1   2
ATOM      2  C   UNL     1       2.253  43.511  51.824  1.00  0.00     0.055 C 
ATOM      3  N   UNL     1       3.923  45.719  52.882  1.00  0.00    -0.326 N 
ATOM      4  C   UNL     1       4.133  44.311  53.387  1.00  0.00     0.263 C 
ATOM      5  C   UNL     1       2.499  45.994  52.514  1.00  0.00     0.263 C 
ATOM      6  C   UNL     1       3.701  43.320  52.314  1.00  0.00     0.071 C 
ATOM      7  C   UNL     1       2.025  44.989  51.459  1.00  0.00     0.071 C 
ATOM      8  H   UNL     1       4.510  45.806  52.024  1.00  0.00     0.348 HD
BRANCH   3   9
ATOM      9  C   UNL     1       4.629  46.748  53.817  1.00  0.00     0.248 C 
ATOM     10  C   UNL     1       4.147  48.174  53.577  1.00  0.00     0.084 C 
BRANCH   9  11
ATOM     11  C   UNL     1       6.142  46.695  53.540  1.00  0.00     0.167 C 
ATOM     12  N   UNL     1       6.530  46.185  52.410  1.00  0.00    -0.228 NA
ATOM     13  N   UNL     1       6.990  47.187  54.487  1.00  0.00    -0.305 N 
ATOM     14  C   UNL     1       7.917  46.153  52.157  1.00  0.00     0.078 A 
ATOM     15  C   UNL     1       8.356  47.179  54.342  1.00  0.00     0.258 C 
ATOM     16  C   UNL     1       8.372  45.629  50.946  1.00  0.00     0.029 A 
ATOM     17  C   UNL     1       8.862  46.628  53.076  1.00  0.00     0.065 A 
ATOM     18  C   UNL     1       9.740  45.580  50.664  1.00  0.00     0.002 A 
ATOM     19  C   UNL     1      10.232  46.584  52.806  1.00  0.00     0.016 A 
ATOM     20  C   UNL     1      10.668  46.057  51.592  1.00  0.00     0.001 A 
ATOM     21  H   UNL     1       6.682  47.593  55.362  1.00  0.00     0.171 HD
ATOM     22  O   UNL     1       9.085  47.598  55.228  1.00  0.00    -0.269 OA
ENDBRANCH   9  11
ENDBRANCH   3   9
ENDBRANCH   1   2
BRANCH   1  23
ATOM     23  N   UNL     1      -0.178  43.501  52.642  1.00  0.00    -0.335 N 
ATOM     24  H   UNL     1      -0.065  44.510  52.482  1.00  0.00     0.348 HD
BRANCH  23  25
ATOM     25  C   UNL     1      -1.010  43.471  53.918  1.00  0.00     0.262 C 
BRANCH  25  26
ATOM     26  C   UNL     1      -2.116  44.511  54.026  1.00  0.00     0.061 CG0
ATOM     27  G   UNL     1      -3.048  44.632  52.831  1.00  0.00     0.000 G0
ENDBRANCH  25  26
ENDBRANCH  23  25
BRANCH  23  28
ATOM     28  C   UNL     1      -0.932  43.051  51.398  1.00  0.00     0.262 C 
BRANCH  28  29
ATOM     29  C   UNL     1      -1.689  44.171  50.695  1.00  0.00     0.061 C 
BRANCH  29  30
ATOM     30  C   UNL     1      -2.353  45.197  51.605  1.00  0.00     0.006 C 
BRANCH  30  31
ATOM     31  C   UNL     1      -3.064  44.633  52.831  1.00  0.00     0.006 CG0
ATOM     32  G   UNL     1      -2.140  44.512  54.033  1.00  0.00     0.000 G0
ENDBRANCH  30  31
ENDBRANCH  29  30
ENDBRANCH  28  29
ENDBRANCH  23  28
ENDBRANCH   1  23
TORSDOF 4
ENDMDL
