MODEL 1
REMARK VINA RESULT:    -9.250      0.000      0.000
REMARK INTER + INTRA:         -15.251
REMARK INTER:                 -14.116
REMARK INTRA:                  -1.135
REMARK UNBOUND:                -1.135
REMARK SMILES O=C(COCC1CC1)N(Cc1ccccc1)Cc1nc2ccccc2c(=O)[nH]1
REMARK SMILES IDX 1 1 2 2 3 3 4 4 5 5 6 6 7 7 8 8 9 9 10 10 11 11 12 12 16 13
REMARK SMILES IDX 13 14 15 15 14 16 17 17 18 18 19 19 28 20 20 21 26 22 21 23
REMARK SMILES IDX 25 24 22 25 24 26 23 27 27 29
REMARK H PARENT 28 28
ROOT
ATOM      1  O   UNL     1       5.325  47.936  53.432  1.00  0.00    -0.272 OA
ATOM      2  C   UNL     1       5.922  46.884  53.690  1.00  0.00     0.249 C 
ENDROOT
BRANCH   2   3
ATOM      3  C   UNL     1       6.880  46.818  54.881  1.00  0.00     0.260 C 
BRANCH   3   4
ATOM      4  O   UNL     1       8.018  47.638  54.651  1.00  0.00    -0.371 OA
BRANCH   4   5
ATOM      5  C   UNL     1       9.203  46.865  54.474  1.00  0.00     0.164 C 
BRANCH   5   6
ATOM      6  C   UNL     1       9.906  47.255  53.210  1.00  0.00     0.015 C 
ATOM      7  C   UNL     1       9.171  47.323  51.895  1.00  0.00     0.006 C 
ATOM      8  C   UNL     1      10.212  46.259  52.119  1.00  0.00     0.006 C 
ENDBRANCH   5   6
ENDBRANCH   4   5
ENDBRANCH   3   4
ENDBRANCH   2   3
BRANCH   2   9
ATOM      9  N   UNL     1       5.740  45.744  52.910  1.00  0.00    -0.329 N 
BRANCH   9  10
ATOM     10  C   UNL     1       5.395  45.806  51.485  1.00  0.00     0.155 C 
BRANCH  10  11
ATOM     11  C   UNL     1       6.170  44.828  50.634  1.00  0.00    -0.029 A 
ATOM     12  C   UNL     1       7.422  45.176  50.110  1.00  0.00     0.005 A 
ATOM     13  C   UNL     1       5.648  43.555  50.361  1.00  0.00     0.005 A 
ATOM     14  C   UNL     1       8.138  44.267  49.329  1.00  0.00     0.000 A 
ATOM     15  C   UNL     1       6.365  42.648  49.579  1.00  0.00     0.000 A 
ATOM     16  C   UNL     1       7.610  43.004  49.064  1.00  0.00     0.000 A 
ENDBRANCH  10  11
ENDBRANCH   9  10
BRANCH   9  17
ATOM     17  C   UNL     1       5.411  44.504  53.626  1.00  0.00     0.195 C 
BRANCH  17  18
ATOM     18  C   UNL     1       3.911  44.436  53.887  1.00  0.00     0.129 C 
ATOM     19  N   UNL     1       3.384  45.037  54.906  1.00  0.00    -0.233 NA
ATOM     20  N   UNL     1       3.187  43.687  52.995  1.00  0.00    -0.308 N 
ATOM     21  C   UNL     1       1.996  44.912  55.091  1.00  0.00     0.078 A 
ATOM     22  C   UNL     1       1.841  43.460  53.118  1.00  0.00     0.258 C 
ATOM     23  C   UNL     1       1.399  45.570  56.167  1.00  0.00     0.029 A 
ATOM     24  C   UNL     1       1.188  44.146  54.246  1.00  0.00     0.065 A 
ATOM     25  C   UNL     1       0.023  45.464  56.393  1.00  0.00     0.002 A 
ATOM     26  C   UNL     1      -0.189  44.030  54.463  1.00  0.00     0.016 A 
ATOM     27  C   UNL     1      -0.770  44.693  55.541  1.00  0.00     0.001 A 
ATOM     28  H   UNL     1       3.670  43.185  52.253  1.00  0.00     0.171 HD
ATOM     29  O   UNL     1       1.218  42.734  52.354  1.00  0.00    -0.269 OA
ENDBRANCH  17  18
ENDBRANCH   9  17
ENDBRANCH   2   9
TORSDOF 9
ENDMDL
MODEL 2
REMARK VINA RESULT:    -9.173      1.210      6.039
REMARK INTER + INTRA:         -15.134
REMARK INTER:                 -13.994
REMARK INTRA:                  -1.140
REMARK UNBOUND:                -1.135
REMARK SMILES O=C(COCC1CC1)N(Cc1ccccc1)Cc1nc2ccccc2c(=O)[nH]1
REMARK SMILES IDX 1 1 2 2 3 3 4 4 5 5 6 6 7 7 8 8 9 9 10 10 11 11 12 12 16 13
REMARK SMILES IDX 13 14 15 15 14 16 17 17 18 18 19 19 28 20 20 21 26 22 21 23
REMARK SMILES IDX 25 24 22 25 24 26 23 27 27 29
REMARK H PARENT 28 28
ROOT
ATOM      1  O   UNL     1       4.374  48.358  54.235  1.00  0.00    -0.272 OA
ATOM      2  C   UNL     1       4.563  47.144  54.374  1.00  0.00     0.249 C 
ENDROOT
BRANCH   2   3
ATOM      3  C   UNL     1       5.908  46.630  54.894  1.00  0.00     0.260 C 
BRANCH   3   4
ATOM      4  O   UNL     1       6.953  47.525  54.541  1.00  0.00    -0.371 OA
BRANCH   4   5
ATOM      5  C   UNL     1       7.513  47.212  53.267  1.00  0.00     0.164 C 
BRANCH   5   6
ATOM      6  C   UNL     1       8.799  46.461  53.424  1.00  0.00     0.015 C 
ATOM      7  C   UNL     1      10.022  47.117  54.014  1.00  0.00     0.006 C 
ATOM      8  C   UNL     1      10.003  46.736  52.557  1.00  0.00     0.006 C 
ENDBRANCH   5   6
ENDBRANCH   4   5
ENDBRANCH   3   4
ENDBRANCH   2   3
BRANCH   2   9
ATOM      9  N   UNL     1       3.567  46.221  54.062  1.00  0.00    -0.329 N 
BRANCH   9  10
ATOM     10  C   UNL     1       3.265  45.064  54.914  1.00  0.00     0.155 C 
BRANCH  10  11
ATOM     11  C   UNL     1       1.797  44.925  55.242  1.00  0.00    -0.029 A 
ATOM     12  C   UNL     1       0.956  44.152  54.430  1.00  0.00     0.005 A 
ATOM     13  C   UNL     1       1.257  45.566  56.366  1.00  0.00     0.005 A 
ATOM     14  C   UNL     1      -0.399  44.021  54.740  1.00  0.00     0.000 A 
ATOM     15  C   UNL     1      -0.099  45.436  56.672  1.00  0.00     0.000 A 
ATOM     16  C   UNL     1      -0.926  44.662  55.860  1.00  0.00     0.000 A 
ENDBRANCH  10  11
ENDBRANCH   9  10
BRANCH   9  17
ATOM     17  C   UNL     1       3.167  46.137  52.651  1.00  0.00     0.195 C 
BRANCH  17  18
ATOM     18  C   UNL     1       4.130  45.235  51.890  1.00  0.00     0.129 C 
ATOM     19  N   UNL     1       5.240  45.699  51.411  1.00  0.00    -0.233 NA
ATOM     20  N   UNL     1       3.728  43.933  51.733  1.00  0.00    -0.308 N 
ATOM     21  C   UNL     1       6.069  44.810  50.703  1.00  0.00     0.078 A 
ATOM     22  C   UNL     1       4.436  43.005  51.017  1.00  0.00     0.258 C 
ATOM     23  C   UNL     1       7.283  45.279  50.198  1.00  0.00     0.029 A 
ATOM     24  C   UNL     1       5.722  43.476  50.475  1.00  0.00     0.065 A 
ATOM     25  C   UNL     1       8.131  44.431  49.481  1.00  0.00     0.002 A 
ATOM     26  C   UNL     1       6.561  42.618  49.756  1.00  0.00     0.016 A 
ATOM     27  C   UNL     1       7.770  43.101  49.259  1.00  0.00     0.001 A 
ATOM     28  H   UNL     1       2.813  43.647  52.076  1.00  0.00     0.171 HD
ATOM     29  O   UNL     1       4.033  41.865  50.827  1.00  0.00    -0.269 OA
ENDBRANCH  17  18
ENDBRANCH   9  17
ENDBRANCH   2   9
TORSDOF 9
ENDMDL
MODEL 3
REMARK VINA RESULT:    -9.062      1.553      2.258
REMARK INTER + INTRA:         -14.965
REMARK INTER:                 -13.613
REMARK INTRA:                  -1.352
REMARK UNBOUND:                -1.135
REMARK SMILES O=C(COCC1CC1)N(Cc1ccccc1)Cc1nc2ccccc2c(=O)[nH]1
REMARK SMILES IDX 1 1 2 2 3 3 4 4 5 5 6 6 7 7 8 8 9 9 10 10 11 11 12 12 16 13
REMARK SMILES IDX 13 14 15 15 14 16 17 17 18 18 19 19 28 20 20 21 26 22 21 23
REMARK SMILES IDX 25 24 22 25 24 26 23 27 27 29
REMARK H PARENT 28 28
ROOT
ATOM      1  O   UNL     1       3.140  47.581  52.686  1.00  0.00    -0.272 OA
ATOM      2  C   UNL     1       4.106  46.925  53.091  1.00  0.00     0.249 C 
ENDROOT
BRANCH   2   3
ATOM      3  C   UNL     1       5.085  47.539  54.095  1.00  0.00     0.260 C 
BRANCH   3   4
ATOM      4  O   UNL     1       6.340  47.790  53.477  1.00  0.00    -0.371 OA
BRANCH   4   5
ATOM      5  C   UNL     1       7.375  46.980  54.030  1.00  0.00     0.164 C 
BRANCH   5   6
ATOM      6  C   UNL     1       8.723  47.540  53.692  1.00  0.00     0.015 C 
ATOM      7  C   UNL     1       9.788  46.685  53.051  1.00  0.00     0.006 C 
ATOM      8  C   UNL     1       9.965  47.172  54.465  1.00  0.00     0.006 C 
ENDBRANCH   5   6
ENDBRANCH   4   5
ENDBRANCH   3   4
ENDBRANCH   2   3
BRANCH   2   9
ATOM      9  N   UNL     1       4.328  45.623  52.648  1.00  0.00    -0.329 N 
BRANCH   9  10
ATOM     10  C   UNL     1       4.245  45.243  51.232  1.00  0.00     0.155 C 
BRANCH  10  11
ATOM     11  C   UNL     1       5.569  44.815  50.644  1.00  0.00    -0.029 A 
ATOM     12  C   UNL     1       6.674  45.677  50.676  1.00  0.00     0.005 A 
ATOM     13  C   UNL     1       5.711  43.548  50.061  1.00  0.00     0.005 A 
ATOM     14  C   UNL     1       7.898  45.275  50.137  1.00  0.00     0.000 A 
ATOM     15  C   UNL     1       6.934  43.150  49.520  1.00  0.00     0.000 A 
ATOM     16  C   UNL     1       8.028  44.013  49.560  1.00  0.00     0.000 A 
ENDBRANCH  10  11
ENDBRANCH   9  10
BRANCH   9  17
ATOM     17  C   UNL     1       4.158  44.553  53.640  1.00  0.00     0.195 C 
BRANCH  17  18
ATOM     18  C   UNL     1       2.724  44.544  54.154  1.00  0.00     0.129 C 
ATOM     19  N   UNL     1       1.747  44.157  53.397  1.00  0.00    -0.233 NA
ATOM     20  N   UNL     1       2.551  44.991  55.439  1.00  0.00    -0.308 N 
ATOM     21  C   UNL     1       0.448  44.196  53.935  1.00  0.00     0.078 A 
ATOM     22  C   UNL     1       1.324  45.117  56.035  1.00  0.00     0.258 C 
ATOM     23  C   UNL     1      -0.619  43.760  53.149  1.00  0.00     0.029 A 
ATOM     24  C   UNL     1       0.181  44.663  55.225  1.00  0.00     0.065 A 
ATOM     25  C   UNL     1      -1.927  43.791  53.643  1.00  0.00     0.002 A 
ATOM     26  C   UNL     1      -1.123  44.701  55.729  1.00  0.00     0.016 A 
ATOM     27  C   UNL     1      -2.178  44.262  54.932  1.00  0.00     0.001 A 
ATOM     28  H   UNL     1       3.351  45.344  55.959  1.00  0.00     0.171 HD
ATOM     29  O   UNL     1       1.176  45.582  57.158  1.00  0.00    -0.269 OA
ENDBRANCH  17  18
ENDBRANCH   9  17
ENDBRANCH   2   9
TORSDOF 9
ENDMDL
MODEL 4
REMARK VINA RESULT:    -9.053      1.741      5.921
REMARK INTER + INTRA:         -14.951
REMARK INTER:                 -13.907
REMARK INTRA:                  -1.044
REMARK UNBOUND:                -1.135
REMARK SMILES O=C(COCC1CC1)N(Cc1ccccc1)Cc1nc2ccccc2c(=O)[nH]1
REMARK SMILES IDX 1 1 2 2 3 3 4 4 5 5 6 6 7 7 8 8 9 9 10 10 11 11 12 12 16 13
REMARK SMILES IDX 13 14 15 15 14 16 17 17 18 18 19 19 28 20 20 21 26 22 21 23
REMARK SMILES IDX 25 24 22 25 24 26 23 27 27 29
REMARK H PARENT 28 28
ROOT
ATOM      1  O   UNL     1       4.642  48.314  54.584  1.00  0.00    -0.272 OA
ATOM      2  C   UNL     1       4.726  47.081  54.597  1.00  0.00     0.249 C 
ENDROOT
BRANCH   2   3
ATOM      3  C   UNL     1       6.048  46.405  54.971  1.00  0.00     0.260 C 
BRANCH   3   4
ATOM      4  O   UNL     1       7.133  47.305  54.798  1.00  0.00    -0.371 OA
BRANCH   4   5
ATOM      5  C   UNL     1       7.663  47.250  53.475  1.00  0.00     0.164 C 
BRANCH   5   6
ATOM      6  C   UNL     1       8.932  46.455  53.445  1.00  0.00     0.015 C 
ATOM      7  C   UNL     1      10.247  47.060  53.867  1.00  0.00     0.006 C 
ATOM      8  C   UNL     1      10.014  46.703  52.423  1.00  0.00     0.006 C 
ENDBRANCH   5   6
ENDBRANCH   4   5
ENDBRANCH   3   4
ENDBRANCH   2   3
BRANCH   2   9
ATOM      9  N   UNL     1       3.631  46.281  54.275  1.00  0.00    -0.329 N 
BRANCH   9  10
ATOM     10  C   UNL     1       3.248  45.107  55.068  1.00  0.00     0.155 C 
BRANCH  10  11
ATOM     11  C   UNL     1       1.766  45.027  55.349  1.00  0.00    -0.029 A 
ATOM     12  C   UNL     1       1.211  45.706  56.442  1.00  0.00     0.005 A 
ATOM     13  C   UNL     1       0.925  44.274  54.516  1.00  0.00     0.005 A 
ATOM     14  C   UNL     1      -0.160  45.635  56.695  1.00  0.00     0.000 A 
ATOM     15  C   UNL     1      -0.445  44.202  54.773  1.00  0.00     0.000 A 
ATOM     16  C   UNL     1      -0.988  44.884  55.861  1.00  0.00     0.000 A 
ENDBRANCH  10  11
ENDBRANCH   9  10
BRANCH   9  17
ATOM     17  C   UNL     1       3.170  46.329  52.881  1.00  0.00     0.195 C 
BRANCH  17  18
ATOM     18  C   UNL     1       3.994  45.372  52.028  1.00  0.00     0.129 C 
ATOM     19  N   UNL     1       3.621  44.144  51.856  1.00  0.00    -0.233 NA
ATOM     20  N   UNL     1       5.145  45.892  51.494  1.00  0.00    -0.308 N 
ATOM     21  C   UNL     1       4.443  43.315  51.072  1.00  0.00     0.078 A 
ATOM     22  C   UNL     1       6.038  45.155  50.763  1.00  0.00     0.258 C 
ATOM     23  C   UNL     1       4.051  41.994  50.850  1.00  0.00     0.029 A 
ATOM     24  C   UNL     1       5.646  43.758  50.513  1.00  0.00     0.065 A 
ATOM     25  C   UNL     1       4.845  41.135  50.084  1.00  0.00     0.002 A 
ATOM     26  C   UNL     1       6.449  42.906  49.749  1.00  0.00     0.016 A 
ATOM     27  C   UNL     1       6.044  41.591  49.535  1.00  0.00     0.001 A 
ATOM     28  H   UNL     1       5.416  46.847  51.722  1.00  0.00     0.171 HD
ATOM     29  O   UNL     1       7.095  45.613  50.349  1.00  0.00    -0.269 OA
ENDBRANCH  17  18
ENDBRANCH   9  17
ENDBRANCH   2   9
TORSDOF 9
ENDMDL
MODEL 5
REMARK VINA RESULT:    -8.988      1.735      6.681
REMARK INTER + INTRA:         -14.852
REMARK INTER:                 -13.552
REMARK INTRA:                  -1.300
REMARK UNBOUND:                -1.135
REMARK SMILES O=C(COCC1CC1)N(Cc1ccccc1)Cc1nc2ccccc2c(=O)[nH]1
REMARK SMILES IDX 1 1 2 2 3 3 4 4 5 5 6 6 7 7 8 8 9 9 10 10 11 11 12 12 16 13
REMARK SMILES IDX 13 14 15 15 14 16 17 17 18 18 19 19 28 20 20 21 26 22 21 23
REMARK SMILES IDX 25 24 22 25 24 26 23 27 27 29
REMARK H PARENT 28 28
ROOT
ATOM      1  O   UNL     1       1.160  44.546  51.384  1.00  0.00    -0.272 OA
ATOM      2  C   UNL     1       2.131  45.119  51.892  1.00  0.00     0.249 C 
ENDROOT
BRANCH   2   3
ATOM      3  C   UNL     1       1.924  46.110  53.039  1.00  0.00     0.260 C 
BRANCH   3   4
ATOM      4  O   UNL     1       2.512  45.618  54.235  1.00  0.00    -0.371 OA
BRANCH   4   5
ATOM      5  C   UNL     1       1.649  44.712  54.919  1.00  0.00     0.164 C 
BRANCH   5   6
ATOM      6  C   UNL     1       0.601  45.458  55.688  1.00  0.00     0.015 C 
ATOM      7  C   UNL     1       0.590  45.460  57.196  1.00  0.00     0.006 C 
ATOM      8  C   UNL     1      -0.501  44.753  56.438  1.00  0.00     0.006 C 
ENDBRANCH   5   6
ENDBRANCH   4   5
ENDBRANCH   3   4
ENDBRANCH   2   3
BRANCH   2   9
ATOM      9  N   UNL     1       3.426  44.881  51.436  1.00  0.00    -0.329 N 
BRANCH   9  10
ATOM     10  C   UNL     1       4.239  43.756  51.915  1.00  0.00     0.155 C 
BRANCH  10  11
ATOM     11  C   UNL     1       4.533  42.728  50.848  1.00  0.00    -0.029 A 
ATOM     12  C   UNL     1       3.573  41.768  50.500  1.00  0.00     0.005 A 
ATOM     13  C   UNL     1       5.772  42.722  50.190  1.00  0.00     0.005 A 
ATOM     14  C   UNL     1       3.847  40.823  49.510  1.00  0.00     0.000 A 
ATOM     15  C   UNL     1       6.043  41.775  49.201  1.00  0.00     0.000 A 
ATOM     16  C   UNL     1       5.080  40.827  48.860  1.00  0.00     0.000 A 
ENDBRANCH  10  11
ENDBRANCH   9  10
BRANCH   9  17
ATOM     17  C   UNL     1       4.141  46.026  50.858  1.00  0.00     0.195 C 
BRANCH  17  18
ATOM     18  C   UNL     1       5.380  46.338  51.687  1.00  0.00     0.129 C 
ATOM     19  N   UNL     1       6.567  46.104  51.225  1.00  0.00    -0.233 NA
ATOM     20  N   UNL     1       5.145  46.849  52.938  1.00  0.00    -0.308 N 
ATOM     21  C   UNL     1       7.662  46.399  52.057  1.00  0.00     0.078 A 
ATOM     22  C   UNL     1       6.139  47.119  53.842  1.00  0.00     0.258 C 
ATOM     23  C   UNL     1       8.953  46.180  51.573  1.00  0.00     0.029 A 
ATOM     24  C   UNL     1       7.510  46.896  53.355  1.00  0.00     0.065 A 
ATOM     25  C   UNL     1      10.068  46.452  52.372  1.00  0.00     0.002 A 
ATOM     26  C   UNL     1       8.618  47.169  54.163  1.00  0.00     0.016 A 
ATOM     27  C   UNL     1       9.900  46.945  53.666  1.00  0.00     0.001 A 
ATOM     28  H   UNL     1       4.187  46.947  53.267  1.00  0.00     0.171 HD
ATOM     29  O   UNL     1       5.912  47.510  54.980  1.00  0.00    -0.269 OA
ENDBRANCH  17  18
ENDBRANCH   9  17
ENDBRANCH   2   9
TORSDOF 9
ENDMDL
MODEL 6
REMARK VINA RESULT:    -8.979      1.601      2.470
REMARK INTER + INTRA:         -14.838
REMARK INTER:                 -13.266
REMARK INTRA:                  -1.572
REMARK UNBOUND:                -1.135
REMARK SMILES O=C(COCC1CC1)N(Cc1ccccc1)Cc1nc2ccccc2c(=O)[nH]1
REMARK SMILES IDX 1 1 2 2 3 3 4 4 5 5 6 6 7 7 8 8 9 9 10 10 11 11 12 12 16 13
REMARK SMILES IDX 13 14 15 15 14 16 17 17 18 18 19 19 28 20 20 21 26 22 21 23
REMARK SMILES IDX 25 24 22 25 24 26 23 27 27 29
REMARK H PARENT 28 28
ROOT
ATOM      1  O   UNL     1       6.139  44.600  54.212  1.00  0.00    -0.272 OA
ATOM      2  C   UNL     1       6.007  45.788  53.898  1.00  0.00     0.249 C 
ENDROOT
BRANCH   2   3
ATOM      3  C   UNL     1       6.654  46.884  54.749  1.00  0.00     0.260 C 
BRANCH   3   4
ATOM      4  O   UNL     1       7.686  47.535  54.021  1.00  0.00    -0.371 OA
BRANCH   4   5
ATOM      5  C   UNL     1       8.964  46.960  54.282  1.00  0.00     0.164 C 
BRANCH   5   6
ATOM      6  C   UNL     1       9.883  47.160  53.116  1.00  0.00     0.015 C 
ATOM      7  C   UNL     1       9.357  47.212  51.703  1.00  0.00     0.006 C 
ATOM      8  C   UNL     1      10.208  46.051  52.146  1.00  0.00     0.006 C 
ENDBRANCH   5   6
ENDBRANCH   4   5
ENDBRANCH   3   4
ENDBRANCH   2   3
BRANCH   2   9
ATOM      9  N   UNL     1       5.272  46.159  52.773  1.00  0.00    -0.329 N 
BRANCH   9  10
ATOM     10  C   UNL     1       5.872  46.274  51.438  1.00  0.00     0.155 C 
BRANCH  10  11
ATOM     11  C   UNL     1       6.150  44.940  50.786  1.00  0.00    -0.029 A 
ATOM     12  C   UNL     1       5.245  43.879  50.920  1.00  0.00     0.005 A 
ATOM     13  C   UNL     1       7.318  44.748  50.033  1.00  0.00     0.005 A 
ATOM     14  C   UNL     1       5.503  42.650  50.311  1.00  0.00     0.000 A 
ATOM     15  C   UNL     1       7.575  43.517  49.427  1.00  0.00     0.000 A 
ATOM     16  C   UNL     1       6.666  42.469  49.565  1.00  0.00     0.000 A 
ENDBRANCH  10  11
ENDBRANCH   9  10
BRANCH   9  17
ATOM     17  C   UNL     1       4.028  46.902  53.016  1.00  0.00     0.195 C 
BRANCH  17  18
ATOM     18  C   UNL     1       2.862  45.932  53.155  1.00  0.00     0.129 C 
ATOM     19  N   UNL     1       2.292  45.421  52.110  1.00  0.00    -0.233 NA
ATOM     20  N   UNL     1       2.456  45.671  54.439  1.00  0.00    -0.308 N 
ATOM     21  C   UNL     1       1.208  44.550  52.318  1.00  0.00     0.078 A 
ATOM     22  C   UNL     1       1.379  44.881  54.744  1.00  0.00     0.258 C 
ATOM     23  C   UNL     1       0.593  43.965  51.210  1.00  0.00     0.029 A 
ATOM     24  C   UNL     1       0.714  44.251  53.591  1.00  0.00     0.065 A 
ATOM     25  C   UNL     1      -0.494  43.101  51.372  1.00  0.00     0.002 A 
ATOM     26  C   UNL     1      -0.375  43.390  53.765  1.00  0.00     0.016 A 
ATOM     27  C   UNL     1      -0.978  42.814  52.649  1.00  0.00     0.001 A 
ATOM     28  H   UNL     1       2.902  46.157  55.214  1.00  0.00     0.171 HD
ATOM     29  O   UNL     1       0.985  44.710  55.890  1.00  0.00    -0.269 OA
ENDBRANCH  17  18
ENDBRANCH   9  17
ENDBRANCH   2   9
TORSDOF 9
ENDMDL
MODEL 7
REMARK VINA RESULT:    -8.959      1.788      5.501
REMARK INTER + INTRA:         -14.808
REMARK INTER:                 -13.221
REMARK INTRA:                  -1.587
REMARK UNBOUND:                -1.135
REMARK SMILES O=C(COCC1CC1)N(Cc1ccccc1)Cc1nc2ccccc2c(=O)[nH]1
REMARK SMILES IDX 1 1 2 2 3 3 4 4 5 5 6 6 7 7 8 8 9 9 10 10 11 11 12 12 16 13
REMARK SMILES IDX 13 14 15 15 14 16 17 17 18 18 19 19 28 20 20 21 26 22 21 23
REMARK SMILES IDX 25 24 22 25 24 26 23 27 27 29
REMARK H PARENT 28 28
ROOT
ATOM      1  O   UNL     1       3.235  47.884  52.705  1.00  0.00    -0.272 OA
ATOM      2  C   UNL     1       3.792  47.125  53.506  1.00  0.00     0.249 C 
ENDROOT
BRANCH   2   3
ATOM      3  C   UNL     1       5.026  47.595  54.280  1.00  0.00     0.260 C 
BRANCH   3   4
ATOM      4  O   UNL     1       6.167  47.616  53.434  1.00  0.00    -0.371 OA
BRANCH   4   5
ATOM      5  C   UNL     1       7.298  47.008  54.054  1.00  0.00     0.164 C 
BRANCH   5   6
ATOM      6  C   UNL     1       8.571  47.555  53.486  1.00  0.00     0.015 C 
ATOM      7  C   UNL     1       9.557  46.665  52.772  1.00  0.00     0.006 C 
ATOM      8  C   UNL     1       9.918  47.268  54.103  1.00  0.00     0.006 C 
ENDBRANCH   5   6
ENDBRANCH   4   5
ENDBRANCH   3   4
ENDBRANCH   2   3
BRANCH   2   9
ATOM      9  N   UNL     1       3.317  45.832  53.721  1.00  0.00    -0.329 N 
BRANCH   9  10
ATOM     10  C   UNL     1       1.950  45.558  54.180  1.00  0.00     0.155 C 
BRANCH  10  11
ATOM     11  C   UNL     1       1.220  44.547  53.328  1.00  0.00    -0.029 A 
ATOM     12  C   UNL     1       0.893  44.841  51.997  1.00  0.00     0.005 A 
ATOM     13  C   UNL     1       0.862  43.298  53.857  1.00  0.00     0.005 A 
ATOM     14  C   UNL     1       0.223  43.902  51.211  1.00  0.00     0.000 A 
ATOM     15  C   UNL     1       0.190  42.362  53.069  1.00  0.00     0.000 A 
ATOM     16  C   UNL     1      -0.127  42.663  51.746  1.00  0.00     0.000 A 
ENDBRANCH  10  11
ENDBRANCH   9  10
BRANCH   9  17
ATOM     17  C   UNL     1       4.327  44.792  53.960  1.00  0.00     0.195 C 
BRANCH  17  18
ATOM     18  C   UNL     1       4.796  44.208  52.634  1.00  0.00     0.129 C 
ATOM     19  N   UNL     1       4.259  43.132  52.153  1.00  0.00    -0.233 NA
ATOM     20  N   UNL     1       5.822  44.879  52.019  1.00  0.00    -0.308 N 
ATOM     21  C   UNL     1       4.759  42.641  50.933  1.00  0.00     0.078 A 
ATOM     22  C   UNL     1       6.413  44.454  50.858  1.00  0.00     0.258 C 
ATOM     23  C   UNL     1       4.181  41.498  50.381  1.00  0.00     0.029 A 
ATOM     24  C   UNL     1       5.820  43.248  50.255  1.00  0.00     0.065 A 
ATOM     25  C   UNL     1       4.655  40.972  49.175  1.00  0.00     0.002 A 
ATOM     26  C   UNL     1       6.304  42.730  49.049  1.00  0.00     0.016 A 
ATOM     27  C   UNL     1       5.716  41.588  48.510  1.00  0.00     0.001 A 
ATOM     28  H   UNL     1       6.245  45.681  52.481  1.00  0.00     0.171 HD
ATOM     29  O   UNL     1       7.373  45.023  50.355  1.00  0.00    -0.269 OA
ENDBRANCH  17  18
ENDBRANCH   9  17
ENDBRANCH   2   9
TORSDOF 9
ENDMDL
MODEL 8
REMARK VINA RESULT:    -8.854      1.464      1.694
REMARK INTER + INTRA:         -14.647
REMARK INTER:                 -13.326
REMARK INTRA:                  -1.321
REMARK UNBOUND:                -1.135
REMARK SMILES O=C(COCC1CC1)N(Cc1ccccc1)Cc1nc2ccccc2c(=O)[nH]1
REMARK SMILES IDX 1 1 2 2 3 3 4 4 5 5 6 6 7 7 8 8 9 9 10 10 11 11 12 12 16 13
REMARK SMILES IDX 13 14 15 15 14 16 17 17 18 18 19 19 28 20 20 21 26 22 21 23
REMARK SMILES IDX 25 24 22 25 24 26 23 27 27 29
REMARK H PARENT 28 28
ROOT
ATOM      1  O   UNL     1       5.870  44.560  54.247  1.00  0.00    -0.272 OA
ATOM      2  C   UNL     1       5.743  45.698  53.782  1.00  0.00     0.249 C 
ENDROOT
BRANCH   2   3
ATOM      3  C   UNL     1       6.208  46.914  54.588  1.00  0.00     0.260 C 
BRANCH   3   4
ATOM      4  O   UNL     1       7.279  47.571  53.924  1.00  0.00    -0.371 OA
BRANCH   4   5
ATOM      5  C   UNL     1       8.539  46.979  54.234  1.00  0.00     0.164 C 
BRANCH   5   6
ATOM      6  C   UNL     1       9.545  47.287  53.168  1.00  0.00     0.015 C 
ATOM      7  C   UNL     1       9.166  47.287  51.708  1.00  0.00     0.006 C 
ATOM      8  C   UNL     1      10.090  46.227  52.244  1.00  0.00     0.006 C 
ENDBRANCH   5   6
ENDBRANCH   4   5
ENDBRANCH   3   4
ENDBRANCH   2   3
BRANCH   2   9
ATOM      9  N   UNL     1       5.178  45.903  52.524  1.00  0.00    -0.329 N 
BRANCH   9  10
ATOM     10  C   UNL     1       5.899  45.621  51.277  1.00  0.00     0.155 C 
BRANCH  10  11
ATOM     11  C   UNL     1       5.750  44.194  50.805  1.00  0.00    -0.029 A 
ATOM     12  C   UNL     1       6.683  43.635  49.921  1.00  0.00     0.005 A 
ATOM     13  C   UNL     1       4.676  43.408  51.248  1.00  0.00     0.005 A 
ATOM     14  C   UNL     1       6.544  42.314  49.491  1.00  0.00     0.000 A 
ATOM     15  C   UNL     1       4.538  42.088  50.815  1.00  0.00     0.000 A 
ATOM     16  C   UNL     1       5.474  41.541  49.938  1.00  0.00     0.000 A 
ENDBRANCH  10  11
ENDBRANCH   9  10
BRANCH   9  17
ATOM     17  C   UNL     1       4.061  46.854  52.453  1.00  0.00     0.195 C 
BRANCH  17  18
ATOM     18  C   UNL     1       2.764  46.164  52.854  1.00  0.00     0.129 C 
ATOM     19  N   UNL     1       2.409  46.082  54.097  1.00  0.00    -0.233 NA
ATOM     20  N   UNL     1       2.033  45.627  51.825  1.00  0.00    -0.308 N 
ATOM     21  C   UNL     1       1.208  45.412  54.392  1.00  0.00     0.078 A 
ATOM     22  C   UNL     1       0.880  44.911  52.011  1.00  0.00     0.258 C 
ATOM     23  C   UNL     1       0.791  45.333  55.721  1.00  0.00     0.029 A 
ATOM     24  C   UNL     1       0.418  44.814  53.406  1.00  0.00     0.065 A 
ATOM     25  C   UNL     1      -0.392  44.668  56.057  1.00  0.00     0.002 A 
ATOM     26  C   UNL     1      -0.766  44.143  53.731  1.00  0.00     0.016 A 
ATOM     27  C   UNL     1      -1.169  44.072  55.063  1.00  0.00     0.001 A 
ATOM     28  H   UNL     1       2.399  45.667  50.876  1.00  0.00     0.171 HD
ATOM     29  O   UNL     1       0.273  44.379  51.091  1.00  0.00    -0.269 OA
ENDBRANCH  17  18
ENDBRANCH   9  17
ENDBRANCH   2   9
TORSDOF 9
ENDMDL
MODEL 9
REMARK VINA RESULT:    -8.827      1.666      7.135
REMARK INTER + INTRA:         -14.605
REMARK INTER:                 -13.328
REMARK INTRA:                  -1.278
REMARK UNBOUND:                -1.135
REMARK SMILES O=C(COCC1CC1)N(Cc1ccccc1)Cc1nc2ccccc2c(=O)[nH]1
REMARK SMILES IDX 1 1 2 2 3 3 4 4 5 5 6 6 7 7 8 8 9 9 10 10 11 11 12 12 16 13
REMARK SMILES IDX 13 14 15 15 14 16 17 17 18 18 19 19 28 20 20 21 26 22 21 23
REMARK SMILES IDX 25 24 22 25 24 26 23 27 27 29
REMARK H PARENT 28 28
ROOT
ATOM      1  O   UNL     1       4.445  43.478  53.027  1.00  0.00    -0.272 OA
ATOM      2  C   UNL     1       3.727  43.667  52.039  1.00  0.00     0.249 C 
ENDROOT
BRANCH   2   3
ATOM      3  C   UNL     1       3.252  42.480  51.197  1.00  0.00     0.260 C 
BRANCH   3   4
ATOM      4  O   UNL     1       4.268  41.490  51.115  1.00  0.00    -0.371 OA
BRANCH   4   5
ATOM      5  C   UNL     1       4.615  41.195  49.763  1.00  0.00     0.164 C 
BRANCH   5   6
ATOM      6  C   UNL     1       6.045  41.550  49.494  1.00  0.00     0.015 C 
ATOM      7  C   UNL     1       6.556  42.953  49.700  1.00  0.00     0.006 C 
ATOM      8  C   UNL     1       6.457  42.387  48.309  1.00  0.00     0.006 C 
ENDBRANCH   5   6
ENDBRANCH   4   5
ENDBRANCH   3   4
ENDBRANCH   2   3
BRANCH   2   9
ATOM      9  N   UNL     1       3.336  44.952  51.668  1.00  0.00    -0.329 N 
BRANCH   9  10
ATOM     10  C   UNL     1       1.931  45.378  51.651  1.00  0.00     0.155 C 
BRANCH  10  11
ATOM     11  C   UNL     1       1.208  45.119  52.951  1.00  0.00    -0.029 A 
ATOM     12  C   UNL     1       0.023  44.370  52.970  1.00  0.00     0.005 A 
ATOM     13  C   UNL     1       1.714  45.622  54.158  1.00  0.00     0.005 A 
ATOM     14  C   UNL     1      -0.640  44.128  54.175  1.00  0.00     0.000 A 
ATOM     15  C   UNL     1       1.048  45.381  55.361  1.00  0.00     0.000 A 
ATOM     16  C   UNL     1      -0.127  44.633  55.369  1.00  0.00     0.000 A 
ENDBRANCH  10  11
ENDBRANCH   9  10
BRANCH   9  17
ATOM     17  C   UNL     1       4.277  45.710  50.832  1.00  0.00     0.195 C 
BRANCH  17  18
ATOM     18  C   UNL     1       5.473  46.151  51.665  1.00  0.00     0.129 C 
ATOM     19  N   UNL     1       6.683  45.992  51.230  1.00  0.00    -0.233 NA
ATOM     20  N   UNL     1       5.177  46.692  52.890  1.00  0.00    -0.308 N 
ATOM     21  C   UNL     1       7.736  46.406  52.065  1.00  0.00     0.078 A 
ATOM     22  C   UNL     1       6.131  47.076  53.796  1.00  0.00     0.258 C 
ATOM     23  C   UNL     1       9.049  46.268  51.609  1.00  0.00     0.029 A 
ATOM     24  C   UNL     1       7.524  46.942  53.338  1.00  0.00     0.065 A 
ATOM     25  C   UNL     1      10.125  46.659  52.412  1.00  0.00     0.002 A 
ATOM     26  C   UNL     1       8.593  47.333  54.150  1.00  0.00     0.016 A 
ATOM     27  C   UNL     1       9.897  47.190  53.682  1.00  0.00     0.001 A 
ATOM     28  H   UNL     1       4.209  46.729  53.201  1.00  0.00     0.171 HD
ATOM     29  O   UNL     1       5.855  47.494  54.913  1.00  0.00    -0.269 OA
ENDBRANCH  17  18
ENDBRANCH   9  17
ENDBRANCH   2   9
TORSDOF 9
ENDMDL
MODEL 10
REMARK VINA RESULT:    -8.684      1.614      6.053
REMARK INTER + INTRA:         -14.388
REMARK INTER:                 -12.691
REMARK INTRA:                  -1.697
REMARK UNBOUND:                -1.135
REMARK SMILES O=C(COCC1CC1)N(Cc1ccccc1)Cc1nc2ccccc2c(=O)[nH]1
REMARK SMILES IDX 1 1 2 2 3 3 4 4 5 5 6 6 7 7 8 8 9 9 10 10 11 11 12 12 16 13
REMARK SMILES IDX 13 14 15 15 14 16 17 17 18 18 19 19 28 20 20 21 26 22 21 23
REMARK SMILES IDX 25 24 22 25 24 26 23 27 27 29
REMARK H PARENT 28 28
ROOT
ATOM      1  O   UNL     1       5.879  45.498  55.573  1.00  0.00    -0.272 OA
ATOM      2  C   UNL     1       5.013  46.103  54.931  1.00  0.00     0.249 C 
ENDROOT
BRANCH   2   3
ATOM      3  C   UNL     1       3.575  46.166  55.452  1.00  0.00     0.260 C 
BRANCH   3   4
ATOM      4  O   UNL     1       2.928  44.914  55.279  1.00  0.00    -0.371 OA
BRANCH   4   5
ATOM      5  C   UNL     1       1.529  44.999  55.543  1.00  0.00     0.164 C 
BRANCH   5   6
ATOM      6  C   UNL     1       0.757  44.139  54.589  1.00  0.00     0.015 C 
ATOM      7  C   UNL     1       0.038  44.734  53.404  1.00  0.00     0.006 C 
ATOM      8  C   UNL     1      -0.751  44.142  54.542  1.00  0.00     0.006 C 
ENDBRANCH   5   6
ENDBRANCH   4   5
ENDBRANCH   3   4
ENDBRANCH   2   3
BRANCH   2   9
ATOM      9  N   UNL     1       5.320  46.735  53.728  1.00  0.00    -0.329 N 
BRANCH   9  10
ATOM     10  C   UNL     1       6.254  47.865  53.643  1.00  0.00     0.155 C 
BRANCH  10  11
ATOM     11  C   UNL     1       7.660  47.458  53.270  1.00  0.00    -0.029 A 
ATOM     12  C   UNL     1       7.990  47.177  51.937  1.00  0.00     0.005 A 
ATOM     13  C   UNL     1       8.654  47.357  54.254  1.00  0.00     0.005 A 
ATOM     14  C   UNL     1       9.292  46.806  51.596  1.00  0.00     0.000 A 
ATOM     15  C   UNL     1       9.954  46.984  53.910  1.00  0.00     0.000 A 
ATOM     16  C   UNL     1      10.273  46.710  52.581  1.00  0.00     0.000 A 
ENDBRANCH  10  11
ENDBRANCH   9  10
BRANCH   9  17
ATOM     17  C   UNL     1       4.342  46.590  52.641  1.00  0.00     0.195 C 
BRANCH  17  18
ATOM     18  C   UNL     1       4.481  45.217  51.996  1.00  0.00     0.129 C 
ATOM     19  N   UNL     1       5.447  44.963  51.171  1.00  0.00    -0.233 NA
ATOM     20  N   UNL     1       3.514  44.303  52.329  1.00  0.00    -0.308 N 
ATOM     21  C   UNL     1       5.498  43.679  50.601  1.00  0.00     0.078 A 
ATOM     22  C   UNL     1       3.445  43.046  51.789  1.00  0.00     0.258 C 
ATOM     23  C   UNL     1       6.543  43.371  49.728  1.00  0.00     0.029 A 
ATOM     24  C   UNL     1       4.538  42.698  50.865  1.00  0.00     0.065 A 
ATOM     25  C   UNL     1       6.625  42.109  49.132  1.00  0.00     0.002 A 
ATOM     26  C   UNL     1       4.608  41.433  50.273  1.00  0.00     0.016 A 
ATOM     27  C   UNL     1       5.657  41.141  49.404  1.00  0.00     0.001 A 
ATOM     28  H   UNL     1       2.744  44.586  52.932  1.00  0.00     0.171 HD
ATOM     29  O   UNL     1       2.538  42.264  52.042  1.00  0.00    -0.269 OA
ENDBRANCH  17  18
ENDBRANCH   9  17
ENDBRANCH   2   9
TORSDOF 9
ENDMDL
