MODEL 1
REMARK VINA RESULT:    -8.545      0.000      0.000
REMARK INTER + INTRA:         -11.270
REMARK INTER:                 -11.043
REMARK INTRA:                  -0.228
REMARK UNBOUND:                -0.228
REMARK SMILES CC1(C)CCCN(c2ccnc(N3CC(S(=O)(=O)Nc4ccccc4)C3)n2)C1
REMARK SMILES IDX 13 1 14 2 15 3 26 4 12 5 8 6 9 7 27 8 10 9 11 10 7 11 2 12
REMARK SMILES IDX 4 13 28 14 5 15 6 16 1 17 3 18 16 19 17 20 18 21 19 22 20 24
REMARK SMILES IDX 21 25 25 26 22 27 24 28 23 29
REMARK H PARENT 19 23
ROOT
ATOM      1  N   UNL     1       4.522  45.636  54.606  1.00  0.00    -0.338 N 
ATOM      2  C   UNL     1       4.911  46.874  53.995  1.00  0.00     0.143 C 
ATOM      3  C   UNL     1       6.345  46.482  54.360  1.00  0.00     0.168 C 
ATOM      4  C   UNL     1       5.810  45.048  54.385  1.00  0.00     0.143 C 
ENDROOT
BRANCH   1   5
ATOM      5  C   UNL     1       3.303  44.986  54.380  1.00  0.00     0.227 A 
ATOM      6  C   UNL     1       1.101  44.634  55.008  1.00  0.00     0.134 A 
ATOM      7  C   UNL     1       0.939  43.759  53.952  1.00  0.00     0.067 A 
ATOM      8  N   UNL     1       2.278  45.253  55.208  1.00  0.00    -0.196 NA
ATOM      9  C   UNL     1       2.031  43.547  53.149  1.00  0.00     0.119 A 
ATOM     10  N   UNL     1       3.218  44.138  53.343  1.00  0.00    -0.221 NA
BRANCH   6  11
ATOM     11  N   UNL     1       0.014  44.902  55.867  1.00  0.00    -0.356 N 
ATOM     12  C   UNL     1      -2.432  44.815  56.240  1.00  0.00    -0.018 C 
ATOM     13  C   UNL     1      -2.088  45.564  57.554  1.00  0.00     0.010 C 
ATOM     14  C   UNL     1      -1.290  44.938  55.194  1.00  0.00     0.124 C 
ATOM     15  C   UNL     1      -1.024  46.630  57.327  1.00  0.00     0.022 C 
ATOM     16  C   UNL     1       0.274  46.002  56.812  1.00  0.00     0.118 C 
ATOM     17  C   UNL     1      -2.693  43.332  56.564  1.00  0.00     0.013 C 
ATOM     18  C   UNL     1      -3.716  45.407  55.627  1.00  0.00     0.013 C 
ENDBRANCH   6  11
ENDBRANCH   1   5
BRANCH   3  19
ATOM     19  S   UNL     1       7.547  46.826  53.110  1.00  0.00     0.239 S 
ATOM     20  O   UNL     1       8.551  45.779  53.110  1.00  0.00    -0.206 OA
ATOM     21  O   UNL     1       7.985  48.205  53.196  1.00  0.00    -0.206 OA
BRANCH  19  22
ATOM     22  N   UNL     1       6.753  46.733  51.595  1.00  0.00    -0.283 N 
ATOM     23  H   UNL     1       7.067  47.538  51.047  1.00  0.00     0.180 HD
BRANCH  22  24
ATOM     24  C   UNL     1       6.895  45.499  50.888  1.00  0.00     0.048 A 
ATOM     25  C   UNL     1       5.892  44.532  50.924  1.00  0.00     0.027 A 
ATOM     26  C   UNL     1       8.039  45.298  50.116  1.00  0.00     0.027 A 
ATOM     27  C   UNL     1       6.040  43.354  50.189  1.00  0.00     0.002 A 
ATOM     28  C   UNL     1       8.186  44.119  49.385  1.00  0.00     0.002 A 
ATOM     29  C   UNL     1       7.186  43.149  49.421  1.00  0.00     0.000 A 
ENDBRANCH  22  24
ENDBRANCH  19  22
ENDBRANCH   3  19
TORSDOF 5
ENDMDL
MODEL 2
REMARK VINA RESULT:    -8.532      1.755      3.175
REMARK INTER + INTRA:         -11.254
REMARK INTER:                 -10.824
REMARK INTRA:                  -0.430
REMARK UNBOUND:                -0.228
REMARK SMILES CC1(C)CCCN(c2ccnc(N3CC(S(=O)(=O)Nc4ccccc4)C3)n2)C1
REMARK SMILES IDX 13 1 14 2 15 3 26 4 12 5 8 6 9 7 27 8 10 9 11 10 7 11 2 12
REMARK SMILES IDX 4 13 28 14 5 15 6 16 1 17 3 18 16 19 17 20 18 21 19 22 20 24
REMARK SMILES IDX 21 25 25 26 22 27 24 28 23 29
REMARK H PARENT 19 23
ROOT
ATOM      1  N   UNL     1       4.390  46.208  55.186  1.00  0.00    -0.338 N 
ATOM      2  C   UNL     1       4.849  47.390  54.516  1.00  0.00     0.143 C 
ATOM      3  C   UNL     1       6.246  46.770  54.602  1.00  0.00     0.168 C 
ATOM      4  C   UNL     1       5.506  45.436  54.725  1.00  0.00     0.143 C 
ENDROOT
BRANCH   1   5
ATOM      5  C   UNL     1       3.064  45.761  55.194  1.00  0.00     0.227 A 
ATOM      6  C   UNL     1       1.254  44.912  54.023  1.00  0.00     0.134 A 
ATOM      7  C   UNL     1       0.516  44.876  55.189  1.00  0.00     0.067 A 
ATOM      8  N   UNL     1       2.528  45.341  54.034  1.00  0.00    -0.196 NA
ATOM      9  C   UNL     1       1.137  45.314  56.331  1.00  0.00     0.119 A 
ATOM     10  N   UNL     1       2.399  45.765  56.359  1.00  0.00    -0.221 NA
BRANCH   6  11
ATOM     11  N   UNL     1       0.677  44.467  52.815  1.00  0.00    -0.356 N 
ATOM     12  C   UNL     1      -1.277  43.461  51.672  1.00  0.00    -0.018 C 
ATOM     13  C   UNL     1      -0.356  43.502  50.425  1.00  0.00     0.010 C 
ATOM     14  C   UNL     1      -0.461  43.556  52.992  1.00  0.00     0.124 C 
ATOM     15  C   UNL     1       1.072  43.100  50.773  1.00  0.00     0.022 C 
ATOM     16  C   UNL     1       1.670  44.057  51.808  1.00  0.00     0.118 C 
ATOM     17  C   UNL     1      -2.282  44.626  51.589  1.00  0.00     0.013 C 
ATOM     18  C   UNL     1      -2.071  42.141  51.687  1.00  0.00     0.013 C 
ENDBRANCH   6  11
ENDBRANCH   1   5
BRANCH   3  19
ATOM     19  S   UNL     1       7.232  46.964  53.148  1.00  0.00     0.239 S 
ATOM     20  O   UNL     1       8.251  45.933  53.119  1.00  0.00    -0.206 OA
ATOM     21  O   UNL     1       7.641  48.347  52.996  1.00  0.00    -0.206 OA
BRANCH  19  22
ATOM     22  N   UNL     1       6.218  46.678  51.798  1.00  0.00    -0.283 N 
ATOM     23  H   UNL     1       6.277  47.509  51.202  1.00  0.00     0.180 HD
BRANCH  22  24
ATOM     24  C   UNL     1       6.460  45.468  51.077  1.00  0.00     0.048 A 
ATOM     25  C   UNL     1       5.580  44.391  51.166  1.00  0.00     0.027 A 
ATOM     26  C   UNL     1       7.573  45.400  50.239  1.00  0.00     0.027 A 
ATOM     27  C   UNL     1       5.820  43.237  50.419  1.00  0.00     0.002 A 
ATOM     28  C   UNL     1       7.812  44.245  49.494  1.00  0.00     0.002 A 
ATOM     29  C   UNL     1       6.935  43.165  49.584  1.00  0.00     0.000 A 
ENDBRANCH  22  24
ENDBRANCH  19  22
ENDBRANCH   3  19
TORSDOF 5
ENDMDL
MODEL 3
REMARK VINA RESULT:    -8.494      1.778      2.308
REMARK INTER + INTRA:         -11.204
REMARK INTER:                 -10.910
REMARK INTRA:                  -0.295
REMARK UNBOUND:                -0.228
REMARK SMILES CC1(C)CCCN(c2ccnc(N3CC(S(=O)(=O)Nc4ccccc4)C3)n2)C1
REMARK SMILES IDX 13 1 14 2 15 3 26 4 12 5 8 6 9 7 27 8 10 9 11 10 7 11 2 12
REMARK SMILES IDX 4 13 28 14 5 15 6 16 1 17 3 18 16 19 17 20 18 21 19 22 20 24
REMARK SMILES IDX 21 25 25 26 22 27 24 28 23 29
REMARK H PARENT 19 23
ROOT
ATOM      1  N   UNL     1       3.676  44.355  53.346  1.00  0.00    -0.338 N 
ATOM      2  C   UNL     1       4.324  44.923  54.491  1.00  0.00     0.143 C 
ATOM      3  C   UNL     1       5.331  45.511  53.500  1.00  0.00     0.168 C 
ATOM      4  C   UNL     1       4.212  45.352  52.468  1.00  0.00     0.143 C 
ENDROOT
BRANCH   1   5
ATOM      5  C   UNL     1       2.350  43.906  53.322  1.00  0.00     0.227 A 
ATOM      6  C   UNL     1       0.234  43.933  54.264  1.00  0.00     0.134 A 
ATOM      7  C   UNL     1      -0.214  43.070  53.283  1.00  0.00     0.067 A 
ATOM      8  N   UNL     1       1.510  44.356  54.270  1.00  0.00    -0.196 NA
ATOM      9  C   UNL     1       0.704  42.663  52.348  1.00  0.00     0.119 A 
ATOM     10  N   UNL     1       1.984  43.058  52.348  1.00  0.00    -0.221 NA
BRANCH   6  11
ATOM     11  N   UNL     1      -0.662  44.395  55.251  1.00  0.00    -0.356 N 
ATOM     12  C   UNL     1      -2.969  45.084  55.829  1.00  0.00    -0.018 C 
ATOM     13  C   UNL     1      -2.344  45.418  57.209  1.00  0.00     0.010 C 
ATOM     14  C   UNL     1      -1.889  44.997  54.715  1.00  0.00     0.124 C 
ATOM     15  C   UNL     1      -0.979  46.078  57.058  1.00  0.00     0.022 C 
ATOM     16  C   UNL     1      -0.003  45.148  56.331  1.00  0.00     0.118 C 
ATOM     17  C   UNL     1      -3.726  43.747  55.934  1.00  0.00     0.013 C 
ATOM     18  C   UNL     1      -3.980  46.180  55.439  1.00  0.00     0.013 C 
ENDBRANCH   6  11
ENDBRANCH   1   5
BRANCH   3  19
ATOM     19  S   UNL     1       5.822  47.174  53.842  1.00  0.00     0.239 S 
ATOM     20  O   UNL     1       6.744  47.181  54.962  1.00  0.00    -0.206 OA
ATOM     21  O   UNL     1       4.663  48.043  53.895  1.00  0.00    -0.206 OA
BRANCH  19  22
ATOM     22  N   UNL     1       6.706  47.738  52.487  1.00  0.00    -0.283 N 
ATOM     23  H   UNL     1       6.850  48.742  52.625  1.00  0.00     0.180 HD
BRANCH  22  24
ATOM     24  C   UNL     1       7.922  47.044  52.199  1.00  0.00     0.048 A 
ATOM     25  C   UNL     1       7.980  46.089  51.186  1.00  0.00     0.027 A 
ATOM     26  C   UNL     1       9.068  47.376  52.920  1.00  0.00     0.027 A 
ATOM     27  C   UNL     1       9.191  45.457  50.898  1.00  0.00     0.002 A 
ATOM     28  C   UNL     1      10.277  46.742  52.632  1.00  0.00     0.002 A 
ATOM     29  C   UNL     1      10.338  45.784  51.621  1.00  0.00     0.000 A 
ENDBRANCH  22  24
ENDBRANCH  19  22
ENDBRANCH   3  19
TORSDOF 5
ENDMDL
MODEL 4
REMARK VINA RESULT:    -8.460      2.136      3.236
REMARK INTER + INTRA:         -11.160
REMARK INTER:                 -11.143
REMARK INTRA:                  -0.017
REMARK UNBOUND:                -0.228
REMARK SMILES CC1(C)CCCN(c2ccnc(N3CC(S(=O)(=O)Nc4ccccc4)C3)n2)C1
REMARK SMILES IDX 13 1 14 2 15 3 26 4 12 5 8 6 9 7 27 8 10 9 11 10 7 11 2 12
REMARK SMILES IDX 4 13 28 14 5 15 6 16 1 17 3 18 16 19 17 20 18 21 19 22 20 24
REMARK SMILES IDX 21 25 25 26 22 27 24 28 23 29
REMARK H PARENT 19 23
ROOT
ATOM      1  N   UNL     1       2.495  44.981  54.302  1.00  0.00    -0.338 N 
ATOM      2  C   UNL     1       3.655  45.058  55.142  1.00  0.00     0.143 C 
ATOM      3  C   UNL     1       4.398  45.541  53.895  1.00  0.00     0.168 C 
ATOM      4  C   UNL     1       3.015  45.955  53.388  1.00  0.00     0.143 C 
ENDROOT
BRANCH   1   5
ATOM      5  C   UNL     1       1.175  44.953  54.767  1.00  0.00     0.227 A 
ATOM      6  C   UNL     1      -0.385  45.634  56.338  1.00  0.00     0.134 A 
ATOM      7  C   UNL     1      -1.367  44.929  55.669  1.00  0.00     0.067 A 
ATOM      8  N   UNL     1       0.877  45.653  55.875  1.00  0.00    -0.196 NA
ATOM      9  C   UNL     1      -0.982  44.248  54.542  1.00  0.00     0.119 A 
ATOM     10  N   UNL     1       0.274  44.238  54.076  1.00  0.00    -0.221 NA
BRANCH   6  11
ATOM     11  N   UNL     1      -0.716  46.364  57.499  1.00  0.00    -0.356 N 
ATOM     12  C   UNL     1      -2.292  47.906  58.627  1.00  0.00    -0.018 C 
ATOM     13  C   UNL     1      -1.247  47.866  59.772  1.00  0.00     0.010 C 
ATOM     14  C   UNL     1      -1.678  47.450  57.274  1.00  0.00     0.124 C 
ATOM     15  C   UNL     1       0.177  47.912  59.231  1.00  0.00     0.022 C 
ATOM     16  C   UNL     1       0.453  46.709  58.325  1.00  0.00     0.118 C 
ATOM     17  C   UNL     1      -3.477  46.997  59.000  1.00  0.00     0.013 C 
ATOM     18  C   UNL     1      -2.822  49.343  58.458  1.00  0.00     0.013 C 
ENDBRANCH   6  11
ENDBRANCH   1   5
BRANCH   3  19
ATOM     19  S   UNL     1       5.534  46.865  54.177  1.00  0.00     0.239 S 
ATOM     20  O   UNL     1       6.649  46.381  54.968  1.00  0.00    -0.206 OA
ATOM     21  O   UNL     1       4.829  48.050  54.627  1.00  0.00    -0.206 OA
BRANCH  19  22
ATOM     22  N   UNL     1       6.183  47.319  52.657  1.00  0.00    -0.283 N 
ATOM     23  H   UNL     1       5.965  48.311  52.527  1.00  0.00     0.180 HD
BRANCH  22  24
ATOM     24  C   UNL     1       7.568  47.030  52.456  1.00  0.00     0.048 A 
ATOM     25  C   UNL     1       8.547  47.621  53.252  1.00  0.00     0.027 A 
ATOM     26  C   UNL     1       7.923  46.103  51.476  1.00  0.00     0.027 A 
ATOM     27  C   UNL     1       9.889  47.289  53.061  1.00  0.00     0.002 A 
ATOM     28  C   UNL     1       9.265  45.773  51.285  1.00  0.00     0.002 A 
ATOM     29  C   UNL     1      10.247  46.366  52.078  1.00  0.00     0.000 A 
ENDBRANCH  22  24
ENDBRANCH  19  22
ENDBRANCH   3  19
TORSDOF 5
ENDMDL
MODEL 5
REMARK VINA RESULT:    -8.396      3.911      9.329
REMARK INTER + INTRA:         -11.077
REMARK INTER:                 -10.968
REMARK INTRA:                  -0.110
REMARK UNBOUND:                -0.228
REMARK SMILES CC1(C)CCCN(c2ccnc(N3CC(S(=O)(=O)Nc4ccccc4)C3)n2)C1
REMARK SMILES IDX 13 1 14 2 15 3 26 4 12 5 8 6 9 7 27 8 10 9 11 10 7 11 2 12
REMARK SMILES IDX 4 13 28 14 5 15 6 16 1 17 3 18 16 19 17 20 18 21 19 22 20 24
REMARK SMILES IDX 21 25 25 26 22 27 24 28 23 29
REMARK H PARENT 19 23
ROOT
ATOM      1  N   UNL     1       2.383  44.822  54.530  1.00  0.00    -0.338 N 
ATOM      2  C   UNL     1       1.122  44.152  54.399  1.00  0.00     0.143 C 
ATOM      3  C   UNL     1       0.884  44.535  55.861  1.00  0.00     0.168 C 
ATOM      4  C   UNL     1       1.907  45.644  55.603  1.00  0.00     0.143 C 
ENDROOT
BRANCH   1   5
ATOM      5  C   UNL     1       3.155  45.285  53.458  1.00  0.00     0.227 A 
ATOM      6  C   UNL     1       5.116  46.265  52.709  1.00  0.00     0.134 A 
ATOM      7  C   UNL     1       4.669  46.164  51.406  1.00  0.00     0.067 A 
ATOM      8  N   UNL     1       4.363  45.812  53.726  1.00  0.00    -0.196 NA
ATOM      9  C   UNL     1       3.429  45.608  51.217  1.00  0.00     0.119 A 
ATOM     10  N   UNL     1       2.655  45.169  52.219  1.00  0.00    -0.221 NA
BRANCH   6  11
ATOM     11  N   UNL     1       6.386  46.821  52.971  1.00  0.00    -0.356 N 
ATOM     12  C   UNL     1       8.687  47.260  52.169  1.00  0.00    -0.018 C 
ATOM     13  C   UNL     1       8.896  47.829  53.597  1.00  0.00     0.010 C 
ATOM     14  C   UNL     1       7.456  46.315  52.102  1.00  0.00     0.124 C 
ATOM     15  C   UNL     1       8.220  46.958  54.649  1.00  0.00     0.022 C 
ATOM     16  C   UNL     1       6.710  46.886  54.407  1.00  0.00     0.118 C 
ATOM     17  C   UNL     1       8.507  48.431  51.186  1.00  0.00     0.013 C 
ATOM     18  C   UNL     1       9.934  46.461  51.742  1.00  0.00     0.013 C 
ENDBRANCH   6  11
ENDBRANCH   1   5
BRANCH   3  19
ATOM     19  S   UNL     1      -0.757  45.080  56.226  1.00  0.00     0.239 S 
ATOM     20  O   UNL     1      -1.173  44.529  57.502  1.00  0.00    -0.206 OA
ATOM     21  O   UNL     1      -1.620  44.889  55.076  1.00  0.00    -0.206 OA
BRANCH  19  22
ATOM     22  N   UNL     1      -0.701  46.780  56.429  1.00  0.00    -0.283 N 
ATOM     23  H   UNL     1      -1.469  47.169  55.875  1.00  0.00     0.180 HD
BRANCH  22  24
ATOM     24  C   UNL     1      -0.705  47.250  57.779  1.00  0.00     0.048 A 
ATOM     25  C   UNL     1       0.451  47.205  58.557  1.00  0.00     0.027 A 
ATOM     26  C   UNL     1      -1.878  47.802  58.292  1.00  0.00     0.027 A 
ATOM     27  C   UNL     1       0.428  47.710  59.859  1.00  0.00     0.002 A 
ATOM     28  C   UNL     1      -1.899  48.304  59.593  1.00  0.00     0.002 A 
ATOM     29  C   UNL     1      -0.745  48.258  60.375  1.00  0.00     0.000 A 
ENDBRANCH  22  24
ENDBRANCH  19  22
ENDBRANCH   3  19
TORSDOF 5
ENDMDL
MODEL 6
REMARK VINA RESULT:    -8.346      1.948      2.842
REMARK INTER + INTRA:         -11.014
REMARK INTER:                 -10.820
REMARK INTRA:                  -0.194
REMARK UNBOUND:                -0.228
REMARK SMILES CC1(C)CCCN(c2ccnc(N3CC(S(=O)(=O)Nc4ccccc4)C3)n2)C1
REMARK SMILES IDX 13 1 14 2 15 3 26 4 12 5 8 6 9 7 27 8 10 9 11 10 7 11 2 12
REMARK SMILES IDX 4 13 28 14 5 15 6 16 1 17 3 18 16 19 17 20 18 21 19 22 20 24
REMARK SMILES IDX 21 25 25 26 22 27 24 28 23 29
REMARK H PARENT 19 23
ROOT
ATOM      1  N   UNL     1       3.746  44.327  53.134  1.00  0.00    -0.338 N 
ATOM      2  C   UNL     1       4.100  44.982  54.359  1.00  0.00     0.143 C 
ATOM      3  C   UNL     1       5.367  45.434  53.630  1.00  0.00     0.168 C 
ATOM      4  C   UNL     1       4.556  45.213  52.352  1.00  0.00     0.143 C 
ENDROOT
BRANCH   1   5
ATOM      5  C   UNL     1       2.450  43.924  52.791  1.00  0.00     0.227 A 
ATOM      6  C   UNL     1       0.171  44.039  53.190  1.00  0.00     0.134 A 
ATOM      7  C   UNL     1      -0.058  43.178  52.135  1.00  0.00     0.067 A 
ATOM      8  N   UNL     1       1.422  44.418  53.504  1.00  0.00    -0.196 NA
ATOM      9  C   UNL     1       1.044  42.724  51.455  1.00  0.00     0.119 A 
ATOM     10  N   UNL     1       2.300  43.074  51.764  1.00  0.00    -0.221 NA
BRANCH   6  11
ATOM     11  N   UNL     1      -0.920  44.549  53.927  1.00  0.00    -0.356 N 
ATOM     12  C   UNL     1      -2.028  44.798  56.127  1.00  0.00    -0.018 C 
ATOM     13  C   UNL     1      -3.149  45.476  55.296  1.00  0.00     0.010 C 
ATOM     14  C   UNL     1      -1.108  43.916  55.238  1.00  0.00     0.124 C 
ATOM     15  C   UNL     1      -3.401  44.734  53.989  1.00  0.00     0.022 C 
ATOM     16  C   UNL     1      -2.140  44.720  53.120  1.00  0.00     0.118 C 
ATOM     17  C   UNL     1      -1.196  45.890  56.826  1.00  0.00     0.013 C 
ATOM     18  C   UNL     1      -2.656  43.903  57.212  1.00  0.00     0.013 C 
ENDBRANCH   6  11
ENDBRANCH   1   5
BRANCH   3  19
ATOM     19  S   UNL     1       5.849  47.104  53.949  1.00  0.00     0.239 S 
ATOM     20  O   UNL     1       6.802  47.128  55.042  1.00  0.00    -0.206 OA
ATOM     21  O   UNL     1       4.681  47.960  54.030  1.00  0.00    -0.206 OA
BRANCH  19  22
ATOM     22  N   UNL     1       6.687  47.670  52.566  1.00  0.00    -0.283 N 
ATOM     23  H   UNL     1       6.786  48.684  52.675  1.00  0.00     0.180 HD
BRANCH  22  24
ATOM     24  C   UNL     1       7.930  47.026  52.280  1.00  0.00     0.048 A 
ATOM     25  C   UNL     1       8.038  46.105  51.239  1.00  0.00     0.027 A 
ATOM     26  C   UNL     1       9.052  47.372  53.032  1.00  0.00     0.027 A 
ATOM     27  C   UNL     1       9.275  45.522  50.955  1.00  0.00     0.002 A 
ATOM     28  C   UNL     1      10.287  46.788  52.748  1.00  0.00     0.002 A 
ATOM     29  C   UNL     1      10.397  45.864  51.709  1.00  0.00     0.000 A 
ENDBRANCH  22  24
ENDBRANCH  19  22
ENDBRANCH   3  19
TORSDOF 5
ENDMDL
MODEL 7
REMARK VINA RESULT:    -8.273      1.196      1.871
REMARK INTER + INTRA:         -10.919
REMARK INTER:                 -10.796
REMARK INTRA:                  -0.123
REMARK UNBOUND:                -0.228
REMARK SMILES CC1(C)CCCN(c2ccnc(N3CC(S(=O)(=O)Nc4ccccc4)C3)n2)C1
REMARK SMILES IDX 13 1 14 2 15 3 26 4 12 5 8 6 9 7 27 8 10 9 11 10 7 11 2 12
REMARK SMILES IDX 4 13 28 14 5 15 6 16 1 17 3 18 16 19 17 20 18 21 19 22 20 24
REMARK SMILES IDX 21 25 25 26 22 27 24 28 23 29
REMARK H PARENT 19 23
ROOT
ATOM      1  N   UNL     1       2.964  45.852  54.530  1.00  0.00    -0.338 N 
ATOM      2  C   UNL     1       3.419  46.756  53.514  1.00  0.00     0.143 C 
ATOM      3  C   UNL     1       4.770  46.719  54.232  1.00  0.00     0.168 C 
ATOM      4  C   UNL     1       4.291  45.377  54.791  1.00  0.00     0.143 C 
ENDROOT
BRANCH   1   5
ATOM      5  C   UNL     1       1.835  45.033  54.421  1.00  0.00     0.227 A 
ATOM      6  C   UNL     1      -0.334  44.552  55.079  1.00  0.00     0.134 A 
ATOM      7  C   UNL     1      -0.360  43.479  54.210  1.00  0.00     0.067 A 
ATOM      8  N   UNL     1       0.758  45.331  55.169  1.00  0.00    -0.196 NA
ATOM      9  C   UNL     1       0.776  43.246  53.477  1.00  0.00     0.119 A 
ATOM     10  N   UNL     1       1.881  43.999  53.567  1.00  0.00    -0.221 NA
BRANCH   6  11
ATOM     11  N   UNL     1      -1.472  44.851  55.857  1.00  0.00    -0.356 N 
ATOM     12  C   UNL     1      -2.657  46.480  57.298  1.00  0.00    -0.018 C 
ATOM     13  C   UNL     1      -3.683  45.329  57.466  1.00  0.00     0.010 C 
ATOM     14  C   UNL     1      -1.279  45.953  56.807  1.00  0.00     0.124 C 
ATOM     15  C   UNL     1      -2.990  43.982  57.627  1.00  0.00     0.022 C 
ATOM     16  C   UNL     1      -2.142  43.655  56.395  1.00  0.00     0.118 C 
ATOM     17  C   UNL     1      -3.216  47.505  56.295  1.00  0.00     0.013 C 
ATOM     18  C   UNL     1      -2.450  47.191  58.649  1.00  0.00     0.013 C 
ENDBRANCH   6  11
ENDBRANCH   1   5
BRANCH   3  19
ATOM     19  S   UNL     1       6.174  46.642  53.162  1.00  0.00     0.239 S 
ATOM     20  O   UNL     1       6.978  45.485  53.507  1.00  0.00    -0.206 OA
ATOM     21  O   UNL     1       6.823  47.937  53.085  1.00  0.00    -0.206 OA
BRANCH  19  22
ATOM     22  N   UNL     1       5.595  46.370  51.572  1.00  0.00    -0.283 N 
ATOM     23  H   UNL     1       5.721  47.246  51.058  1.00  0.00     0.180 HD
BRANCH  22  24
ATOM     24  C   UNL     1       6.151  45.246  50.887  1.00  0.00     0.048 A 
ATOM     25  C   UNL     1       5.443  44.050  50.777  1.00  0.00     0.027 A 
ATOM     26  C   UNL     1       7.400  45.382  50.283  1.00  0.00     0.027 A 
ATOM     27  C   UNL     1       5.993  42.983  50.066  1.00  0.00     0.002 A 
ATOM     28  C   UNL     1       7.949  44.313  49.574  1.00  0.00     0.002 A 
ATOM     29  C   UNL     1       7.244  43.114  49.465  1.00  0.00     0.000 A 
ENDBRANCH  22  24
ENDBRANCH  19  22
ENDBRANCH   3  19
TORSDOF 5
ENDMDL
MODEL 8
REMARK VINA RESULT:    -8.209      2.638      3.827
REMARK INTER + INTRA:         -10.836
REMARK INTER:                 -10.616
REMARK INTRA:                  -0.220
REMARK UNBOUND:                -0.228
REMARK SMILES CC1(C)CCCN(c2ccnc(N3CC(S(=O)(=O)Nc4ccccc4)C3)n2)C1
REMARK SMILES IDX 13 1 14 2 15 3 26 4 12 5 8 6 9 7 27 8 10 9 11 10 7 11 2 12
REMARK SMILES IDX 4 13 28 14 5 15 6 16 1 17 3 18 16 19 17 20 18 21 19 22 20 24
REMARK SMILES IDX 21 25 25 26 22 27 24 28 23 29
REMARK H PARENT 19 23
ROOT
ATOM      1  N   UNL     1       3.869  44.932  54.120  1.00  0.00    -0.338 N 
ATOM      2  C   UNL     1       4.600  46.032  53.563  1.00  0.00     0.143 C 
ATOM      3  C   UNL     1       5.437  44.975  52.839  1.00  0.00     0.168 C 
ATOM      4  C   UNL     1       4.221  44.065  53.035  1.00  0.00     0.143 C 
ENDROOT
BRANCH   1   5
ATOM      5  C   UNL     1       2.588  45.027  54.677  1.00  0.00     0.227 A 
ATOM      6  C   UNL     1       0.306  44.688  54.462  1.00  0.00     0.134 A 
ATOM      7  C   UNL     1       0.113  45.181  55.738  1.00  0.00     0.067 A 
ATOM      8  N   UNL     1       1.544  44.601  53.944  1.00  0.00    -0.196 NA
ATOM      9  C   UNL     1       1.231  45.587  56.422  1.00  0.00     0.119 A 
ATOM     10  N   UNL     1       2.470  45.527  55.916  1.00  0.00    -0.221 NA
BRANCH   6  11
ATOM     11  N   UNL     1      -0.801  44.246  53.708  1.00  0.00    -0.356 N 
ATOM     12  C   UNL     1      -1.955  44.188  51.518  1.00  0.00    -0.018 C 
ATOM     13  C   UNL     1      -3.062  43.444  52.310  1.00  0.00     0.010 C 
ATOM     14  C   UNL     1      -1.014  44.989  52.460  1.00  0.00     0.124 C 
ATOM     15  C   UNL     1      -3.283  44.071  53.681  1.00  0.00     0.022 C 
ATOM     16  C   UNL     1      -2.005  44.009  54.522  1.00  0.00     0.118 C 
ATOM     17  C   UNL     1      -1.142  43.159  50.711  1.00  0.00     0.013 C 
ATOM     18  C   UNL     1      -2.602  45.174  50.526  1.00  0.00     0.013 C 
ENDBRANCH   6  11
ENDBRANCH   1   5
BRANCH   3  19
ATOM     19  S   UNL     1       5.834  45.366  51.162  1.00  0.00     0.239 S 
ATOM     20  O   UNL     1       4.614  45.664  50.437  1.00  0.00    -0.206 OA
ATOM     21  O   UNL     1       6.742  44.377  50.614  1.00  0.00    -0.206 OA
BRANCH  19  22
ATOM     22  N   UNL     1       6.752  46.813  51.176  1.00  0.00    -0.283 N 
ATOM     23  H   UNL     1       6.109  47.568  51.432  1.00  0.00     0.180 HD
BRANCH  22  24
ATOM     24  C   UNL     1       7.930  46.800  51.985  1.00  0.00     0.048 A 
ATOM     25  C   UNL     1       9.081  46.135  51.564  1.00  0.00     0.027 A 
ATOM     26  C   UNL     1       7.926  47.508  53.186  1.00  0.00     0.027 A 
ATOM     27  C   UNL     1      10.231  46.174  52.355  1.00  0.00     0.002 A 
ATOM     28  C   UNL     1       9.076  47.544  53.975  1.00  0.00     0.002 A 
ATOM     29  C   UNL     1      10.227  46.877  53.559  1.00  0.00     0.000 A 
ENDBRANCH  22  24
ENDBRANCH  19  22
ENDBRANCH   3  19
TORSDOF 5
ENDMDL
MODEL 9
REMARK VINA RESULT:    -8.129      3.778      9.091
REMARK INTER + INTRA:         -10.733
REMARK INTER:                 -10.452
REMARK INTRA:                  -0.280
REMARK UNBOUND:                -0.228
REMARK SMILES CC1(C)CCCN(c2ccnc(N3CC(S(=O)(=O)Nc4ccccc4)C3)n2)C1
REMARK SMILES IDX 13 1 14 2 15 3 26 4 12 5 8 6 9 7 27 8 10 9 11 10 7 11 2 12
REMARK SMILES IDX 4 13 28 14 5 15 6 16 1 17 3 18 16 19 17 20 18 21 19 22 20 24
REMARK SMILES IDX 21 25 25 26 22 27 24 28 23 29
REMARK H PARENT 19 23
ROOT
ATOM      1  N   UNL     1       1.826  44.398  53.101  1.00  0.00    -0.338 N 
ATOM      2  C   UNL     1       0.678  45.222  52.859  1.00  0.00     0.143 C 
ATOM      3  C   UNL     1      -0.103  43.912  52.722  1.00  0.00     0.168 C 
ATOM      4  C   UNL     1       1.023  43.303  53.560  1.00  0.00     0.143 C 
ENDROOT
BRANCH   1   5
ATOM      5  C   UNL     1       3.003  44.834  53.720  1.00  0.00     0.227 A 
ATOM      6  C   UNL     1       5.232  45.439  53.532  1.00  0.00     0.134 A 
ATOM      7  C   UNL     1       5.277  45.694  54.889  1.00  0.00     0.067 A 
ATOM      8  N   UNL     1       4.091  45.024  52.953  1.00  0.00    -0.196 NA
ATOM      9  C   UNL     1       4.122  45.483  55.599  1.00  0.00     0.119 A 
ATOM     10  N   UNL     1       2.982  45.050  55.044  1.00  0.00    -0.221 NA
BRANCH   6  11
ATOM     11  N   UNL     1       6.383  45.644  52.743  1.00  0.00    -0.356 N 
ATOM     12  C   UNL     1       8.271  47.127  52.138  1.00  0.00    -0.018 C 
ATOM     13  C   UNL     1       8.569  46.035  51.077  1.00  0.00     0.010 C 
ATOM     14  C   UNL     1       6.806  47.047  52.649  1.00  0.00     0.124 C 
ATOM     15  C   UNL     1       7.289  45.524  50.428  1.00  0.00     0.022 C 
ATOM     16  C   UNL     1       6.361  44.898  51.473  1.00  0.00     0.118 C 
ATOM     17  C   UNL     1       9.250  46.960  53.315  1.00  0.00     0.013 C 
ATOM     18  C   UNL     1       8.494  48.522  51.522  1.00  0.00     0.013 C 
ENDBRANCH   6  11
ENDBRANCH   1   5
BRANCH   3  19
ATOM     19  S   UNL     1      -1.699  43.920  53.481  1.00  0.00     0.239 S 
ATOM     20  O   UNL     1      -2.488  42.825  52.949  1.00  0.00    -0.206 OA
ATOM     21  O   UNL     1      -2.264  45.255  53.457  1.00  0.00    -0.206 OA
BRANCH  19  22
ATOM     22  N   UNL     1      -1.478  43.590  55.147  1.00  0.00    -0.283 N 
ATOM     23  H   UNL     1      -0.591  43.085  55.233  1.00  0.00     0.180 HD
BRANCH  22  24
ATOM     24  C   UNL     1      -1.556  44.715  56.025  1.00  0.00     0.048 A 
ATOM     25  C   UNL     1      -2.771  45.106  56.583  1.00  0.00     0.027 A 
ATOM     26  C   UNL     1      -0.380  45.390  56.354  1.00  0.00     0.027 A 
ATOM     27  C   UNL     1      -2.811  46.184  57.470  1.00  0.00     0.002 A 
ATOM     28  C   UNL     1      -0.423  46.467  57.239  1.00  0.00     0.002 A 
ATOM     29  C   UNL     1      -1.638  46.863  57.797  1.00  0.00     0.000 A 
ENDBRANCH  22  24
ENDBRANCH  19  22
ENDBRANCH   3  19
TORSDOF 5
ENDMDL
MODEL 10
REMARK VINA RESULT:    -8.081      2.020      2.990
REMARK INTER + INTRA:         -10.671
REMARK INTER:                 -10.561
REMARK INTRA:                  -0.110
REMARK UNBOUND:                -0.228
REMARK SMILES CC1(C)CCCN(c2ccnc(N3CC(S(=O)(=O)Nc4ccccc4)C3)n2)C1
REMARK SMILES IDX 13 1 14 2 15 3 26 4 12 5 8 6 9 7 27 8 10 9 11 10 7 11 2 12
REMARK SMILES IDX 4 13 28 14 5 15 6 16 1 17 3 18 16 19 17 20 18 21 19 22 20 24
REMARK SMILES IDX 21 25 25 26 22 27 24 28 23 29
REMARK H PARENT 19 23
ROOT
ATOM      1  N   UNL     1       3.216  44.839  54.830  1.00  0.00    -0.338 N 
ATOM      2  C   UNL     1       4.323  45.619  55.300  1.00  0.00     0.143 C 
ATOM      3  C   UNL     1       5.056  45.146  54.042  1.00  0.00     0.168 C 
ATOM      4  C   UNL     1       3.655  44.919  53.468  1.00  0.00     0.143 C 
ENDROOT
BRANCH   1   5
ATOM      5  C   UNL     1       1.890  45.005  55.248  1.00  0.00     0.227 A 
ATOM      6  C   UNL     1      -0.370  44.745  54.812  1.00  0.00     0.134 A 
ATOM      7  C   UNL     1      -0.671  45.297  56.042  1.00  0.00     0.067 A 
ATOM      8  N   UNL     1       0.909  44.589  54.428  1.00  0.00    -0.196 NA
ATOM      9  C   UNL     1       0.387  45.689  56.822  1.00  0.00     0.119 A 
ATOM     10  N   UNL     1       1.668  45.561  56.449  1.00  0.00    -0.221 NA
BRANCH   6  11
ATOM     11  N   UNL     1      -1.412  44.313  53.965  1.00  0.00    -0.356 N 
ATOM     12  C   UNL     1      -2.324  44.179  51.666  1.00  0.00    -0.018 C 
ATOM     13  C   UNL     1      -3.551  43.543  52.371  1.00  0.00     0.010 C 
ATOM     14  C   UNL     1      -1.446  44.988  52.661  1.00  0.00     0.124 C 
ATOM     15  C   UNL     1      -3.883  44.265  53.671  1.00  0.00     0.022 C 
ATOM     16  C   UNL     1      -2.710  44.189  54.651  1.00  0.00     0.118 C 
ATOM     17  C   UNL     1      -1.488  43.062  51.014  1.00  0.00     0.013 C 
ATOM     18  C   UNL     1      -2.801  45.133  50.555  1.00  0.00     0.013 C 
ENDBRANCH   6  11
ENDBRANCH   1   5
BRANCH   3  19
ATOM     19  S   UNL     1       6.017  46.390  53.234  1.00  0.00     0.239 S 
ATOM     20  O   UNL     1       7.426  46.068  53.365  1.00  0.00    -0.206 OA
ATOM     21  O   UNL     1       5.570  47.711  53.629  1.00  0.00    -0.206 OA
BRANCH  19  22
ATOM     22  N   UNL     1       5.659  46.311  51.561  1.00  0.00    -0.283 N 
ATOM     23  H   UNL     1       5.840  47.242  51.175  1.00  0.00     0.180 HD
BRANCH  22  24
ATOM     24  C   UNL     1       6.318  45.276  50.827  1.00  0.00     0.048 A 
ATOM     25  C   UNL     1       5.670  44.076  50.539  1.00  0.00     0.027 A 
ATOM     26  C   UNL     1       7.611  45.508  50.359  1.00  0.00     0.027 A 
ATOM     27  C   UNL     1       6.323  43.100  49.785  1.00  0.00     0.002 A 
ATOM     28  C   UNL     1       8.262  44.530  49.606  1.00  0.00     0.002 A 
ATOM     29  C   UNL     1       7.618  43.327  49.319  1.00  0.00     0.000 A 
ENDBRANCH  22  24
ENDBRANCH  19  22
ENDBRANCH   3  19
TORSDOF 5
ENDMDL
