MODEL 1
REMARK VINA RESULT:   -10.166      0.000      0.000
REMARK INTER + INTRA:         -11.094
REMARK INTER:                 -10.760
REMARK INTRA:                  -0.334
REMARK UNBOUND:                -0.334
REMARK SMILES Cc1nc(Nc2nc3c(c(=O)[nH]2)CCCC3)nc2ccccc12
REMARK SMILES IDX 5 1 6 2 7 3 8 4 9 5 10 6 11 7 12 8 13 9 14 10 15 11 16 12
REMARK SMILES IDX 4 15 2 16 3 17 23 18 22 19 18 20 17 21 21 22 19 23 20 24
REMARK SMILES IDX 1 25
REMARK H PARENT 5 13 12 14
ROOT
ATOM      1  N   UNL     1       4.183  46.372  54.779  1.00  0.00    -0.294 N 
ATOM      2  C   UNL     1       3.037  45.651  54.683  1.00  0.00     0.210 C 
ATOM      3  N   UNL     1       2.079  45.872  55.537  1.00  0.00    -0.219 NA
ATOM      4  C   UNL     1       0.923  45.136  55.429  1.00  0.00     0.053 C 
ATOM      5  C   UNL     1       0.708  44.194  54.494  1.00  0.00     0.039 C 
ATOM      6  C   UNL     1       1.798  43.939  53.531  1.00  0.00     0.255 C 
ATOM      7  O   UNL     1       1.707  43.092  52.648  1.00  0.00    -0.269 OA
ATOM      8  N   UNL     1       2.905  44.711  53.701  1.00  0.00    -0.292 N 
ATOM      9  C   UNL     1      -0.556  43.400  54.357  1.00  0.00     0.043 C 
ATOM     10  C   UNL     1      -1.709  43.971  55.186  1.00  0.00     0.005 C 
ATOM     11  C   UNL     1      -1.230  44.394  56.569  1.00  0.00     0.007 C 
ATOM     12  C   UNL     1      -0.128  45.450  56.470  1.00  0.00     0.057 C 
ATOM     13  H   UNL     1       4.242  47.056  55.516  1.00  0.00     0.173 HD
ATOM     14  H   UNL     1       3.679  44.570  53.062  1.00  0.00     0.173 HD
ENDROOT
BRANCH   1  15
ATOM     15  C   UNL     1       5.326  46.317  54.002  1.00  0.00     0.230 A 
ATOM     16  C   UNL     1       6.423  45.770  52.045  1.00  0.00     0.051 A 
ATOM     17  N   UNL     1       5.278  45.801  52.763  1.00  0.00    -0.217 NA
ATOM     18  C   UNL     1       7.638  46.251  52.544  1.00  0.00     0.022 A 
ATOM     19  C   UNL     1       8.872  46.248  51.847  1.00  0.00     0.012 A 
ATOM     20  C   UNL     1       7.575  46.766  53.844  1.00  0.00     0.076 A 
ATOM     21  N   UNL     1       6.444  46.799  54.559  1.00  0.00    -0.213 NA
ATOM     22  C   UNL     1      10.025  46.755  52.442  1.00  0.00     0.001 A 
ATOM     23  C   UNL     1       8.739  47.265  54.415  1.00  0.00     0.029 A 
ATOM     24  C   UNL     1       9.958  47.264  53.732  1.00  0.00     0.002 A 
ATOM     25  C   UNL     1       6.307  45.183  50.667  1.00  0.00     0.067 C 
ENDBRANCH   1  15
TORSDOF 1
ENDMDL
MODEL 2
REMARK VINA RESULT:    -9.822      1.817      2.571
REMARK INTER + INTRA:         -10.730
REMARK INTER:                 -10.209
REMARK INTRA:                  -0.520
REMARK UNBOUND:                -0.334
REMARK SMILES Cc1nc(Nc2nc3c(c(=O)[nH]2)CCCC3)nc2ccccc12
REMARK SMILES IDX 5 1 6 2 7 3 8 4 9 5 10 6 11 7 12 8 13 9 14 10 15 11 16 12
REMARK SMILES IDX 4 15 2 16 3 17 23 18 22 19 18 20 17 21 21 22 19 23 20 24
REMARK SMILES IDX 1 25
REMARK H PARENT 5 13 12 14
ROOT
ATOM      1  N   UNL     1       4.008  45.454  50.850  1.00  0.00    -0.294 N 
ATOM      2  C   UNL     1       3.062  45.270  51.806  1.00  0.00     0.210 C 
ATOM      3  N   UNL     1       1.814  45.175  51.448  1.00  0.00    -0.219 NA
ATOM      4  C   UNL     1       0.865  44.989  52.426  1.00  0.00     0.053 C 
ATOM      5  C   UNL     1       1.136  44.897  53.739  1.00  0.00     0.039 C 
ATOM      6  C   UNL     1       2.552  45.012  54.145  1.00  0.00     0.255 C 
ATOM      7  O   UNL     1       2.905  44.954  55.318  1.00  0.00    -0.269 OA
ATOM      8  N   UNL     1       3.429  45.190  53.120  1.00  0.00    -0.292 N 
ATOM      9  C   UNL     1       0.111  44.675  54.810  1.00  0.00     0.043 C 
ATOM     10  C   UNL     1      -1.249  44.252  54.251  1.00  0.00     0.005 C 
ATOM     11  C   UNL     1      -1.611  45.070  53.017  1.00  0.00     0.007 C 
ATOM     12  C   UNL     1      -0.557  44.905  51.920  1.00  0.00     0.057 C 
ATOM     13  H   UNL     1       3.698  45.508  49.894  1.00  0.00     0.173 HD
ATOM     14  H   UNL     1       4.412  45.274  53.351  1.00  0.00     0.173 HD
ENDROOT
BRANCH   1  15
ATOM     15  C   UNL     1       5.379  45.584  50.982  1.00  0.00     0.230 A 
ATOM     16  C   UNL     1       7.537  45.066  50.345  1.00  0.00     0.051 A 
ATOM     17  N   UNL     1       6.206  44.902  50.173  1.00  0.00    -0.217 NA
ATOM     18  C   UNL     1       8.073  45.910  51.322  1.00  0.00     0.022 A 
ATOM     19  C   UNL     1       9.454  46.125  51.555  1.00  0.00     0.012 A 
ATOM     20  C   UNL     1       7.123  46.571  52.110  1.00  0.00     0.076 A 
ATOM     21  N   UNL     1       5.804  46.413  51.945  1.00  0.00    -0.213 NA
ATOM     22  C   UNL     1       9.878  46.992  52.560  1.00  0.00     0.001 A 
ATOM     23  C   UNL     1       7.572  47.429  53.106  1.00  0.00     0.029 A 
ATOM     24  C   UNL     1       8.933  47.645  53.339  1.00  0.00     0.002 A 
ATOM     25  C   UNL     1       8.410  44.278  49.410  1.00  0.00     0.067 C 
ENDBRANCH   1  15
TORSDOF 1
ENDMDL
MODEL 3
REMARK VINA RESULT:    -9.591      1.237      7.709
REMARK INTER + INTRA:         -10.486
REMARK INTER:                 -10.098
REMARK INTRA:                  -0.387
REMARK UNBOUND:                -0.334
REMARK SMILES Cc1nc(Nc2nc3c(c(=O)[nH]2)CCCC3)nc2ccccc12
REMARK SMILES IDX 5 1 6 2 7 3 8 4 9 5 10 6 11 7 12 8 13 9 14 10 15 11 16 12
REMARK SMILES IDX 4 15 2 16 3 17 23 18 22 19 18 20 17 21 21 22 19 23 20 24
REMARK SMILES IDX 1 25
REMARK H PARENT 5 13 12 14
ROOT
ATOM      1  N   UNL     1       4.186  45.463  55.118  1.00  0.00    -0.294 N 
ATOM      2  C   UNL     1       5.168  45.725  54.218  1.00  0.00     0.210 C 
ATOM      3  N   UNL     1       6.324  46.140  54.649  1.00  0.00    -0.219 NA
ATOM      4  C   UNL     1       7.311  46.403  53.727  1.00  0.00     0.053 C 
ATOM      5  C   UNL     1       7.165  46.259  52.399  1.00  0.00     0.039 C 
ATOM      6  C   UNL     1       5.851  45.796  51.910  1.00  0.00     0.255 C 
ATOM      7  O   UNL     1       5.611  45.644  50.717  1.00  0.00    -0.269 OA
ATOM      8  N   UNL     1       4.931  45.553  52.883  1.00  0.00    -0.292 N 
ATOM      9  C   UNL     1       8.240  46.524  51.389  1.00  0.00     0.043 C 
ATOM     10  C   UNL     1       9.625  46.679  52.021  1.00  0.00     0.005 C 
ATOM     11  C   UNL     1       9.556  47.523  53.288  1.00  0.00     0.007 C 
ATOM     12  C   UNL     1       8.613  46.893  54.316  1.00  0.00     0.057 C 
ATOM     13  H   UNL     1       4.399  45.602  56.092  1.00  0.00     0.173 HD
ATOM     14  H   UNL     1       4.014  45.233  52.595  1.00  0.00     0.173 HD
ENDROOT
BRANCH   1  15
ATOM     15  C   UNL     1       2.893  45.020  54.906  1.00  0.00     0.230 A 
ATOM     16  C   UNL     1       1.320  43.868  53.669  1.00  0.00     0.051 A 
ATOM     17  N   UNL     1       2.600  44.273  53.829  1.00  0.00    -0.217 NA
ATOM     18  C   UNL     1       0.306  44.196  54.575  1.00  0.00     0.022 A 
ATOM     19  C   UNL     1      -1.051  43.805  54.467  1.00  0.00     0.012 A 
ATOM     20  C   UNL     1       0.721  44.977  55.660  1.00  0.00     0.076 A 
ATOM     21  N   UNL     1       1.987  45.382  55.823  1.00  0.00    -0.213 NA
ATOM     22  C   UNL     1      -1.979  44.189  55.431  1.00  0.00     0.001 A 
ATOM     23  C   UNL     1      -0.225  45.348  56.608  1.00  0.00     0.029 A 
ATOM     24  C   UNL     1      -1.565  44.965  56.505  1.00  0.00     0.002 A 
ATOM     25  C   UNL     1       1.054  43.035  52.447  1.00  0.00     0.067 C 
ENDBRANCH   1  15
TORSDOF 1
ENDMDL
MODEL 4
REMARK VINA RESULT:    -9.568      1.279      7.707
REMARK INTER + INTRA:         -10.461
REMARK INTER:                 -10.106
REMARK INTRA:                  -0.355
REMARK UNBOUND:                -0.334
REMARK SMILES Cc1nc(Nc2nc3c(c(=O)[nH]2)CCCC3)nc2ccccc12
REMARK SMILES IDX 5 1 6 2 7 3 8 4 9 5 10 6 11 7 12 8 13 9 14 10 15 11 16 12
REMARK SMILES IDX 4 15 2 16 3 17 23 18 22 19 18 20 17 21 21 22 19 23 20 24
REMARK SMILES IDX 1 25
REMARK H PARENT 5 13 12 14
ROOT
ATOM      1  N   UNL     1       4.348  45.676  55.262  1.00  0.00    -0.294 N 
ATOM      2  C   UNL     1       5.335  45.855  54.347  1.00  0.00     0.210 C 
ATOM      3  N   UNL     1       6.509  46.244  54.754  1.00  0.00    -0.219 NA
ATOM      4  C   UNL     1       7.501  46.421  53.818  1.00  0.00     0.053 C 
ATOM      5  C   UNL     1       7.344  46.218  52.499  1.00  0.00     0.039 C 
ATOM      6  C   UNL     1       6.010  45.783  52.037  1.00  0.00     0.255 C 
ATOM      7  O   UNL     1       5.759  45.582  50.854  1.00  0.00    -0.269 OA
ATOM      8  N   UNL     1       5.085  45.626  53.023  1.00  0.00    -0.292 N 
ATOM      9  C   UNL     1       8.424  46.389  51.474  1.00  0.00     0.043 C 
ATOM     10  C   UNL     1       9.816  46.519  52.094  1.00  0.00     0.005 C 
ATOM     11  C   UNL     1       9.787  47.427  53.318  1.00  0.00     0.007 C 
ATOM     12  C   UNL     1       8.825  46.888  54.379  1.00  0.00     0.057 C 
ATOM     13  H   UNL     1       4.571  45.855  56.227  1.00  0.00     0.173 HD
ATOM     14  H   UNL     1       4.155  45.329  52.754  1.00  0.00     0.173 HD
ENDROOT
BRANCH   1  15
ATOM     15  C   UNL     1       3.037  45.276  55.075  1.00  0.00     0.230 A 
ATOM     16  C   UNL     1       0.805  45.300  55.666  1.00  0.00     0.051 A 
ATOM     17  N   UNL     1       2.069  45.723  55.892  1.00  0.00    -0.217 NA
ATOM     18  C   UNL     1       0.477  44.426  54.625  1.00  0.00     0.022 A 
ATOM     19  C   UNL     1      -0.824  43.945  54.334  1.00  0.00     0.012 A 
ATOM     20  C   UNL     1       1.561  44.023  53.836  1.00  0.00     0.076 A 
ATOM     21  N   UNL     1       2.815  44.438  54.055  1.00  0.00    -0.213 NA
ATOM     22  C   UNL     1      -1.037  43.074  53.268  1.00  0.00     0.001 A 
ATOM     23  C   UNL     1       1.321  43.153  52.779  1.00  0.00     0.029 A 
ATOM     24  C   UNL     1       0.040  42.676  52.488  1.00  0.00     0.002 A 
ATOM     25  C   UNL     1      -0.233  45.835  56.612  1.00  0.00     0.067 C 
ENDBRANCH   1  15
TORSDOF 1
ENDMDL
MODEL 5
REMARK VINA RESULT:    -9.528      1.126      2.316
REMARK INTER + INTRA:         -10.419
REMARK INTER:                 -10.126
REMARK INTRA:                  -0.293
REMARK UNBOUND:                -0.334
REMARK SMILES Cc1nc(Nc2nc3c(c(=O)[nH]2)CCCC3)nc2ccccc12
REMARK SMILES IDX 5 1 6 2 7 3 8 4 9 5 10 6 11 7 12 8 13 9 14 10 15 11 16 12
REMARK SMILES IDX 4 15 2 16 3 17 23 18 22 19 18 20 17 21 21 22 19 23 20 24
REMARK SMILES IDX 1 25
REMARK H PARENT 5 13 12 14
ROOT
ATOM      1  N   UNL     1       4.946  46.729  54.615  1.00  0.00    -0.294 N 
ATOM      2  C   UNL     1       3.943  45.859  54.333  1.00  0.00     0.210 C 
ATOM      3  N   UNL     1       2.782  46.031  54.894  1.00  0.00    -0.219 NA
ATOM      4  C   UNL     1       1.774  45.144  54.600  1.00  0.00     0.053 C 
ATOM      5  C   UNL     1       1.903  44.099  53.764  1.00  0.00     0.039 C 
ATOM      6  C   UNL     1       3.224  43.900  53.133  1.00  0.00     0.255 C 
ATOM      7  O   UNL     1       3.450  42.971  52.365  1.00  0.00    -0.269 OA
ATOM      8  N   UNL     1       4.165  44.822  53.471  1.00  0.00    -0.292 N 
ATOM      9  C   UNL     1       0.806  43.137  53.422  1.00  0.00     0.043 C 
ATOM     10  C   UNL     1      -0.573  43.626  53.869  1.00  0.00     0.005 C 
ATOM     11  C   UNL     1      -0.511  44.235  55.265  1.00  0.00     0.007 C 
ATOM     12  C   UNL     1       0.465  45.412  55.308  1.00  0.00     0.057 C 
ATOM     13  H   UNL     1       4.743  47.480  55.255  1.00  0.00     0.173 HD
ATOM     14  H   UNL     1       5.087  44.726  53.062  1.00  0.00     0.173 HD
ENDROOT
BRANCH   1  15
ATOM     15  C   UNL     1       6.249  46.752  54.151  1.00  0.00     0.230 A 
ATOM     16  C   UNL     1       8.476  47.313  54.386  1.00  0.00     0.051 A 
ATOM     17  N   UNL     1       7.220  47.317  54.887  1.00  0.00    -0.217 NA
ATOM     18  C   UNL     1       8.792  46.747  53.147  1.00  0.00     0.022 A 
ATOM     19  C   UNL     1      10.084  46.710  52.566  1.00  0.00     0.012 A 
ATOM     20  C   UNL     1       7.706  46.187  52.465  1.00  0.00     0.076 A 
ATOM     21  N   UNL     1       6.460  46.188  52.955  1.00  0.00    -0.213 NA
ATOM     22  C   UNL     1      10.286  46.118  51.322  1.00  0.00     0.001 A 
ATOM     23  C   UNL     1       7.934  45.603  51.225  1.00  0.00     0.029 A 
ATOM     24  C   UNL     1       9.206  45.564  50.648  1.00  0.00     0.002 A 
ATOM     25  C   UNL     1       9.519  47.959  55.254  1.00  0.00     0.067 C 
ENDBRANCH   1  15
TORSDOF 1
ENDMDL
MODEL 6
REMARK VINA RESULT:    -9.379      1.341      2.760
REMARK INTER + INTRA:         -10.261
REMARK INTER:                 -10.081
REMARK INTRA:                  -0.180
REMARK UNBOUND:                -0.334
REMARK SMILES Cc1nc(Nc2nc3c(c(=O)[nH]2)CCCC3)nc2ccccc12
REMARK SMILES IDX 5 1 6 2 7 3 8 4 9 5 10 6 11 7 12 8 13 9 14 10 15 11 16 12
REMARK SMILES IDX 4 15 2 16 3 17 23 18 22 19 18 20 17 21 21 22 19 23 20 24
REMARK SMILES IDX 1 25
REMARK H PARENT 5 13 12 14
ROOT
ATOM      1  N   UNL     1       4.350  45.930  53.698  1.00  0.00    -0.294 N 
ATOM      2  C   UNL     1       3.140  45.332  53.852  1.00  0.00     0.210 C 
ATOM      3  N   UNL     1       2.379  45.695  54.842  1.00  0.00    -0.219 NA
ATOM      4  C   UNL     1       1.156  45.083  54.987  1.00  0.00     0.053 C 
ATOM      5  C   UNL     1       0.686  44.126  54.169  1.00  0.00     0.039 C 
ATOM      6  C   UNL     1       1.554  43.708  53.050  1.00  0.00     0.255 C 
ATOM      7  O   UNL     1       1.224  42.835  52.254  1.00  0.00    -0.269 OA
ATOM      8  N   UNL     1       2.744  44.364  52.972  1.00  0.00    -0.292 N 
ATOM      9  C   UNL     1      -0.653  43.466  54.308  1.00  0.00     0.043 C 
ATOM     10  C   UNL     1      -1.577  44.196  55.285  1.00  0.00     0.005 C 
ATOM     11  C   UNL     1      -0.818  44.632  56.533  1.00  0.00     0.007 C 
ATOM     12  C   UNL     1       0.346  45.558  56.172  1.00  0.00     0.057 C 
ATOM     13  H   UNL     1       4.606  46.638  54.366  1.00  0.00     0.173 HD
ATOM     14  H   UNL     1       3.372  44.111  52.219  1.00  0.00     0.173 HD
ENDROOT
BRANCH   1  15
ATOM     15  C   UNL     1       5.323  45.714  52.738  1.00  0.00     0.230 A 
ATOM     16  C   UNL     1       7.272  46.314  51.657  1.00  0.00     0.051 A 
ATOM     17  N   UNL     1       6.350  46.570  52.611  1.00  0.00    -0.217 NA
ATOM     18  C   UNL     1       7.194  45.203  50.811  1.00  0.00     0.022 A 
ATOM     19  C   UNL     1       8.125  44.877  49.794  1.00  0.00     0.012 A 
ATOM     20  C   UNL     1       6.084  44.377  51.030  1.00  0.00     0.076 A 
ATOM     21  N   UNL     1       5.167  44.627  51.973  1.00  0.00    -0.213 NA
ATOM     22  C   UNL     1       7.948  43.741  49.008  1.00  0.00     0.001 A 
ATOM     23  C   UNL     1       5.931  43.251  50.232  1.00  0.00     0.029 A 
ATOM     24  C   UNL     1       6.846  42.925  49.227  1.00  0.00     0.002 A 
ATOM     25  C   UNL     1       8.397  47.306  51.563  1.00  0.00     0.067 C 
ENDBRANCH   1  15
TORSDOF 1
ENDMDL
MODEL 7
REMARK VINA RESULT:    -9.283      1.882      7.760
REMARK INTER + INTRA:         -10.160
REMARK INTER:                  -9.790
REMARK INTRA:                  -0.370
REMARK UNBOUND:                -0.334
REMARK SMILES Cc1nc(Nc2nc3c(c(=O)[nH]2)CCCC3)nc2ccccc12
REMARK SMILES IDX 5 1 6 2 7 3 8 4 9 5 10 6 11 7 12 8 13 9 14 10 15 11 16 12
REMARK SMILES IDX 4 15 2 16 3 17 23 18 22 19 18 20 17 21 21 22 19 23 20 24
REMARK SMILES IDX 1 25
REMARK H PARENT 5 13 12 14
ROOT
ATOM      1  N   UNL     1       3.867  43.941  52.481  1.00  0.00    -0.294 N 
ATOM      2  C   UNL     1       4.771  44.953  52.502  1.00  0.00     0.210 C 
ATOM      3  N   UNL     1       5.906  44.797  51.883  1.00  0.00    -0.219 NA
ATOM      4  C   UNL     1       6.814  45.830  51.911  1.00  0.00     0.053 C 
ATOM      5  C   UNL     1       6.611  47.001  52.538  1.00  0.00     0.039 C 
ATOM      6  C   UNL     1       5.327  47.174  53.246  1.00  0.00     0.255 C 
ATOM      7  O   UNL     1       5.048  48.199  53.859  1.00  0.00    -0.269 OA
ATOM      8  N   UNL     1       4.481  46.111  53.167  1.00  0.00    -0.292 N 
ATOM      9  C   UNL     1       7.587  48.139  52.558  1.00  0.00     0.043 C 
ATOM     10  C   UNL     1       8.715  47.972  51.538  1.00  0.00     0.005 C 
ATOM     11  C   UNL     1       9.230  46.537  51.523  1.00  0.00     0.007 C 
ATOM     12  C   UNL     1       8.108  45.555  51.179  1.00  0.00     0.057 C 
ATOM     13  H   UNL     1       4.117  43.104  51.981  1.00  0.00     0.173 HD
ATOM     14  H   UNL     1       3.588  46.184  53.638  1.00  0.00     0.173 HD
ENDROOT
BRANCH   1  15
ATOM     15  C   UNL     1       2.612  43.870  53.059  1.00  0.00     0.230 A 
ATOM     16  C   UNL     1       0.425  43.129  53.074  1.00  0.00     0.051 A 
ATOM     17  N   UNL     1       1.633  43.166  52.468  1.00  0.00    -0.217 NA
ATOM     18  C   UNL     1       0.166  43.791  54.279  1.00  0.00     0.022 A 
ATOM     19  C   UNL     1      -1.074  43.794  54.965  1.00  0.00     0.012 A 
ATOM     20  C   UNL     1       1.255  44.495  54.807  1.00  0.00     0.076 A 
ATOM     21  N   UNL     1       2.453  44.534  54.211  1.00  0.00    -0.213 NA
ATOM     22  C   UNL     1      -1.221  44.490  56.162  1.00  0.00     0.001 A 
ATOM     23  C   UNL     1       1.082  45.181  56.002  1.00  0.00     0.029 A 
ATOM     24  C   UNL     1      -0.139  45.187  56.683  1.00  0.00     0.002 A 
ATOM     25  C   UNL     1      -0.629  42.325  52.367  1.00  0.00     0.067 C 
ENDBRANCH   1  15
TORSDOF 1
ENDMDL
MODEL 8
REMARK VINA RESULT:    -9.270      4.903      8.689
REMARK INTER + INTRA:         -10.146
REMARK INTER:                  -9.623
REMARK INTRA:                  -0.523
REMARK UNBOUND:                -0.334
REMARK SMILES Cc1nc(Nc2nc3c(c(=O)[nH]2)CCCC3)nc2ccccc12
REMARK SMILES IDX 5 1 6 2 7 3 8 4 9 5 10 6 11 7 12 8 13 9 14 10 15 11 16 12
REMARK SMILES IDX 4 15 2 16 3 17 23 18 22 19 18 20 17 21 21 22 19 23 20 24
REMARK SMILES IDX 1 25
REMARK H PARENT 5 13 12 14
ROOT
ATOM      1  N   UNL     1       7.284  43.062  48.936  1.00  0.00    -0.294 N 
ATOM      2  C   UNL     1       7.221  44.094  49.815  1.00  0.00     0.210 C 
ATOM      3  N   UNL     1       8.328  44.660  50.203  1.00  0.00    -0.219 NA
ATOM      4  C   UNL     1       8.252  45.705  51.093  1.00  0.00     0.053 C 
ATOM      5  C   UNL     1       7.104  46.190  51.598  1.00  0.00     0.039 C 
ATOM      6  C   UNL     1       5.849  45.542  51.164  1.00  0.00     0.255 C 
ATOM      7  O   UNL     1       4.750  45.900  51.574  1.00  0.00    -0.269 OA
ATOM      8  N   UNL     1       6.008  44.520  50.279  1.00  0.00    -0.292 N 
ATOM      9  C   UNL     1       7.010  47.340  52.554  1.00  0.00     0.043 C 
ATOM     10  C   UNL     1       8.319  48.123  52.672  1.00  0.00     0.005 C 
ATOM     11  C   UNL     1       9.515  47.181  52.741  1.00  0.00     0.007 C 
ATOM     12  C   UNL     1       9.585  46.291  51.498  1.00  0.00     0.057 C 
ATOM     13  H   UNL     1       8.195  42.776  48.618  1.00  0.00     0.173 HD
ATOM     14  H   UNL     1       5.175  44.046  49.953  1.00  0.00     0.173 HD
ENDROOT
BRANCH   1  15
ATOM     15  C   UNL     1       6.260  42.309  48.388  1.00  0.00     0.230 A 
ATOM     16  C   UNL     1       4.400  40.958  48.596  1.00  0.00     0.051 A 
ATOM     17  N   UNL     1       5.380  41.681  49.184  1.00  0.00    -0.217 NA
ATOM     18  C   UNL     1       4.274  40.846  47.208  1.00  0.00     0.022 A 
ATOM     19  C   UNL     1       3.274  40.106  46.530  1.00  0.00     0.012 A 
ATOM     20  C   UNL     1       5.244  41.540  46.474  1.00  0.00     0.076 A 
ATOM     21  N   UNL     1       6.217  42.256  47.050  1.00  0.00    -0.213 NA
ATOM     22  C   UNL     1       3.243  40.063  45.138  1.00  0.00     0.001 A 
ATOM     23  C   UNL     1       5.192  41.480  45.087  1.00  0.00     0.029 A 
ATOM     24  C   UNL     1       4.207  40.752  44.414  1.00  0.00     0.002 A 
ATOM     25  C   UNL     1       3.445  40.279  49.537  1.00  0.00     0.067 C 
ENDBRANCH   1  15
TORSDOF 1
ENDMDL
MODEL 9
REMARK VINA RESULT:    -9.193      2.384      3.496
REMARK INTER + INTRA:         -10.064
REMARK INTER:                  -9.725
REMARK INTRA:                  -0.340
REMARK UNBOUND:                -0.334
REMARK SMILES Cc1nc(Nc2nc3c(c(=O)[nH]2)CCCC3)nc2ccccc12
REMARK SMILES IDX 5 1 6 2 7 3 8 4 9 5 10 6 11 7 12 8 13 9 14 10 15 11 16 12
REMARK SMILES IDX 4 15 2 16 3 17 23 18 22 19 18 20 17 21 21 22 19 23 20 24
REMARK SMILES IDX 1 25
REMARK H PARENT 5 13 12 14
ROOT
ATOM      1  N   UNL     1       2.495  43.175  51.936  1.00  0.00    -0.294 N 
ATOM      2  C   UNL     1       2.069  43.755  53.087  1.00  0.00     0.210 C 
ATOM      3  N   UNL     1       0.841  43.562  53.473  1.00  0.00    -0.219 NA
ATOM      4  C   UNL     1       0.422  44.154  54.641  1.00  0.00     0.053 C 
ATOM      5  C   UNL     1       1.197  44.926  55.422  1.00  0.00     0.039 C 
ATOM      6  C   UNL     1       2.589  45.150  54.979  1.00  0.00     0.255 C 
ATOM      7  O   UNL     1       3.374  45.848  55.612  1.00  0.00    -0.269 OA
ATOM      8  N   UNL     1       2.928  44.527  53.818  1.00  0.00    -0.292 N 
ATOM      9  C   UNL     1       0.755  45.559  56.706  1.00  0.00     0.043 C 
ATOM     10  C   UNL     1      -0.574  44.999  57.218  1.00  0.00     0.005 C 
ATOM     11  C   UNL     1      -1.571  44.830  56.078  1.00  0.00     0.007 C 
ATOM     12  C   UNL     1      -1.022  43.888  55.004  1.00  0.00     0.057 C 
ATOM     13  H   UNL     1       1.833  42.614  51.426  1.00  0.00     0.173 HD
ATOM     14  H   UNL     1       3.872  44.652  53.475  1.00  0.00     0.173 HD
ENDROOT
BRANCH   1  15
ATOM     15  C   UNL     1       3.736  43.235  51.327  1.00  0.00     0.230 A 
ATOM     16  C   UNL     1       5.401  42.310  50.022  1.00  0.00     0.051 A 
ATOM     17  N   UNL     1       4.182  42.201  50.595  1.00  0.00    -0.217 NA
ATOM     18  C   UNL     1       6.202  43.448  50.165  1.00  0.00     0.022 A 
ATOM     19  C   UNL     1       7.486  43.626  49.593  1.00  0.00     0.012 A 
ATOM     20  C   UNL     1       5.641  44.464  50.947  1.00  0.00     0.076 A 
ATOM     21  N   UNL     1       4.434  44.361  51.517  1.00  0.00    -0.213 NA
ATOM     22  C   UNL     1       8.198  44.805  49.800  1.00  0.00     0.001 A 
ATOM     23  C   UNL     1       6.372  45.630  51.140  1.00  0.00     0.029 A 
ATOM     24  C   UNL     1       7.639  45.811  50.578  1.00  0.00     0.002 A 
ATOM     25  C   UNL     1       5.845  41.122  49.216  1.00  0.00     0.067 C 
ENDBRANCH   1  15
TORSDOF 1
ENDMDL
MODEL 10
REMARK VINA RESULT:    -9.029      2.034      3.410
REMARK INTER + INTRA:          -9.891
REMARK INTER:                  -9.497
REMARK INTRA:                  -0.394
REMARK UNBOUND:                -0.334
REMARK SMILES Cc1nc(Nc2nc3c(c(=O)[nH]2)CCCC3)nc2ccccc12
REMARK SMILES IDX 5 1 6 2 7 3 8 4 9 5 10 6 11 7 12 8 13 9 14 10 15 11 16 12
REMARK SMILES IDX 4 15 2 16 3 17 23 18 22 19 18 20 17 21 21 22 19 23 20 24
REMARK SMILES IDX 1 25
REMARK H PARENT 5 13 12 14
ROOT
ATOM      1  N   UNL     1       2.710  44.140  52.001  1.00  0.00    -0.294 N 
ATOM      2  C   UNL     1       2.034  44.407  53.148  1.00  0.00     0.210 C 
ATOM      3  N   UNL     1       0.808  43.987  53.269  1.00  0.00    -0.219 NA
ATOM      4  C   UNL     1       0.134  44.263  54.436  1.00  0.00     0.053 C 
ATOM      5  C   UNL     1       0.657  44.942  55.471  1.00  0.00     0.039 C 
ATOM      6  C   UNL     1       2.046  45.425  55.329  1.00  0.00     0.255 C 
ATOM      7  O   UNL     1       2.612  46.064  56.210  1.00  0.00    -0.269 OA
ATOM      8  N   UNL     1       2.645  45.107  54.149  1.00  0.00    -0.292 N 
ATOM      9  C   UNL     1      -0.062  45.232  56.754  1.00  0.00     0.043 C 
ATOM     10  C   UNL     1      -1.348  44.418  56.910  1.00  0.00     0.005 C 
ATOM     11  C   UNL     1      -2.128  44.371  55.601  1.00  0.00     0.007 C 
ATOM     12  C   UNL     1      -1.287  43.751  54.483  1.00  0.00     0.057 C 
ATOM     13  H   UNL     1       2.226  43.622  51.286  1.00  0.00     0.173 HD
ATOM     14  H   UNL     1       3.599  45.417  54.007  1.00  0.00     0.173 HD
ENDROOT
BRANCH   1  15
ATOM     15  C   UNL     1       4.002  44.478  51.641  1.00  0.00     0.230 A 
ATOM     16  C   UNL     1       5.842  45.869  51.756  1.00  0.00     0.051 A 
ATOM     17  N   UNL     1       4.577  45.584  52.141  1.00  0.00    -0.217 NA
ATOM     18  C   UNL     1       6.560  45.062  50.868  1.00  0.00     0.022 A 
ATOM     19  C   UNL     1       7.884  45.302  50.425  1.00  0.00     0.012 A 
ATOM     20  C   UNL     1       5.866  43.936  50.408  1.00  0.00     0.076 A 
ATOM     21  N   UNL     1       4.614  43.649  50.785  1.00  0.00    -0.213 NA
ATOM     22  C   UNL     1       8.504  44.429  49.536  1.00  0.00     0.001 A 
ATOM     23  C   UNL     1       6.507  43.080  49.521  1.00  0.00     0.029 A 
ATOM     24  C   UNL     1       7.813  43.314  49.081  1.00  0.00     0.002 A 
ATOM     25  C   UNL     1       6.432  47.117  52.349  1.00  0.00     0.067 C 
ENDBRANCH   1  15
TORSDOF 1
ENDMDL
