MODEL 1
REMARK VINA RESULT:    -9.982      0.000      0.000
REMARK INTER + INTRA:         -13.642
REMARK INTER:                 -12.899
REMARK INTRA:                  -0.742
REMARK UNBOUND:                -0.742
REMARK SMILES Cc1ccccc1Nc1nc(Nc2ccccc2C)nc(N2CCCCC2)n1
REMARK SMILES IDX 9 1 10 2 11 3 20 4 21 5 28 6 8 7 7 9 2 10 3 11 4 12 6 13
REMARK SMILES IDX 5 14 1 15 12 16 13 18 14 19 18 20 15 21 17 22 16 23 19 24
REMARK SMILES IDX 22 25 23 26 27 27 24 28 26 29 25 30
REMARK H PARENT 8 8 12 17
ROOT
ATOM      1  C   UNL     1       6.464  44.801  51.042  1.00  0.00     0.233 A 
ATOM      2  N   UNL     1       6.697  43.890  50.111  1.00  0.00    -0.176 NA
ATOM      3  C   UNL     1       5.834  42.889  50.044  1.00  0.00     0.233 A 
ATOM      4  N   UNL     1       4.800  42.756  50.866  1.00  0.00    -0.176 NA
ATOM      5  C   UNL     1       4.634  43.697  51.790  1.00  0.00     0.231 A 
ATOM      6  N   UNL     1       5.450  44.737  51.894  1.00  0.00    -0.176 NA
ENDROOT
BRANCH   1   7
ATOM      7  N   UNL     1       7.401  45.833  51.095  1.00  0.00    -0.324 N 
ATOM      8  H   UNL     1       7.422  46.297  50.200  1.00  0.00     0.170 HD
BRANCH   7   9
ATOM      9  C   UNL     1       8.128  46.435  52.133  1.00  0.00     0.044 A 
ATOM     10  C   UNL     1       9.529  46.242  52.215  1.00  0.00    -0.027 A 
ATOM     11  C   UNL     1      10.260  46.815  53.272  1.00  0.00     0.005 A 
ATOM     12  C   UNL     1       9.620  47.557  54.260  1.00  0.00     0.000 A 
ATOM     13  C   UNL     1       7.510  47.175  53.152  1.00  0.00     0.026 A 
ATOM     14  C   UNL     1       8.245  47.736  54.201  1.00  0.00     0.002 A 
ATOM     15  C   UNL     1      10.274  45.430  51.187  1.00  0.00     0.046 C 
ENDBRANCH   7   9
ENDBRANCH   1   7
BRANCH   3  16
ATOM     16  N   UNL     1       5.963  41.865  49.106  1.00  0.00    -0.324 N 
ATOM     17  H   UNL     1       6.581  41.164  49.486  1.00  0.00     0.170 HD
BRANCH  16  18
ATOM     18  C   UNL     1       5.311  41.542  47.905  1.00  0.00     0.044 A 
ATOM     19  C   UNL     1       5.806  41.932  46.652  1.00  0.00     0.026 A 
ATOM     20  C   UNL     1       4.143  40.741  47.932  1.00  0.00    -0.027 A 
ATOM     21  C   UNL     1       5.161  41.575  45.464  1.00  0.00     0.002 A 
ATOM     22  C   UNL     1       3.501  40.390  46.730  1.00  0.00     0.005 A 
ATOM     23  C   UNL     1       4.006  40.806  45.503  1.00  0.00     0.000 A 
ATOM     24  C   UNL     1       3.552  40.248  49.228  1.00  0.00     0.046 C 
ENDBRANCH  16  18
ENDBRANCH   3  16
BRANCH   5  25
ATOM     25  N   UNL     1       3.538  43.599  52.666  1.00  0.00    -0.341 N 
ATOM     26  C   UNL     1       3.265  44.836  53.404  1.00  0.00     0.119 C 
ATOM     27  C   UNL     1       2.373  42.934  52.073  1.00  0.00     0.119 C 
ATOM     28  C   UNL     1       2.194  44.601  54.468  1.00  0.00     0.022 C 
ATOM     29  C   UNL     1       1.300  42.688  53.133  1.00  0.00     0.022 C 
ATOM     30  C   UNL     1       0.941  43.973  53.871  1.00  0.00     0.004 C 
ENDBRANCH   5  25
TORSDOF 5
ENDMDL
MODEL 2
REMARK VINA RESULT:    -9.949      0.126      7.143
REMARK INTER + INTRA:         -13.600
REMARK INTER:                 -12.923
REMARK INTRA:                  -0.677
REMARK UNBOUND:                -0.742
REMARK SMILES Cc1ccccc1Nc1nc(Nc2ccccc2C)nc(N2CCCCC2)n1
REMARK SMILES IDX 9 1 10 2 11 3 20 4 21 5 28 6 8 7 7 9 2 10 3 11 4 12 6 13
REMARK SMILES IDX 5 14 1 15 12 16 13 18 14 19 18 20 15 21 17 22 16 23 19 24
REMARK SMILES IDX 22 25 23 26 27 27 24 28 26 29 25 30
REMARK H PARENT 8 8 12 17
ROOT
ATOM      1  C   UNL     1       5.787  42.846  50.091  1.00  0.00     0.233 A 
ATOM      2  N   UNL     1       6.672  43.830  50.077  1.00  0.00    -0.176 NA
ATOM      3  C   UNL     1       6.513  44.771  50.994  1.00  0.00     0.233 A 
ATOM      4  N   UNL     1       5.518  44.778  51.872  1.00  0.00    -0.176 NA
ATOM      5  C   UNL     1       4.654  43.770  51.820  1.00  0.00     0.231 A 
ATOM      6  N   UNL     1       4.772  42.784  50.941  1.00  0.00    -0.176 NA
ENDROOT
BRANCH   1   7
ATOM      7  N   UNL     1       5.974  41.880  49.101  1.00  0.00    -0.324 N 
ATOM      8  H   UNL     1       6.655  41.211  49.427  1.00  0.00     0.170 HD
BRANCH   7   9
ATOM      9  C   UNL     1       5.307  41.567  47.908  1.00  0.00     0.044 A 
ATOM     10  C   UNL     1       4.136  40.773  47.944  1.00  0.00    -0.027 A 
ATOM     11  C   UNL     1       3.480  40.427  46.747  1.00  0.00     0.005 A 
ATOM     12  C   UNL     1       3.981  40.838  45.516  1.00  0.00     0.000 A 
ATOM     13  C   UNL     1       5.796  41.953  46.651  1.00  0.00     0.026 A 
ATOM     14  C   UNL     1       5.140  41.600  45.467  1.00  0.00     0.002 A 
ATOM     15  C   UNL     1       3.557  40.279  49.245  1.00  0.00     0.046 C 
ENDBRANCH   7   9
ENDBRANCH   1   7
BRANCH   3  16
ATOM     16  N   UNL     1       7.378  45.861  51.090  1.00  0.00    -0.324 N 
ATOM     17  H   UNL     1       7.331  46.379  50.226  1.00  0.00     0.170 HD
BRANCH  16  18
ATOM     18  C   UNL     1       8.109  46.447  52.136  1.00  0.00     0.044 A 
ATOM     19  C   UNL     1       7.497  47.180  53.164  1.00  0.00     0.026 A 
ATOM     20  C   UNL     1       9.510  46.251  52.211  1.00  0.00    -0.027 A 
ATOM     21  C   UNL     1       8.237  47.730  54.215  1.00  0.00     0.002 A 
ATOM     22  C   UNL     1      10.245  46.812  53.272  1.00  0.00     0.005 A 
ATOM     23  C   UNL     1       9.611  47.549  54.268  1.00  0.00     0.000 A 
ATOM     24  C   UNL     1      10.254  45.454  51.171  1.00  0.00     0.046 C 
ENDBRANCH  16  18
ENDBRANCH   3  16
BRANCH   5  25
ATOM     25  N   UNL     1       3.598  43.734  52.747  1.00  0.00    -0.341 N 
ATOM     26  C   UNL     1       3.372  45.011  53.432  1.00  0.00     0.119 C 
ATOM     27  C   UNL     1       2.399  43.055  52.241  1.00  0.00     0.119 C 
ATOM     28  C   UNL     1       2.347  44.845  54.552  1.00  0.00     0.022 C 
ATOM     29  C   UNL     1       1.371  42.881  53.358  1.00  0.00     0.022 C 
ATOM     30  C   UNL     1       1.061  44.206  54.043  1.00  0.00     0.004 C 
ENDBRANCH   5  25
TORSDOF 5
ENDMDL
MODEL 3
REMARK VINA RESULT:    -9.811      1.720      7.803
REMARK INTER + INTRA:         -13.421
REMARK INTER:                 -12.896
REMARK INTRA:                  -0.526
REMARK UNBOUND:                -0.742
REMARK SMILES Cc1ccccc1Nc1nc(Nc2ccccc2C)nc(N2CCCCC2)n1
REMARK SMILES IDX 9 1 10 2 11 3 20 4 21 5 28 6 8 7 7 9 2 10 3 11 4 12 6 13
REMARK SMILES IDX 5 14 1 15 12 16 13 18 14 19 18 20 15 21 17 22 16 23 19 24
REMARK SMILES IDX 22 25 23 26 27 27 24 28 26 29 25 30
REMARK H PARENT 8 8 12 17
ROOT
ATOM      1  C   UNL     1       3.401  44.843  53.949  1.00  0.00     0.233 A 
ATOM      2  N   UNL     1       4.241  45.865  53.910  1.00  0.00    -0.176 NA
ATOM      3  C   UNL     1       5.197  45.800  52.997  1.00  0.00     0.233 A 
ATOM      4  N   UNL     1       5.356  44.772  52.173  1.00  0.00    -0.176 NA
ATOM      5  C   UNL     1       4.489  43.770  52.278  1.00  0.00     0.231 A 
ATOM      6  N   UNL     1       3.494  43.786  53.155  1.00  0.00    -0.176 NA
ENDROOT
BRANCH   1   7
ATOM      7  N   UNL     1       2.416  44.936  54.933  1.00  0.00    -0.324 N 
ATOM      8  H   UNL     1       2.773  45.489  55.697  1.00  0.00     0.170 HD
BRANCH   7   9
ATOM      9  C   UNL     1       1.054  44.602  54.981  1.00  0.00     0.044 A 
ATOM     10  C   UNL     1       0.270  45.004  56.090  1.00  0.00    -0.027 A 
ATOM     11  C   UNL     1      -1.088  44.643  56.161  1.00  0.00     0.005 A 
ATOM     12  C   UNL     1      -1.674  43.873  55.161  1.00  0.00     0.000 A 
ATOM     13  C   UNL     1       0.439  43.814  53.997  1.00  0.00     0.026 A 
ATOM     14  C   UNL     1      -0.910  43.457  54.079  1.00  0.00     0.002 A 
ATOM     15  C   UNL     1       0.854  45.820  57.214  1.00  0.00     0.046 C 
ENDBRANCH   7   9
ENDBRANCH   1   7
BRANCH   3  16
ATOM     16  N   UNL     1       6.146  46.812  52.849  1.00  0.00    -0.324 N 
ATOM     17  H   UNL     1       5.662  47.668  52.623  1.00  0.00     0.170 HD
BRANCH  16  18
ATOM     18  C   UNL     1       7.521  46.918  53.111  1.00  0.00     0.044 A 
ATOM     19  C   UNL     1       8.020  47.341  54.353  1.00  0.00     0.026 A 
ATOM     20  C   UNL     1       8.458  46.528  52.123  1.00  0.00    -0.027 A 
ATOM     21  C   UNL     1       9.393  47.410  54.608  1.00  0.00     0.002 A 
ATOM     22  C   UNL     1       9.838  46.605  52.390  1.00  0.00     0.005 A 
ATOM     23  C   UNL     1      10.302  47.045  53.625  1.00  0.00     0.000 A 
ATOM     24  C   UNL     1       8.020  46.031  50.770  1.00  0.00     0.046 C 
ENDBRANCH  16  18
ENDBRANCH   3  16
BRANCH   5  25
ATOM     25  N   UNL     1       4.614  42.672  51.408  1.00  0.00    -0.341 N 
ATOM     26  C   UNL     1       3.339  42.226  50.838  1.00  0.00     0.119 C 
ATOM     27  C   UNL     1       5.730  42.799  50.465  1.00  0.00     0.119 C 
ATOM     28  C   UNL     1       3.524  40.922  50.064  1.00  0.00     0.022 C 
ATOM     29  C   UNL     1       5.926  41.496  49.690  1.00  0.00     0.022 C 
ATOM     30  C   UNL     1       4.632  41.042  49.025  1.00  0.00     0.004 C 
ENDBRANCH   5  25
TORSDOF 5
ENDMDL
MODEL 4
REMARK VINA RESULT:    -9.775      1.594      5.879
REMARK INTER + INTRA:         -13.375
REMARK INTER:                 -12.823
REMARK INTRA:                  -0.552
REMARK UNBOUND:                -0.742
REMARK SMILES Cc1ccccc1Nc1nc(Nc2ccccc2C)nc(N2CCCCC2)n1
REMARK SMILES IDX 9 1 10 2 11 3 20 4 21 5 28 6 8 7 7 9 2 10 3 11 4 12 6 13
REMARK SMILES IDX 5 14 1 15 12 16 13 18 14 19 18 20 15 21 17 22 16 23 19 24
REMARK SMILES IDX 22 25 23 26 27 27 24 28 26 29 25 30
REMARK H PARENT 8 8 12 17
ROOT
ATOM      1  C   UNL     1       5.281  45.551  52.798  1.00  0.00     0.233 A 
ATOM      2  N   UNL     1       4.338  45.592  53.725  1.00  0.00    -0.176 NA
ATOM      3  C   UNL     1       3.518  44.554  53.771  1.00  0.00     0.233 A 
ATOM      4  N   UNL     1       3.587  43.527  52.931  1.00  0.00    -0.176 NA
ATOM      5  C   UNL     1       4.547  43.558  52.013  1.00  0.00     0.231 A 
ATOM      6  N   UNL     1       5.414  44.558  51.930  1.00  0.00    -0.176 NA
ENDROOT
BRANCH   1   7
ATOM      7  N   UNL     1       6.117  46.668  52.767  1.00  0.00    -0.324 N 
ATOM      8  H   UNL     1       5.551  47.492  52.633  1.00  0.00     0.170 HD
BRANCH   7   9
ATOM      9  C   UNL     1       7.473  46.877  53.061  1.00  0.00     0.044 A 
ATOM     10  C   UNL     1       8.456  46.596  52.082  1.00  0.00    -0.027 A 
ATOM     11  C   UNL     1       9.820  46.771  52.381  1.00  0.00     0.005 A 
ATOM     12  C   UNL     1      10.223  47.200  53.642  1.00  0.00     0.000 A 
ATOM     13  C   UNL     1       7.911  47.293  54.327  1.00  0.00     0.026 A 
ATOM     14  C   UNL     1       9.269  47.460  54.616  1.00  0.00     0.002 A 
ATOM     15  C   UNL     1       8.082  46.108  50.707  1.00  0.00     0.046 C 
ENDBRANCH   7   9
ENDBRANCH   1   7
BRANCH   3  16
ATOM     16  N   UNL     1       2.484  44.470  54.702  1.00  0.00    -0.324 N 
ATOM     17  H   UNL     1       2.856  44.701  55.610  1.00  0.00     0.170 HD
BRANCH  16  18
ATOM     18  C   UNL     1       1.090  44.323  54.614  1.00  0.00     0.044 A 
ATOM     19  C   UNL     1       0.472  43.615  53.571  1.00  0.00     0.026 A 
ATOM     20  C   UNL     1       0.261  44.845  55.637  1.00  0.00    -0.027 A 
ATOM     21  C   UNL     1      -0.915  43.450  53.516  1.00  0.00     0.002 A 
ATOM     22  C   UNL     1      -1.134  44.675  55.569  1.00  0.00     0.005 A 
ATOM     23  C   UNL     1      -1.719  43.983  54.513  1.00  0.00     0.000 A 
ATOM     24  C   UNL     1       0.832  45.594  56.813  1.00  0.00     0.046 C 
ENDBRANCH  16  18
ENDBRANCH   3  16
BRANCH   5  25
ATOM     25  N   UNL     1       4.664  42.479  51.118  1.00  0.00    -0.341 N 
ATOM     26  C   UNL     1       3.381  42.035  50.563  1.00  0.00     0.119 C 
ATOM     27  C   UNL     1       5.761  42.634  50.157  1.00  0.00     0.119 C 
ATOM     28  C   UNL     1       3.562  40.749  49.759  1.00  0.00     0.022 C 
ATOM     29  C   UNL     1       5.952  41.348  49.352  1.00  0.00     0.022 C 
ATOM     30  C   UNL     1       4.649  40.899  48.702  1.00  0.00     0.004 C 
ENDBRANCH   5  25
TORSDOF 5
ENDMDL
MODEL 5
REMARK VINA RESULT:    -9.633      1.099      6.731
REMARK INTER + INTRA:         -13.191
REMARK INTER:                 -12.433
REMARK INTRA:                  -0.758
REMARK UNBOUND:                -0.742
REMARK SMILES Cc1ccccc1Nc1nc(Nc2ccccc2C)nc(N2CCCCC2)n1
REMARK SMILES IDX 9 1 10 2 11 3 20 4 21 5 28 6 8 7 7 9 2 10 3 11 4 12 6 13
REMARK SMILES IDX 5 14 1 15 12 16 13 18 14 19 18 20 15 21 17 22 16 23 19 24
REMARK SMILES IDX 22 25 23 26 27 27 24 28 26 29 25 30
REMARK H PARENT 8 8 12 17
ROOT
ATOM      1  C   UNL     1       4.983  42.748  51.064  1.00  0.00     0.233 A 
ATOM      2  N   UNL     1       5.781  43.802  51.008  1.00  0.00    -0.176 NA
ATOM      3  C   UNL     1       5.462  44.819  51.793  1.00  0.00     0.233 A 
ATOM      4  N   UNL     1       4.394  44.829  52.581  1.00  0.00    -0.176 NA
ATOM      5  C   UNL     1       3.625  43.746  52.576  1.00  0.00     0.231 A 
ATOM      6  N   UNL     1       3.903  42.685  51.829  1.00  0.00    -0.176 NA
ENDROOT
BRANCH   1   7
ATOM      7  N   UNL     1       5.340  41.702  50.212  1.00  0.00    -0.324 N 
ATOM      8  H   UNL     1       5.813  40.993  50.751  1.00  0.00     0.170 HD
BRANCH   7   9
ATOM      9  C   UNL     1       5.022  41.375  48.886  1.00  0.00     0.044 A 
ATOM     10  C   UNL     1       5.778  41.929  47.824  1.00  0.00    -0.027 A 
ATOM     11  C   UNL     1       5.443  41.632  46.490  1.00  0.00     0.005 A 
ATOM     12  C   UNL     1       4.358  40.814  46.193  1.00  0.00     0.000 A 
ATOM     13  C   UNL     1       3.925  40.567  48.554  1.00  0.00     0.026 A 
ATOM     14  C   UNL     1       3.597  40.282  47.225  1.00  0.00     0.002 A 
ATOM     15  C   UNL     1       6.951  42.839  48.082  1.00  0.00     0.046 C 
ENDBRANCH   7   9
ENDBRANCH   1   7
BRANCH   3  16
ATOM     16  N   UNL     1       6.221  45.988  51.832  1.00  0.00    -0.324 N 
ATOM     17  H   UNL     1       5.636  46.755  51.539  1.00  0.00     0.170 HD
BRANCH  16  18
ATOM     18  C   UNL     1       7.489  46.322  52.336  1.00  0.00     0.044 A 
ATOM     19  C   UNL     1       8.640  46.327  51.535  1.00  0.00     0.026 A 
ATOM     20  C   UNL     1       7.623  46.733  53.685  1.00  0.00    -0.027 A 
ATOM     21  C   UNL     1       9.889  46.693  52.046  1.00  0.00     0.002 A 
ATOM     22  C   UNL     1       8.886  47.097  54.189  1.00  0.00     0.005 A 
ATOM     23  C   UNL     1      10.013  47.075  53.374  1.00  0.00     0.000 A 
ATOM     24  C   UNL     1       6.440  46.790  54.617  1.00  0.00     0.046 C 
ENDBRANCH  16  18
ENDBRANCH   3  16
BRANCH   5  25
ATOM     25  N   UNL     1       2.495  43.713  53.412  1.00  0.00    -0.341 N 
ATOM     26  C   UNL     1       2.327  44.924  54.221  1.00  0.00     0.119 C 
ATOM     27  C   UNL     1       1.287  43.214  52.743  1.00  0.00     0.119 C 
ATOM     28  C   UNL     1       1.200  44.739  55.236  1.00  0.00     0.022 C 
ATOM     29  C   UNL     1       0.157  43.021  53.753  1.00  0.00     0.022 C 
ATOM     30  C   UNL     1      -0.090  44.288  54.563  1.00  0.00     0.004 C 
ENDBRANCH   5  25
TORSDOF 5
ENDMDL
MODEL 6
REMARK VINA RESULT:    -9.553      1.367      6.762
REMARK INTER + INTRA:         -13.088
REMARK INTER:                 -12.333
REMARK INTRA:                  -0.755
REMARK UNBOUND:                -0.742
REMARK SMILES Cc1ccccc1Nc1nc(Nc2ccccc2C)nc(N2CCCCC2)n1
REMARK SMILES IDX 9 1 10 2 11 3 20 4 21 5 28 6 8 7 7 9 2 10 3 11 4 12 6 13
REMARK SMILES IDX 5 14 1 15 12 16 13 18 14 19 18 20 15 21 17 22 16 23 19 24
REMARK SMILES IDX 22 25 23 26 27 27 24 28 26 29 25 30
REMARK H PARENT 8 8 12 17
ROOT
ATOM      1  C   UNL     1       4.423  43.320  52.093  1.00  0.00     0.233 A 
ATOM      2  N   UNL     1       5.331  44.272  51.946  1.00  0.00    -0.176 NA
ATOM      3  C   UNL     1       5.038  45.447  52.479  1.00  0.00     0.233 A 
ATOM      4  N   UNL     1       3.895  45.704  53.104  1.00  0.00    -0.176 NA
ATOM      5  C   UNL     1       3.019  44.709  53.201  1.00  0.00     0.231 A 
ATOM      6  N   UNL     1       3.264  43.502  52.710  1.00  0.00    -0.176 NA
ENDROOT
BRANCH   1   7
ATOM      7  N   UNL     1       4.758  42.100  51.506  1.00  0.00    -0.324 N 
ATOM      8  H   UNL     1       4.978  41.440  52.236  1.00  0.00     0.170 HD
BRANCH   7   9
ATOM      9  C   UNL     1       4.668  41.589  50.203  1.00  0.00     0.044 A 
ATOM     10  C   UNL     1       5.685  41.880  49.262  1.00  0.00    -0.027 A 
ATOM     11  C   UNL     1       5.584  41.399  47.943  1.00  0.00     0.005 A 
ATOM     12  C   UNL     1       4.480  40.654  47.539  1.00  0.00     0.000 A 
ATOM     13  C   UNL     1       3.561  40.850  49.762  1.00  0.00     0.026 A 
ATOM     14  C   UNL     1       3.467  40.380  48.448  1.00  0.00     0.002 A 
ATOM     15  C   UNL     1       6.893  42.699  49.634  1.00  0.00     0.046 C 
ENDBRANCH   7   9
ENDBRANCH   1   7
BRANCH   3  16
ATOM     16  N   UNL     1       5.909  46.533  52.397  1.00  0.00    -0.324 N 
ATOM     17  H   UNL     1       5.379  47.343  52.113  1.00  0.00     0.170 HD
BRANCH  16  18
ATOM     18  C   UNL     1       7.241  46.756  52.781  1.00  0.00     0.044 A 
ATOM     19  C   UNL     1       7.593  47.176  54.073  1.00  0.00     0.026 A 
ATOM     20  C   UNL     1       8.290  46.494  51.865  1.00  0.00    -0.027 A 
ATOM     21  C   UNL     1       8.927  47.362  54.447  1.00  0.00     0.002 A 
ATOM     22  C   UNL     1       9.629  46.689  52.252  1.00  0.00     0.005 A 
ATOM     23  C   UNL     1       9.945  47.122  53.536  1.00  0.00     0.000 A 
ATOM     24  C   UNL     1       8.015  46.012  50.464  1.00  0.00     0.046 C 
ENDBRANCH  16  18
ENDBRANCH   3  16
BRANCH   5  25
ATOM     25  N   UNL     1       1.806  44.938  53.874  1.00  0.00    -0.341 N 
ATOM     26  C   UNL     1       0.689  44.140  53.359  1.00  0.00     0.119 C 
ATOM     27  C   UNL     1       1.947  44.979  55.334  1.00  0.00     0.119 C 
ATOM     28  C   UNL     1      -0.625  44.578  54.003  1.00  0.00     0.022 C 
ATOM     29  C   UNL     1       0.637  45.423  55.985  1.00  0.00     0.022 C 
ATOM     30  C   UNL     1      -0.534  44.565  55.524  1.00  0.00     0.004 C 
ENDBRANCH   5  25
TORSDOF 5
ENDMDL
MODEL 7
REMARK VINA RESULT:    -9.501      1.362      2.368
REMARK INTER + INTRA:         -13.020
REMARK INTER:                 -12.243
REMARK INTRA:                  -0.777
REMARK UNBOUND:                -0.742
REMARK SMILES Cc1ccccc1Nc1nc(Nc2ccccc2C)nc(N2CCCCC2)n1
REMARK SMILES IDX 9 1 10 2 11 3 20 4 21 5 28 6 8 7 7 9 2 10 3 11 4 12 6 13
REMARK SMILES IDX 5 14 1 15 12 16 13 18 14 19 18 20 15 21 17 22 16 23 19 24
REMARK SMILES IDX 22 25 23 26 27 27 24 28 26 29 25 30
REMARK H PARENT 8 8 12 17
ROOT
ATOM      1  C   UNL     1       5.025  45.421  52.555  1.00  0.00     0.233 A 
ATOM      2  N   UNL     1       5.405  44.334  51.902  1.00  0.00    -0.176 NA
ATOM      3  C   UNL     1       4.619  43.276  52.022  1.00  0.00     0.233 A 
ATOM      4  N   UNL     1       3.522  43.259  52.770  1.00  0.00    -0.176 NA
ATOM      5  C   UNL     1       3.207  44.378  53.413  1.00  0.00     0.231 A 
ATOM      6  N   UNL     1       3.941  45.479  53.315  1.00  0.00    -0.176 NA
ENDROOT
BRANCH   1   7
ATOM      7  N   UNL     1       5.884  46.512  52.419  1.00  0.00    -0.324 N 
ATOM      8  H   UNL     1       5.349  47.308  52.108  1.00  0.00     0.170 HD
BRANCH   7   9
ATOM      9  C   UNL     1       7.215  46.755  52.790  1.00  0.00     0.044 A 
ATOM     10  C   UNL     1       8.258  46.513  51.864  1.00  0.00    -0.027 A 
ATOM     11  C   UNL     1       9.598  46.723  52.240  1.00  0.00     0.005 A 
ATOM     12  C   UNL     1       9.919  47.146  53.526  1.00  0.00     0.000 A 
ATOM     13  C   UNL     1       7.571  47.166  54.083  1.00  0.00     0.026 A 
ATOM     14  C   UNL     1       8.905  47.366  54.449  1.00  0.00     0.002 A 
ATOM     15  C   UNL     1       7.975  46.033  50.464  1.00  0.00     0.046 C 
ENDBRANCH   7   9
ENDBRANCH   1   7
BRANCH   3  16
ATOM     16  N   UNL     1       4.903  42.069  51.384  1.00  0.00    -0.324 N 
ATOM     17  H   UNL     1       5.145  41.389  52.088  1.00  0.00     0.170 HD
BRANCH  16  18
ATOM     18  C   UNL     1       4.754  41.591  50.072  1.00  0.00     0.044 A 
ATOM     19  C   UNL     1       3.639  40.842  49.666  1.00  0.00     0.026 A 
ATOM     20  C   UNL     1       5.720  41.918  49.090  1.00  0.00    -0.027 A 
ATOM     21  C   UNL     1       3.491  40.400  48.348  1.00  0.00     0.002 A 
ATOM     22  C   UNL     1       5.562  41.466  47.766  1.00  0.00     0.005 A 
ATOM     23  C   UNL     1       4.454  40.710  47.398  1.00  0.00     0.000 A 
ATOM     24  C   UNL     1       6.937  42.744  49.421  1.00  0.00     0.046 C 
ENDBRANCH  16  18
ENDBRANCH   3  16
BRANCH   5  25
ATOM     25  N   UNL     1       2.042  44.403  54.199  1.00  0.00    -0.341 N 
ATOM     26  C   UNL     1       2.170  45.212  55.415  1.00  0.00     0.119 C 
ATOM     27  C   UNL     1       0.815  44.606  53.419  1.00  0.00     0.119 C 
ATOM     28  C   UNL     1       0.944  45.038  56.308  1.00  0.00     0.022 C 
ATOM     29  C   UNL     1      -0.417  44.426  54.305  1.00  0.00     0.022 C 
ATOM     30  C   UNL     1      -0.347  45.310  55.544  1.00  0.00     0.004 C 
ENDBRANCH   5  25
TORSDOF 5
ENDMDL
MODEL 8
REMARK VINA RESULT:    -9.097      1.577      6.281
REMARK INTER + INTRA:         -12.498
REMARK INTER:                 -11.727
REMARK INTRA:                  -0.771
REMARK UNBOUND:                -0.742
REMARK SMILES Cc1ccccc1Nc1nc(Nc2ccccc2C)nc(N2CCCCC2)n1
REMARK SMILES IDX 9 1 10 2 11 3 20 4 21 5 28 6 8 7 7 9 2 10 3 11 4 12 6 13
REMARK SMILES IDX 5 14 1 15 12 16 13 18 14 19 18 20 15 21 17 22 16 23 19 24
REMARK SMILES IDX 22 25 23 26 27 27 24 28 26 29 25 30
REMARK H PARENT 8 8 12 17
ROOT
ATOM      1  C   UNL     1       3.682  45.642  52.707  1.00  0.00     0.233 A 
ATOM      2  N   UNL     1       3.702  44.391  52.276  1.00  0.00    -0.176 NA
ATOM      3  C   UNL     1       4.897  43.875  52.035  1.00  0.00     0.233 A 
ATOM      4  N   UNL     1       6.030  44.553  52.176  1.00  0.00    -0.176 NA
ATOM      5  C   UNL     1       5.937  45.810  52.595  1.00  0.00     0.231 A 
ATOM      6  N   UNL     1       4.771  46.377  52.877  1.00  0.00    -0.176 NA
ENDROOT
BRANCH   1   7
ATOM      7  N   UNL     1       2.406  46.158  52.936  1.00  0.00    -0.324 N 
ATOM      8  H   UNL     1       2.400  47.133  52.676  1.00  0.00     0.170 HD
BRANCH   7   9
ATOM      9  C   UNL     1       1.165  45.584  53.250  1.00  0.00     0.044 A 
ATOM     10  C   UNL     1       0.901  45.162  54.576  1.00  0.00    -0.027 A 
ATOM     11  C   UNL     1      -0.329  44.554  54.890  1.00  0.00     0.005 A 
ATOM     12  C   UNL     1      -1.290  44.340  53.907  1.00  0.00     0.000 A 
ATOM     13  C   UNL     1       0.184  45.340  52.278  1.00  0.00     0.026 A 
ATOM     14  C   UNL     1      -1.033  44.731  52.600  1.00  0.00     0.002 A 
ATOM     15  C   UNL     1       1.910  45.348  55.678  1.00  0.00     0.046 C 
ENDBRANCH   7   9
ENDBRANCH   1   7
BRANCH   3  16
ATOM     16  N   UNL     1       5.058  42.567  51.579  1.00  0.00    -0.324 N 
ATOM     17  H   UNL     1       5.252  41.977  52.374  1.00  0.00     0.170 HD
BRANCH  16  18
ATOM     18  C   UNL     1       4.838  41.918  50.353  1.00  0.00     0.044 A 
ATOM     19  C   UNL     1       3.690  41.152  50.101  1.00  0.00     0.026 A 
ATOM     20  C   UNL     1       5.767  42.080  49.295  1.00  0.00    -0.027 A 
ATOM     21  C   UNL     1       3.472  40.540  48.864  1.00  0.00     0.002 A 
ATOM     22  C   UNL     1       5.538  41.456  48.055  1.00  0.00     0.005 A 
ATOM     23  C   UNL     1       4.398  40.688  47.841  1.00  0.00     0.000 A 
ATOM     24  C   UNL     1       7.015  42.908  49.458  1.00  0.00     0.046 C 
ENDBRANCH  16  18
ENDBRANCH   3  16
BRANCH   5  25
ATOM     25  N   UNL     1       7.117  46.553  52.775  1.00  0.00    -0.341 N 
ATOM     26  C   UNL     1       7.548  46.643  54.174  1.00  0.00     0.119 C 
ATOM     27  C   UNL     1       8.164  46.230  51.799  1.00  0.00     0.119 C 
ATOM     28  C   UNL     1       8.717  47.617  54.313  1.00  0.00     0.022 C 
ATOM     29  C   UNL     1       9.335  47.205  51.929  1.00  0.00     0.022 C 
ATOM     30  C   UNL     1       9.853  47.267  53.360  1.00  0.00     0.004 C 
ENDBRANCH   5  25
TORSDOF 5
ENDMDL
MODEL 9
REMARK VINA RESULT:    -9.021      1.842      7.494
REMARK INTER + INTRA:         -12.401
REMARK INTER:                 -11.555
REMARK INTRA:                  -0.846
REMARK UNBOUND:                -0.742
REMARK SMILES Cc1ccccc1Nc1nc(Nc2ccccc2C)nc(N2CCCCC2)n1
REMARK SMILES IDX 9 1 10 2 11 3 20 4 21 5 28 6 8 7 7 9 2 10 3 11 4 12 6 13
REMARK SMILES IDX 5 14 1 15 12 16 13 18 14 19 18 20 15 21 17 22 16 23 19 24
REMARK SMILES IDX 22 25 23 26 27 27 24 28 26 29 25 30
REMARK H PARENT 8 8 12 17
ROOT
ATOM      1  C   UNL     1       3.008  45.631  52.885  1.00  0.00     0.233 A 
ATOM      2  N   UNL     1       3.992  46.504  53.024  1.00  0.00    -0.176 NA
ATOM      3  C   UNL     1       5.158  46.158  52.504  1.00  0.00     0.233 A 
ATOM      4  N   UNL     1       5.375  44.997  51.898  1.00  0.00    -0.176 NA
ATOM      5  C   UNL     1       4.348  44.158  51.808  1.00  0.00     0.231 A 
ATOM      6  N   UNL     1       3.148  44.456  52.288  1.00  0.00    -0.176 NA
ENDROOT
BRANCH   1   7
ATOM      7  N   UNL     1       1.797  46.021  53.459  1.00  0.00    -0.324 N 
ATOM      8  H   UNL     1       1.392  46.751  52.893  1.00  0.00     0.170 HD
BRANCH   7   9
ATOM      9  C   UNL     1       0.994  45.502  54.485  1.00  0.00     0.044 A 
ATOM     10  C   UNL     1      -0.242  44.888  54.168  1.00  0.00    -0.027 A 
ATOM     11  C   UNL     1      -1.068  44.394  55.195  1.00  0.00     0.005 A 
ATOM     12  C   UNL     1      -0.697  44.520  56.530  1.00  0.00     0.000 A 
ATOM     13  C   UNL     1       1.333  45.628  55.840  1.00  0.00     0.026 A 
ATOM     14  C   UNL     1       0.503  45.139  56.853  1.00  0.00     0.002 A 
ATOM     15  C   UNL     1      -0.708  44.742  52.743  1.00  0.00     0.046 C 
ENDBRANCH   7   9
ENDBRANCH   1   7
BRANCH   3  16
ATOM     16  N   UNL     1       6.276  46.989  52.579  1.00  0.00    -0.324 N 
ATOM     17  H   UNL     1       5.976  47.894  52.907  1.00  0.00     0.170 HD
BRANCH  16  18
ATOM     18  C   UNL     1       7.662  46.785  52.477  1.00  0.00     0.044 A 
ATOM     19  C   UNL     1       8.274  46.355  51.290  1.00  0.00     0.026 A 
ATOM     20  C   UNL     1       8.500  47.080  53.580  1.00  0.00    -0.027 A 
ATOM     21  C   UNL     1       9.659  46.188  51.196  1.00  0.00     0.002 A 
ATOM     22  C   UNL     1       9.892  46.905  53.475  1.00  0.00     0.005 A 
ATOM     23  C   UNL     1      10.468  46.460  52.289  1.00  0.00     0.000 A 
ATOM     24  C   UNL     1       7.940  47.576  54.888  1.00  0.00     0.046 C 
ENDBRANCH  16  18
ENDBRANCH   3  16
BRANCH   5  25
ATOM     25  N   UNL     1       4.535  42.927  51.155  1.00  0.00    -0.341 N 
ATOM     26  C   UNL     1       3.293  42.340  50.642  1.00  0.00     0.119 C 
ATOM     27  C   UNL     1       5.678  42.921  50.235  1.00  0.00     0.119 C 
ATOM     28  C   UNL     1       3.544  40.926  50.121  1.00  0.00     0.022 C 
ATOM     29  C   UNL     1       5.938  41.508  49.715  1.00  0.00     0.022 C 
ATOM     30  C   UNL     1       4.681  40.896  49.108  1.00  0.00     0.004 C 
ENDBRANCH   5  25
TORSDOF 5
ENDMDL
MODEL 10
REMARK VINA RESULT:    -8.924      1.227      7.312
REMARK INTER + INTRA:         -12.275
REMARK INTER:                 -11.280
REMARK INTRA:                  -0.995
REMARK UNBOUND:                -0.742
REMARK SMILES Cc1ccccc1Nc1nc(Nc2ccccc2C)nc(N2CCCCC2)n1
REMARK SMILES IDX 9 1 10 2 11 3 20 4 21 5 28 6 8 7 7 9 2 10 3 11 4 12 6 13
REMARK SMILES IDX 5 14 1 15 12 16 13 18 14 19 18 20 15 21 17 22 16 23 19 24
REMARK SMILES IDX 22 25 23 26 27 27 24 28 26 29 25 30
REMARK H PARENT 8 8 12 17
ROOT
ATOM      1  C   UNL     1       5.056  42.260  50.486  1.00  0.00     0.233 A 
ATOM      2  N   UNL     1       4.022  41.914  51.237  1.00  0.00    -0.176 NA
ATOM      3  C   UNL     1       3.711  42.743  52.220  1.00  0.00     0.233 A 
ATOM      4  N   UNL     1       4.391  43.851  52.488  1.00  0.00    -0.176 NA
ATOM      5  C   UNL     1       5.429  44.131  51.706  1.00  0.00     0.231 A 
ATOM      6  N   UNL     1       5.778  43.353  50.690  1.00  0.00    -0.176 NA
ENDROOT
BRANCH   1   7
ATOM      7  N   UNL     1       5.366  41.356  49.469  1.00  0.00    -0.324 N 
ATOM      8  H   UNL     1       5.820  40.554  49.877  1.00  0.00     0.170 HD
BRANCH   7   9
ATOM      9  C   UNL     1       5.021  41.261  48.113  1.00  0.00     0.044 A 
ATOM     10  C   UNL     1       3.978  40.391  47.712  1.00  0.00    -0.027 A 
ATOM     11  C   UNL     1       3.648  40.266  46.349  1.00  0.00     0.005 A 
ATOM     12  C   UNL     1       4.352  40.972  45.379  1.00  0.00     0.000 A 
ATOM     13  C   UNL     1       5.721  41.948  47.110  1.00  0.00     0.026 A 
ATOM     14  C   UNL     1       5.389  41.812  45.758  1.00  0.00     0.002 A 
ATOM     15  C   UNL     1       3.195  39.584  48.714  1.00  0.00     0.046 C 
ENDBRANCH   7   9
ENDBRANCH   1   7
BRANCH   3  16
ATOM     16  N   UNL     1       2.643  42.497  53.083  1.00  0.00    -0.324 N 
ATOM     17  H   UNL     1       2.991  41.983  53.878  1.00  0.00     0.170 HD
BRANCH  16  18
ATOM     18  C   UNL     1       1.314  42.946  53.156  1.00  0.00     0.044 A 
ATOM     19  C   UNL     1       0.292  42.406  52.360  1.00  0.00     0.026 A 
ATOM     20  C   UNL     1       0.957  43.934  54.106  1.00  0.00    -0.027 A 
ATOM     21  C   UNL     1      -1.032  42.842  52.469  1.00  0.00     0.002 A 
ATOM     22  C   UNL     1      -0.378  44.367  54.205  1.00  0.00     0.005 A 
ATOM     23  C   UNL     1      -1.367  43.825  53.389  1.00  0.00     0.000 A 
ATOM     24  C   UNL     1       1.977  44.552  55.027  1.00  0.00     0.046 C 
ENDBRANCH  16  18
ENDBRANCH   3  16
BRANCH   5  25
ATOM     25  N   UNL     1       6.162  45.306  51.948  1.00  0.00    -0.341 N 
ATOM     26  C   UNL     1       6.397  45.570  53.371  1.00  0.00     0.119 C 
ATOM     27  C   UNL     1       7.324  45.461  51.065  1.00  0.00     0.119 C 
ATOM     28  C   UNL     1       7.025  46.949  53.564  1.00  0.00     0.022 C 
ATOM     29  C   UNL     1       7.954  46.841  51.248  1.00  0.00     0.022 C 
ATOM     30  C   UNL     1       8.276  47.118  52.712  1.00  0.00     0.004 C 
ENDBRANCH   5  25
TORSDOF 5
ENDMDL
