MODEL 1
REMARK VINA RESULT:   -10.047      0.000      0.000
REMARK INTER + INTRA:         -13.080
REMARK INTER:                 -12.396
REMARK INTRA:                  -0.684
REMARK UNBOUND:                -0.684
REMARK SMILES O=C([O-])c1cccc(Nc2nc(-c3ccccc3)c3cc(Cl)ccc3n2)c1
REMARK SMILES IDX 4 1 5 2 6 3 7 4 8 5 27 6 2 7 1 8 3 9 9 10 10 12 11 13 26 14
REMARK SMILES IDX 12 15 25 16 19 17 24 18 20 19 23 20 21 21 22 22 13 23 14 24
REMARK SMILES IDX 18 25 15 26 17 27 16 28
REMARK H PARENT 9 11
ROOT
ATOM      1  C   UNL     1       9.425  47.271  53.956  1.00  0.00    -0.001 A 
ATOM      2  C   UNL     1      10.504  46.853  53.167  1.00  0.00     0.010 A 
ATOM      3  C   UNL     1      10.287  46.295  51.909  1.00  0.00     0.003 A 
ATOM      4  C   UNL     1       8.986  46.147  51.418  1.00  0.00     0.026 A 
ATOM      5  C   UNL     1       7.881  46.550  52.173  1.00  0.00     0.042 A 
ATOM      6  C   UNL     1       8.125  47.111  53.440  1.00  0.00     0.036 A 
ENDROOT
BRANCH   1   7
ATOM      7  C   UNL     1       9.645  47.881  55.325  1.00  0.00     0.072 C 
ATOM      8  O   UNL     1       8.797  48.742  55.722  1.00  0.00    -0.545 OA
ATOM      9  O   UNL     1      10.664  47.487  55.977  1.00  0.00    -0.545 OA
ENDBRANCH   1   7
BRANCH   5  10
ATOM     10  N   UNL     1       6.552  46.437  51.744  1.00  0.00    -0.324 N 
ATOM     11  H   UNL     1       6.072  47.312  51.591  1.00  0.00     0.170 HD
BRANCH  10  12
ATOM     12  C   UNL     1       5.710  45.371  51.463  1.00  0.00     0.228 A 
ATOM     13  N   UNL     1       4.471  45.296  51.955  1.00  0.00    -0.212 NA
ATOM     14  N   UNL     1       6.236  44.423  50.671  1.00  0.00    -0.213 NA
ATOM     15  C   UNL     1       3.719  44.222  51.638  1.00  0.00     0.084 A 
ATOM     16  C   UNL     1       5.497  43.352  50.372  1.00  0.00     0.077 A 
ATOM     17  C   UNL     1       4.193  43.174  50.839  1.00  0.00     0.028 A 
ATOM     18  C   UNL     1       6.058  42.369  49.565  1.00  0.00     0.031 A 
ATOM     19  C   UNL     1       3.482  41.991  50.501  1.00  0.00     0.033 A 
ATOM     20  C   UNL     1       5.359  41.209  49.217  1.00  0.00     0.023 A 
ATOM     21  C   UNL     1       4.068  41.023  49.692  1.00  0.00     0.041 A 
ATOM     22  Cl  UNL     1       3.198  39.599  49.284  1.00  0.00    -0.084 Cl
BRANCH  15  23
ATOM     23  C   UNL     1       2.366  44.263  52.218  1.00  0.00     0.001 A 
ATOM     24  C   UNL     1       1.276  44.789  51.503  1.00  0.00     0.010 A 
ATOM     25  C   UNL     1       2.139  43.799  53.524  1.00  0.00     0.010 A 
ATOM     26  C   UNL     1      -0.003  44.824  52.065  1.00  0.00     0.001 A 
ATOM     27  C   UNL     1       0.861  43.833  54.088  1.00  0.00     0.001 A 
ATOM     28  C   UNL     1      -0.210  44.341  53.356  1.00  0.00     0.000 A 
ENDBRANCH  15  23
ENDBRANCH  10  12
ENDBRANCH   5  10
TORSDOF 4
ENDMDL
MODEL 2
REMARK VINA RESULT:    -9.872      1.576      3.973
REMARK INTER + INTRA:         -12.864
REMARK INTER:                 -12.783
REMARK INTRA:                  -0.081
REMARK UNBOUND:                -0.684
REMARK SMILES O=C([O-])c1cccc(Nc2nc(-c3ccccc3)c3cc(Cl)ccc3n2)c1
REMARK SMILES IDX 4 1 5 2 6 3 7 4 8 5 27 6 2 7 1 8 3 9 9 10 10 12 11 13 26 14
REMARK SMILES IDX 12 15 25 16 19 17 24 18 20 19 23 20 21 21 22 22 13 23 14 24
REMARK SMILES IDX 18 25 15 26 17 27 16 28
REMARK H PARENT 9 11
ROOT
ATOM      1  C   UNL     1       9.490  47.315  54.197  1.00  0.00    -0.001 A 
ATOM      2  C   UNL     1      10.378  46.886  53.202  1.00  0.00     0.010 A 
ATOM      3  C   UNL     1       9.899  46.414  51.982  1.00  0.00     0.003 A 
ATOM      4  C   UNL     1       8.523  46.364  51.736  1.00  0.00     0.026 A 
ATOM      5  C   UNL     1       7.603  46.782  52.702  1.00  0.00     0.042 A 
ATOM      6  C   UNL     1       8.110  47.255  53.925  1.00  0.00     0.036 A 
ENDROOT
BRANCH   1   7
ATOM      7  C   UNL     1       9.996  47.833  55.528  1.00  0.00     0.072 C 
ATOM      8  O   UNL     1      10.996  47.238  56.041  1.00  0.00    -0.545 OA
ATOM      9  O   UNL     1       9.380  48.824  56.034  1.00  0.00    -0.545 OA
ENDBRANCH   1   7
BRANCH   5  10
ATOM     10  N   UNL     1       6.214  46.766  52.522  1.00  0.00    -0.324 N 
ATOM     11  H   UNL     1       5.792  47.663  52.336  1.00  0.00     0.170 HD
BRANCH  10  12
ATOM     12  C   UNL     1       5.245  45.772  52.535  1.00  0.00     0.228 A 
ATOM     13  N   UNL     1       5.271  44.744  51.683  1.00  0.00    -0.212 NA
ATOM     14  N   UNL     1       4.282  45.928  53.457  1.00  0.00    -0.213 NA
ATOM     15  C   UNL     1       4.287  43.824  51.758  1.00  0.00     0.084 A 
ATOM     16  C   UNL     1       3.299  45.026  53.518  1.00  0.00     0.077 A 
ATOM     17  C   UNL     1       3.230  43.918  52.671  1.00  0.00     0.028 A 
ATOM     18  C   UNL     1       2.298  45.206  54.465  1.00  0.00     0.031 A 
ATOM     19  C   UNL     1       2.134  43.019  52.779  1.00  0.00     0.033 A 
ATOM     20  C   UNL     1       1.224  44.317  54.587  1.00  0.00     0.023 A 
ATOM     21  C   UNL     1       1.146  43.224  53.735  1.00  0.00     0.041 A 
ATOM     22  Cl  UNL     1      -0.171  42.128  53.863  1.00  0.00    -0.084 Cl
BRANCH  15  23
ATOM     23  C   UNL     1       4.436  42.728  50.786  1.00  0.00     0.001 A 
ATOM     24  C   UNL     1       3.404  41.799  50.562  1.00  0.00     0.010 A 
ATOM     25  C   UNL     1       5.637  42.566  50.076  1.00  0.00     0.010 A 
ATOM     26  C   UNL     1       3.559  40.763  49.638  1.00  0.00     0.001 A 
ATOM     27  C   UNL     1       5.793  41.530  49.151  1.00  0.00     0.001 A 
ATOM     28  C   UNL     1       4.751  40.632  48.930  1.00  0.00     0.000 A 
ENDBRANCH  15  23
ENDBRANCH  10  12
ENDBRANCH   5  10
TORSDOF 4
ENDMDL
MODEL 3
REMARK VINA RESULT:    -9.543      3.693      7.360
REMARK INTER + INTRA:         -12.459
REMARK INTER:                 -12.175
REMARK INTRA:                  -0.284
REMARK UNBOUND:                -0.684
REMARK SMILES O=C([O-])c1cccc(Nc2nc(-c3ccccc3)c3cc(Cl)ccc3n2)c1
REMARK SMILES IDX 4 1 5 2 6 3 7 4 8 5 27 6 2 7 1 8 3 9 9 10 10 12 11 13 26 14
REMARK SMILES IDX 12 15 25 16 19 17 24 18 20 19 23 20 21 21 22 22 13 23 14 24
REMARK SMILES IDX 18 25 15 26 17 27 16 28
REMARK H PARENT 9 11
ROOT
ATOM      1  C   UNL     1       0.136  44.911  55.399  1.00  0.00    -0.001 A 
ATOM      2  C   UNL     1      -0.558  44.112  54.481  1.00  0.00     0.010 A 
ATOM      3  C   UNL     1      -0.192  44.098  53.137  1.00  0.00     0.003 A 
ATOM      4  C   UNL     1       0.876  44.881  52.688  1.00  0.00     0.026 A 
ATOM      5  C   UNL     1       1.594  45.693  53.571  1.00  0.00     0.042 A 
ATOM      6  C   UNL     1       1.207  45.691  54.923  1.00  0.00     0.036 A 
ENDROOT
BRANCH   1   7
ATOM      7  C   UNL     1      -0.250  44.936  56.864  1.00  0.00     0.072 C 
ATOM      8  O   UNL     1       0.551  45.513  57.666  1.00  0.00    -0.545 OA
ATOM      9  O   UNL     1      -1.347  44.377  57.183  1.00  0.00    -0.545 OA
ENDBRANCH   1   7
BRANCH   5  10
ATOM     10  N   UNL     1       2.677  46.499  53.193  1.00  0.00    -0.324 N 
ATOM     11  H   UNL     1       2.524  47.493  53.273  1.00  0.00     0.170 HD
BRANCH  10  12
ATOM     12  C   UNL     1       3.958  46.245  52.724  1.00  0.00     0.228 A 
ATOM     13  N   UNL     1       4.240  45.179  51.971  1.00  0.00    -0.212 NA
ATOM     14  N   UNL     1       4.886  47.143  53.089  1.00  0.00    -0.213 NA
ATOM     15  C   UNL     1       5.513  45.002  51.561  1.00  0.00     0.084 A 
ATOM     16  C   UNL     1       6.149  46.958  52.698  1.00  0.00     0.077 A 
ATOM     17  C   UNL     1       6.550  45.874  51.913  1.00  0.00     0.028 A 
ATOM     18  C   UNL     1       7.105  47.885  53.095  1.00  0.00     0.031 A 
ATOM     19  C   UNL     1       7.920  45.731  51.563  1.00  0.00     0.033 A 
ATOM     20  C   UNL     1       8.452  47.758  52.742  1.00  0.00     0.023 A 
ATOM     21  C   UNL     1       8.855  46.673  51.976  1.00  0.00     0.041 A 
ATOM     22  Cl  UNL     1      10.508  46.495  51.541  1.00  0.00    -0.084 Cl
BRANCH  15  23
ATOM     23  C   UNL     1       5.696  43.808  50.719  1.00  0.00     0.001 A 
ATOM     24  C   UNL     1       6.628  43.787  49.666  1.00  0.00     0.010 A 
ATOM     25  C   UNL     1       4.915  42.661  50.934  1.00  0.00     0.010 A 
ATOM     26  C   UNL     1       6.791  42.648  48.874  1.00  0.00     0.001 A 
ATOM     27  C   UNL     1       5.077  41.521  50.142  1.00  0.00     0.001 A 
ATOM     28  C   UNL     1       6.019  41.514  49.116  1.00  0.00     0.000 A 
ENDBRANCH  15  23
ENDBRANCH  10  12
ENDBRANCH   5  10
TORSDOF 4
ENDMDL
MODEL 4
REMARK VINA RESULT:    -9.320      3.627      7.329
REMARK INTER + INTRA:         -12.183
REMARK INTER:                 -11.690
REMARK INTRA:                  -0.493
REMARK UNBOUND:                -0.684
REMARK SMILES O=C([O-])c1cccc(Nc2nc(-c3ccccc3)c3cc(Cl)ccc3n2)c1
REMARK SMILES IDX 4 1 5 2 6 3 7 4 8 5 27 6 2 7 1 8 3 9 9 10 10 12 11 13 26 14
REMARK SMILES IDX 12 15 25 16 19 17 24 18 20 19 23 20 21 21 22 22 13 23 14 24
REMARK SMILES IDX 18 25 15 26 17 27 16 28
REMARK H PARENT 9 11
ROOT
ATOM      1  C   UNL     1      -0.318  45.976  56.839  1.00  0.00    -0.001 A 
ATOM      2  C   UNL     1      -1.195  45.276  56.000  1.00  0.00     0.010 A 
ATOM      3  C   UNL     1      -0.703  44.460  54.984  1.00  0.00     0.003 A 
ATOM      4  C   UNL     1       0.676  44.329  54.790  1.00  0.00     0.026 A 
ATOM      5  C   UNL     1       1.586  45.011  55.604  1.00  0.00     0.042 A 
ATOM      6  C   UNL     1       1.064  45.828  56.624  1.00  0.00     0.036 A 
ENDROOT
BRANCH   1   7
ATOM      7  C   UNL     1      -0.839  46.865  57.949  1.00  0.00     0.072 C 
ATOM      8  O   UNL     1      -0.016  47.203  58.858  1.00  0.00    -0.545 OA
ATOM      9  O   UNL     1      -2.063  47.208  57.890  1.00  0.00    -0.545 OA
ENDBRANCH   1   7
BRANCH   5  10
ATOM     10  N   UNL     1       2.977  44.922  55.472  1.00  0.00    -0.324 N 
ATOM     11  H   UNL     1       3.497  44.976  56.336  1.00  0.00     0.170 HD
BRANCH  10  12
ATOM     12  C   UNL     1       3.843  44.768  54.398  1.00  0.00     0.228 A 
ATOM     13  N   UNL     1       4.923  45.538  54.241  1.00  0.00    -0.212 NA
ATOM     14  N   UNL     1       3.508  43.799  53.532  1.00  0.00    -0.213 NA
ATOM     15  C   UNL     1       5.709  45.327  53.165  1.00  0.00     0.084 A 
ATOM     16  C   UNL     1       4.277  43.603  52.459  1.00  0.00     0.077 A 
ATOM     17  C   UNL     1       5.425  44.355  52.198  1.00  0.00     0.028 A 
ATOM     18  C   UNL     1       3.913  42.608  51.560  1.00  0.00     0.031 A 
ATOM     19  C   UNL     1       6.175  44.105  51.017  1.00  0.00     0.033 A 
ATOM     20  C   UNL     1       4.654  42.347  50.402  1.00  0.00     0.023 A 
ATOM     21  C   UNL     1       5.786  43.104  50.134  1.00  0.00     0.041 A 
ATOM     22  Cl  UNL     1       6.703  42.804  48.712  1.00  0.00    -0.084 Cl
BRANCH  15  23
ATOM     23  C   UNL     1       6.880  46.218  53.113  1.00  0.00     0.001 A 
ATOM     24  C   UNL     1       6.893  47.366  52.300  1.00  0.00     0.010 A 
ATOM     25  C   UNL     1       8.033  45.922  53.858  1.00  0.00     0.010 A 
ATOM     26  C   UNL     1       8.011  48.203  52.258  1.00  0.00     0.001 A 
ATOM     27  C   UNL     1       9.152  46.759  53.817  1.00  0.00     0.001 A 
ATOM     28  C   UNL     1       9.137  47.901  53.020  1.00  0.00     0.000 A 
ENDBRANCH  15  23
ENDBRANCH  10  12
ENDBRANCH   5  10
TORSDOF 4
ENDMDL
MODEL 5
REMARK VINA RESULT:    -9.319      4.227      7.669
REMARK INTER + INTRA:         -12.182
REMARK INTER:                 -11.795
REMARK INTRA:                  -0.387
REMARK UNBOUND:                -0.684
REMARK SMILES O=C([O-])c1cccc(Nc2nc(-c3ccccc3)c3cc(Cl)ccc3n2)c1
REMARK SMILES IDX 4 1 5 2 6 3 7 4 8 5 27 6 2 7 1 8 3 9 9 10 10 12 11 13 26 14
REMARK SMILES IDX 12 15 25 16 19 17 24 18 20 19 23 20 21 21 22 22 13 23 14 24
REMARK SMILES IDX 18 25 15 26 17 27 16 28
REMARK H PARENT 9 11
ROOT
ATOM      1  C   UNL     1      -0.244  44.525  53.633  1.00  0.00    -0.001 A 
ATOM      2  C   UNL     1      -0.275  44.337  55.021  1.00  0.00     0.010 A 
ATOM      3  C   UNL     1       0.712  44.892  55.833  1.00  0.00     0.003 A 
ATOM      4  C   UNL     1       1.747  45.646  55.269  1.00  0.00     0.026 A 
ATOM      5  C   UNL     1       1.816  45.857  53.889  1.00  0.00     0.042 A 
ATOM      6  C   UNL     1       0.807  45.287  53.091  1.00  0.00     0.036 A 
ENDROOT
BRANCH   1   7
ATOM      7  C   UNL     1      -1.311  43.929  52.738  1.00  0.00     0.072 C 
ATOM      8  O   UNL     1      -1.801  42.808  53.085  1.00  0.00    -0.545 OA
ATOM      9  O   UNL     1      -1.637  44.595  51.704  1.00  0.00    -0.545 OA
ENDBRANCH   1   7
BRANCH   5  10
ATOM     10  N   UNL     1       2.818  46.605  53.258  1.00  0.00    -0.324 N 
ATOM     11  H   UNL     1       2.599  47.578  53.105  1.00  0.00     0.170 HD
BRANCH  10  12
ATOM     12  C   UNL     1       4.088  46.316  52.778  1.00  0.00     0.228 A 
ATOM     13  N   UNL     1       4.335  45.243  52.023  1.00  0.00    -0.212 NA
ATOM     14  N   UNL     1       5.043  47.188  53.137  1.00  0.00    -0.213 NA
ATOM     15  C   UNL     1       5.599  45.032  51.603  1.00  0.00     0.084 A 
ATOM     16  C   UNL     1       6.297  46.968  52.736  1.00  0.00     0.077 A 
ATOM     17  C   UNL     1       6.663  45.874  51.948  1.00  0.00     0.028 A 
ATOM     18  C   UNL     1       7.282  47.868  53.127  1.00  0.00     0.031 A 
ATOM     19  C   UNL     1       8.025  45.693  51.587  1.00  0.00     0.033 A 
ATOM     20  C   UNL     1       8.622  47.705  52.763  1.00  0.00     0.023 A 
ATOM     21  C   UNL     1       8.990  46.610  51.993  1.00  0.00     0.041 A 
ATOM     22  Cl  UNL     1      10.633  46.386  51.546  1.00  0.00    -0.084 Cl
BRANCH  15  23
ATOM     23  C   UNL     1       5.743  43.833  50.760  1.00  0.00     0.001 A 
ATOM     24  C   UNL     1       6.645  43.798  49.682  1.00  0.00     0.010 A 
ATOM     25  C   UNL     1       4.951  42.698  50.998  1.00  0.00     0.010 A 
ATOM     26  C   UNL     1       6.771  42.655  48.888  1.00  0.00     0.001 A 
ATOM     27  C   UNL     1       5.076  41.554  50.205  1.00  0.00     0.001 A 
ATOM     28  C   UNL     1       5.990  41.532  49.153  1.00  0.00     0.000 A 
ENDBRANCH  15  23
ENDBRANCH  10  12
ENDBRANCH   5  10
TORSDOF 4
ENDMDL
MODEL 6
REMARK VINA RESULT:    -9.300      3.986      7.625
REMARK INTER + INTRA:         -12.158
REMARK INTER:                 -11.796
REMARK INTRA:                  -0.363
REMARK UNBOUND:                -0.684
REMARK SMILES O=C([O-])c1cccc(Nc2nc(-c3ccccc3)c3cc(Cl)ccc3n2)c1
REMARK SMILES IDX 4 1 5 2 6 3 7 4 8 5 27 6 2 7 1 8 3 9 9 10 10 12 11 13 26 14
REMARK SMILES IDX 12 15 25 16 19 17 24 18 20 19 23 20 21 21 22 22 13 23 14 24
REMARK SMILES IDX 18 25 15 26 17 27 16 28
REMARK H PARENT 9 11
ROOT
ATOM      1  C   UNL     1      -0.634  44.378  54.564  1.00  0.00    -0.001 A 
ATOM      2  C   UNL     1      -1.280  44.723  55.759  1.00  0.00     0.010 A 
ATOM      3  C   UNL     1      -0.548  45.183  56.851  1.00  0.00     0.003 A 
ATOM      4  C   UNL     1       0.842  45.309  56.766  1.00  0.00     0.026 A 
ATOM      5  C   UNL     1       1.525  44.976  55.594  1.00  0.00     0.042 A 
ATOM      6  C   UNL     1       0.765  44.514  54.504  1.00  0.00     0.036 A 
ENDROOT
BRANCH   1   7
ATOM      7  C   UNL     1      -1.417  43.877  53.367  1.00  0.00     0.072 C 
ATOM      8  O   UNL     1      -2.020  44.746  52.661  1.00  0.00    -0.545 OA
ATOM      9  O   UNL     1      -1.413  42.622  53.159  1.00  0.00    -0.545 OA
ENDBRANCH   1   7
BRANCH   5  10
ATOM     10  N   UNL     1       2.913  45.082  55.436  1.00  0.00    -0.324 N 
ATOM     11  H   UNL     1       3.423  45.351  56.264  1.00  0.00     0.170 HD
BRANCH  10  12
ATOM     12  C   UNL     1       3.786  44.895  54.374  1.00  0.00     0.228 A 
ATOM     13  N   UNL     1       4.880  45.644  54.213  1.00  0.00    -0.212 NA
ATOM     14  N   UNL     1       3.445  43.915  53.522  1.00  0.00    -0.213 NA
ATOM     15  C   UNL     1       5.674  45.400  53.150  1.00  0.00     0.084 A 
ATOM     16  C   UNL     1       4.221  43.687  52.460  1.00  0.00     0.077 A 
ATOM     17  C   UNL     1       5.384  44.415  52.198  1.00  0.00     0.028 A 
ATOM     18  C   UNL     1       3.850  42.680  51.576  1.00  0.00     0.031 A 
ATOM     19  C   UNL     1       6.141  44.131  51.029  1.00  0.00     0.033 A 
ATOM     20  C   UNL     1       4.598  42.386  50.432  1.00  0.00     0.023 A 
ATOM     21  C   UNL     1       5.744  43.120  50.161  1.00  0.00     0.041 A 
ATOM     22  Cl  UNL     1       6.670  42.779  48.754  1.00  0.00    -0.084 Cl
BRANCH  15  23
ATOM     23  C   UNL     1       6.859  46.271  53.092  1.00  0.00     0.001 A 
ATOM     24  C   UNL     1       6.881  47.431  52.297  1.00  0.00     0.010 A 
ATOM     25  C   UNL     1       8.018  45.944  53.816  1.00  0.00     0.010 A 
ATOM     26  C   UNL     1       8.012  48.249  52.250  1.00  0.00     0.001 A 
ATOM     27  C   UNL     1       9.150  46.761  53.770  1.00  0.00     0.001 A 
ATOM     28  C   UNL     1       9.144  47.916  52.990  1.00  0.00     0.000 A 
ENDBRANCH  15  23
ENDBRANCH  10  12
ENDBRANCH   5  10
TORSDOF 4
ENDMDL
MODEL 7
REMARK VINA RESULT:    -9.290      2.290      4.584
REMARK INTER + INTRA:         -12.146
REMARK INTER:                 -12.219
REMARK INTRA:                   0.073
REMARK UNBOUND:                -0.684
REMARK SMILES O=C([O-])c1cccc(Nc2nc(-c3ccccc3)c3cc(Cl)ccc3n2)c1
REMARK SMILES IDX 4 1 5 2 6 3 7 4 8 5 27 6 2 7 1 8 3 9 9 10 10 12 11 13 26 14
REMARK SMILES IDX 12 15 25 16 19 17 24 18 20 19 23 20 21 21 22 22 13 23 14 24
REMARK SMILES IDX 18 25 15 26 17 27 16 28
REMARK H PARENT 9 11
ROOT
ATOM      1  C   UNL     1       9.246  46.387  52.658  1.00  0.00    -0.001 A 
ATOM      2  C   UNL     1      10.066  47.167  53.483  1.00  0.00     0.010 A 
ATOM      3  C   UNL     1       9.549  47.773  54.626  1.00  0.00     0.003 A 
ATOM      4  C   UNL     1       8.202  47.608  54.963  1.00  0.00     0.026 A 
ATOM      5  C   UNL     1       7.349  46.839  54.166  1.00  0.00     0.042 A 
ATOM      6  C   UNL     1       7.894  46.237  53.018  1.00  0.00     0.036 A 
ENDROOT
BRANCH   1   7
ATOM      7  C   UNL     1       9.795  45.721  51.412  1.00  0.00     0.072 C 
ATOM      8  O   UNL     1       8.952  45.310  50.553  1.00  0.00    -0.545 OA
ATOM      9  O   UNL     1      11.060  45.620  51.320  1.00  0.00    -0.545 OA
ENDBRANCH   1   7
BRANCH   5  10
ATOM     10  N   UNL     1       5.993  46.626  54.446  1.00  0.00    -0.324 N 
ATOM     11  H   UNL     1       5.589  47.250  55.129  1.00  0.00     0.170 HD
BRANCH  10  12
ATOM     12  C   UNL     1       5.035  45.733  53.986  1.00  0.00     0.228 A 
ATOM     13  N   UNL     1       5.270  44.905  52.965  1.00  0.00    -0.212 NA
ATOM     14  N   UNL     1       3.862  45.771  54.637  1.00  0.00    -0.213 NA
ATOM     15  C   UNL     1       4.283  44.071  52.576  1.00  0.00     0.084 A 
ATOM     16  C   UNL     1       2.880  44.958  54.239  1.00  0.00     0.077 A 
ATOM     17  C   UNL     1       3.020  44.058  53.180  1.00  0.00     0.028 A 
ATOM     18  C   UNL     1       1.664  45.017  54.910  1.00  0.00     0.031 A 
ATOM     19  C   UNL     1       1.917  43.247  52.798  1.00  0.00     0.033 A 
ATOM     20  C   UNL     1       0.579  44.211  54.548  1.00  0.00     0.023 A 
ATOM     21  C   UNL     1       0.711  43.328  53.486  1.00  0.00     0.041 A 
ATOM     22  Cl  UNL     1      -0.614  42.338  53.021  1.00  0.00    -0.084 Cl
BRANCH  15  23
ATOM     23  C   UNL     1       4.667  43.191  51.459  1.00  0.00     0.001 A 
ATOM     24  C   UNL     1       3.993  41.982  51.212  1.00  0.00     0.010 A 
ATOM     25  C   UNL     1       5.744  43.531  50.625  1.00  0.00     0.010 A 
ATOM     26  C   UNL     1       4.368  41.155  50.149  1.00  0.00     0.001 A 
ATOM     27  C   UNL     1       6.120  42.705  49.562  1.00  0.00     0.001 A 
ATOM     28  C   UNL     1       5.428  41.520  49.323  1.00  0.00     0.000 A 
ENDBRANCH  15  23
ENDBRANCH  10  12
ENDBRANCH   5  10
TORSDOF 4
ENDMDL
MODEL 8
REMARK VINA RESULT:    -9.249      4.943      7.704
REMARK INTER + INTRA:         -12.096
REMARK INTER:                 -11.383
REMARK INTRA:                  -0.713
REMARK UNBOUND:                -0.684
REMARK SMILES O=C([O-])c1cccc(Nc2nc(-c3ccccc3)c3cc(Cl)ccc3n2)c1
REMARK SMILES IDX 4 1 5 2 6 3 7 4 8 5 27 6 2 7 1 8 3 9 9 10 10 12 11 13 26 14
REMARK SMILES IDX 12 15 25 16 19 17 24 18 20 19 23 20 21 21 22 22 13 23 14 24
REMARK SMILES IDX 18 25 15 26 17 27 16 28
REMARK H PARENT 9 11
ROOT
ATOM      1  C   UNL     1       4.600  41.006  46.180  1.00  0.00    -0.001 A 
ATOM      2  C   UNL     1       3.747  40.307  47.044  1.00  0.00     0.010 A 
ATOM      3  C   UNL     1       3.892  40.419  48.426  1.00  0.00     0.003 A 
ATOM      4  C   UNL     1       4.892  41.234  48.966  1.00  0.00     0.026 A 
ATOM      5  C   UNL     1       5.764  41.948  48.139  1.00  0.00     0.042 A 
ATOM      6  C   UNL     1       5.598  41.819  46.748  1.00  0.00     0.036 A 
ENDROOT
BRANCH   1   7
ATOM      7  C   UNL     1       4.453  40.895  44.676  1.00  0.00     0.072 C 
ATOM      8  O   UNL     1       3.362  40.418  44.232  1.00  0.00    -0.545 OA
ATOM      9  O   UNL     1       5.435  41.287  43.969  1.00  0.00    -0.545 OA
ENDBRANCH   1   7
BRANCH   5  10
ATOM     10  N   UNL     1       6.783  42.787  48.610  1.00  0.00    -0.324 N 
ATOM     11  H   UNL     1       7.660  42.720  48.115  1.00  0.00     0.170 HD
BRANCH  10  12
ATOM     12  C   UNL     1       6.875  43.725  49.628  1.00  0.00     0.228 A 
ATOM     13  N   UNL     1       5.808  44.117  50.330  1.00  0.00    -0.212 NA
ATOM     14  N   UNL     1       8.107  44.209  49.846  1.00  0.00    -0.213 NA
ATOM     15  C   UNL     1       5.983  45.039  51.300  1.00  0.00     0.084 A 
ATOM     16  C   UNL     1       8.275  45.134  50.794  1.00  0.00     0.077 A 
ATOM     17  C   UNL     1       7.227  45.617  51.581  1.00  0.00     0.028 A 
ATOM     18  C   UNL     1       9.553  45.641  51.001  1.00  0.00     0.031 A 
ATOM     19  C   UNL     1       7.482  46.625  52.550  1.00  0.00     0.033 A 
ATOM     20  C   UNL     1       9.814  46.623  51.962  1.00  0.00     0.023 A 
ATOM     21  C   UNL     1       8.771  47.115  52.734  1.00  0.00     0.041 A 
ATOM     22  Cl  UNL     1       9.071  48.328  53.912  1.00  0.00    -0.084 Cl
BRANCH  15  23
ATOM     23  C   UNL     1       4.742  45.374  52.019  1.00  0.00     0.001 A 
ATOM     24  C   UNL     1       4.323  44.639  53.142  1.00  0.00     0.010 A 
ATOM     25  C   UNL     1       3.926  46.427  51.575  1.00  0.00     0.010 A 
ATOM     26  C   UNL     1       3.143  44.966  53.815  1.00  0.00     0.001 A 
ATOM     27  C   UNL     1       2.745  46.755  52.246  1.00  0.00     0.001 A 
ATOM     28  C   UNL     1       2.358  46.027  53.369  1.00  0.00     0.000 A 
ENDBRANCH  15  23
ENDBRANCH  10  12
ENDBRANCH   5  10
TORSDOF 4
ENDMDL
MODEL 9
REMARK VINA RESULT:    -8.973      4.927      8.077
REMARK INTER + INTRA:         -11.756
REMARK INTER:                 -11.405
REMARK INTRA:                  -0.351
REMARK UNBOUND:                -0.684
REMARK SMILES O=C([O-])c1cccc(Nc2nc(-c3ccccc3)c3cc(Cl)ccc3n2)c1
REMARK SMILES IDX 4 1 5 2 6 3 7 4 8 5 27 6 2 7 1 8 3 9 9 10 10 12 11 13 26 14
REMARK SMILES IDX 12 15 25 16 19 17 24 18 20 19 23 20 21 21 22 22 13 23 14 24
REMARK SMILES IDX 18 25 15 26 17 27 16 28
REMARK H PARENT 9 11
ROOT
ATOM      1  C   UNL     1       3.598  40.161  46.552  1.00  0.00    -0.001 A 
ATOM      2  C   UNL     1       4.237  40.811  45.488  1.00  0.00     0.010 A 
ATOM      3  C   UNL     1       5.280  41.703  45.727  1.00  0.00     0.003 A 
ATOM      4  C   UNL     1       5.703  41.959  47.035  1.00  0.00     0.026 A 
ATOM      5  C   UNL     1       5.093  41.332  48.125  1.00  0.00     0.042 A 
ATOM      6  C   UNL     1       4.042  40.436  47.859  1.00  0.00     0.036 A 
ENDROOT
BRANCH   1   7
ATOM      7  C   UNL     1       2.463  39.188  46.308  1.00  0.00     0.072 C 
ATOM      8  O   UNL     1       1.407  39.649  45.769  1.00  0.00    -0.545 OA
ATOM      9  O   UNL     1       2.650  37.980  46.662  1.00  0.00    -0.545 OA
ENDBRANCH   1   7
BRANCH   5  10
ATOM     10  N   UNL     1       5.468  41.536  49.460  1.00  0.00    -0.324 N 
ATOM     11  H   UNL     1       6.202  40.933  49.799  1.00  0.00     0.170 HD
BRANCH  10  12
ATOM     12  C   UNL     1       5.058  42.405  50.461  1.00  0.00     0.228 A 
ATOM     13  N   UNL     1       5.835  43.399  50.900  1.00  0.00    -0.212 NA
ATOM     14  N   UNL     1       3.834  42.167  50.957  1.00  0.00    -0.213 NA
ATOM     15  C   UNL     1       5.364  44.195  51.882  1.00  0.00     0.084 A 
ATOM     16  C   UNL     1       3.376  42.945  51.940  1.00  0.00     0.077 A 
ATOM     17  C   UNL     1       4.110  44.006  52.474  1.00  0.00     0.028 A 
ATOM     18  C   UNL     1       2.114  42.679  52.457  1.00  0.00     0.031 A 
ATOM     19  C   UNL     1       3.565  44.770  53.542  1.00  0.00     0.033 A 
ATOM     20  C   UNL     1       1.565  43.435  53.498  1.00  0.00     0.023 A 
ATOM     21  C   UNL     1       2.299  44.480  54.040  1.00  0.00     0.041 A 
ATOM     22  Cl  UNL     1       1.646  45.413  55.327  1.00  0.00    -0.084 Cl
BRANCH  15  23
ATOM     23  C   UNL     1       6.299  45.267  52.264  1.00  0.00     0.001 A 
ATOM     24  C   UNL     1       7.010  46.001  51.298  1.00  0.00     0.010 A 
ATOM     25  C   UNL     1       6.525  45.563  53.619  1.00  0.00     0.010 A 
ATOM     26  C   UNL     1       7.895  47.015  51.674  1.00  0.00     0.001 A 
ATOM     27  C   UNL     1       7.410  46.576  53.996  1.00  0.00     0.001 A 
ATOM     28  C   UNL     1       8.090  47.304  53.023  1.00  0.00     0.000 A 
ENDBRANCH  15  23
ENDBRANCH  10  12
ENDBRANCH   5  10
TORSDOF 4
ENDMDL
MODEL 10
REMARK VINA RESULT:    -8.785      3.825      7.738
REMARK INTER + INTRA:         -11.524
REMARK INTER:                 -10.881
REMARK INTRA:                  -0.643
REMARK UNBOUND:                -0.684
REMARK SMILES O=C([O-])c1cccc(Nc2nc(-c3ccccc3)c3cc(Cl)ccc3n2)c1
REMARK SMILES IDX 4 1 5 2 6 3 7 4 8 5 27 6 2 7 1 8 3 9 9 10 10 12 11 13 26 14
REMARK SMILES IDX 12 15 25 16 19 17 24 18 20 19 23 20 21 21 22 22 13 23 14 24
REMARK SMILES IDX 18 25 15 26 17 27 16 28
REMARK H PARENT 9 11
ROOT
ATOM      1  C   UNL     1      -1.820  44.225  55.069  1.00  0.00    -0.001 A 
ATOM      2  C   UNL     1      -2.807  44.145  54.077  1.00  0.00     0.010 A 
ATOM      3  C   UNL     1      -2.543  44.577  52.779  1.00  0.00     0.003 A 
ATOM      4  C   UNL     1      -1.286  45.096  52.451  1.00  0.00     0.026 A 
ATOM      5  C   UNL     1      -0.274  45.194  53.410  1.00  0.00     0.042 A 
ATOM      6  C   UNL     1      -0.564  44.751  54.713  1.00  0.00     0.036 A 
ENDROOT
BRANCH   1   7
ATOM      7  C   UNL     1      -2.092  43.757  56.484  1.00  0.00     0.072 C 
ATOM      8  O   UNL     1      -1.660  44.488  57.431  1.00  0.00    -0.545 OA
ATOM      9  O   UNL     1      -2.733  42.667  56.619  1.00  0.00    -0.545 OA
ENDBRANCH   1   7
BRANCH   5  10
ATOM     10  N   UNL     1       1.008  45.697  53.151  1.00  0.00    -0.324 N 
ATOM     11  H   UNL     1       1.130  46.682  53.333  1.00  0.00     0.170 HD
BRANCH  10  12
ATOM     12  C   UNL     1       2.194  45.141  52.693  1.00  0.00     0.228 A 
ATOM     13  N   UNL     1       3.373  45.743  52.866  1.00  0.00    -0.212 NA
ATOM     14  N   UNL     1       2.064  43.965  52.059  1.00  0.00    -0.213 NA
ATOM     15  C   UNL     1       4.479  45.138  52.384  1.00  0.00     0.084 A 
ATOM     16  C   UNL     1       3.156  43.377  51.567  1.00  0.00     0.077 A 
ATOM     17  C   UNL     1       4.436  43.924  51.690  1.00  0.00     0.028 A 
ATOM     18  C   UNL     1       3.009  42.167  50.898  1.00  0.00     0.031 A 
ATOM     19  C   UNL     1       5.546  43.250  51.111  1.00  0.00     0.033 A 
ATOM     20  C   UNL     1       4.098  41.491  50.339  1.00  0.00     0.023 A 
ATOM     21  C   UNL     1       5.368  42.042  50.446  1.00  0.00     0.041 A 
ATOM     22  Cl  UNL     1       6.717  41.231  49.757  1.00  0.00    -0.084 Cl
BRANCH  15  23
ATOM     23  C   UNL     1       5.719  45.884  52.657  1.00  0.00     0.001 A 
ATOM     24  C   UNL     1       6.496  46.423  51.616  1.00  0.00     0.010 A 
ATOM     25  C   UNL     1       6.174  46.048  53.976  1.00  0.00     0.010 A 
ATOM     26  C   UNL     1       7.671  47.127  51.888  1.00  0.00     0.001 A 
ATOM     27  C   UNL     1       7.350  46.752  54.249  1.00  0.00     0.001 A 
ATOM     28  C   UNL     1       8.095  47.295  53.204  1.00  0.00     0.000 A 
ENDBRANCH  15  23
ENDBRANCH  10  12
ENDBRANCH   5  10
TORSDOF 4
ENDMDL
