MODEL 1
REMARK VINA RESULT:   -10.546      0.000      0.000
REMARK INTER + INTRA:         -13.276
REMARK INTER:                 -13.012
REMARK INTRA:                  -0.265
REMARK UNBOUND:                -0.265
REMARK SMILES O=C([O-])c1ccc(Nc2nc(-c3ccccc3)c3ccccc3n2)cc1
REMARK SMILES IDX 4 1 5 2 6 3 7 4 25 5 26 6 2 7 1 8 3 9 8 10 9 12 10 13 24 14
REMARK SMILES IDX 11 15 23 16 18 17 22 18 19 19 21 20 20 21 12 22 13 23 17 24
REMARK SMILES IDX 14 25 16 26 15 27
REMARK H PARENT 8 11
ROOT
ATOM      1  C   UNL     1       0.541  44.443  54.045  1.00  0.00    -0.003 A 
ATOM      2  C   UNL     1       0.740  45.213  52.892  1.00  0.00     0.012 A 
ATOM      3  C   UNL     1       1.855  46.056  52.763  1.00  0.00     0.027 A 
ATOM      4  C   UNL     1       2.807  46.157  53.780  1.00  0.00     0.041 A 
ATOM      5  C   UNL     1       2.605  45.384  54.936  1.00  0.00     0.027 A 
ATOM      6  C   UNL     1       1.493  44.542  55.067  1.00  0.00     0.012 A 
ENDROOT
BRANCH   1   7
ATOM      7  C   UNL     1      -0.664  43.531  54.183  1.00  0.00     0.071 C 
ATOM      8  O   UNL     1      -0.513  42.315  53.840  1.00  0.00    -0.545 OA
ATOM      9  O   UNL     1      -1.735  44.048  54.632  1.00  0.00    -0.545 OA
ENDBRANCH   1   7
BRANCH   4  10
ATOM     10  N   UNL     1       3.941  46.975  53.717  1.00  0.00    -0.324 N 
ATOM     11  H   UNL     1       3.803  47.948  53.947  1.00  0.00     0.170 HD
BRANCH  10  12
ATOM     12  C   UNL     1       5.276  46.762  53.395  1.00  0.00     0.228 A 
ATOM     13  N   UNL     1       5.478  45.956  52.344  1.00  0.00    -0.212 NA
ATOM     14  N   UNL     1       6.274  47.322  54.086  1.00  0.00    -0.213 NA
ATOM     15  C   UNL     1       6.754  45.701  51.981  1.00  0.00     0.084 A 
ATOM     16  C   UNL     1       7.533  47.079  53.715  1.00  0.00     0.076 A 
ATOM     17  C   UNL     1       7.860  46.257  52.636  1.00  0.00     0.027 A 
ATOM     18  C   UNL     1       8.563  47.676  54.433  1.00  0.00     0.029 A 
ATOM     19  C   UNL     1       9.226  46.066  52.289  1.00  0.00     0.012 A 
ATOM     20  C   UNL     1       9.907  47.483  54.101  1.00  0.00     0.002 A 
ATOM     21  C   UNL     1      10.240  46.676  53.022  1.00  0.00     0.001 A 
BRANCH  15  22
ATOM     22  C   UNL     1       6.867  44.785  50.834  1.00  0.00     0.001 A 
ATOM     23  C   UNL     1       5.915  43.772  50.635  1.00  0.00     0.010 A 
ATOM     24  C   UNL     1       7.935  44.882  49.925  1.00  0.00     0.010 A 
ATOM     25  C   UNL     1       6.013  42.899  49.549  1.00  0.00     0.001 A 
ATOM     26  C   UNL     1       8.033  44.009  48.840  1.00  0.00     0.001 A 
ATOM     27  C   UNL     1       7.070  43.021  48.650  1.00  0.00     0.000 A 
ENDBRANCH  15  22
ENDBRANCH  10  12
ENDBRANCH   4  10
TORSDOF 4
ENDMDL
MODEL 2
REMARK VINA RESULT:    -9.566      3.545      6.312
REMARK INTER + INTRA:         -12.068
REMARK INTER:                 -11.420
REMARK INTRA:                  -0.647
REMARK UNBOUND:                -0.265
REMARK SMILES O=C([O-])c1ccc(Nc2nc(-c3ccccc3)c3ccccc3n2)cc1
REMARK SMILES IDX 4 1 5 2 6 3 7 4 25 5 26 6 2 7 1 8 3 9 8 10 9 12 10 13 24 14
REMARK SMILES IDX 11 15 23 16 18 17 22 18 19 19 21 20 20 21 12 22 13 23 17 24
REMARK SMILES IDX 14 25 16 26 15 27
REMARK H PARENT 8 11
ROOT
ATOM      1  C   UNL     1       3.830  40.460  46.934  1.00  0.00    -0.003 A 
ATOM      2  C   UNL     1       3.982  40.460  48.326  1.00  0.00     0.012 A 
ATOM      3  C   UNL     1       4.997  41.205  48.947  1.00  0.00     0.027 A 
ATOM      4  C   UNL     1       5.891  41.975  48.199  1.00  0.00     0.041 A 
ATOM      5  C   UNL     1       5.735  41.973  46.803  1.00  0.00     0.027 A 
ATOM      6  C   UNL     1       4.724  41.230  46.181  1.00  0.00     0.012 A 
ENDROOT
BRANCH   1   7
ATOM      7  C   UNL     1       2.733  39.655  46.263  1.00  0.00     0.071 C 
ATOM      8  O   UNL     1       2.430  39.971  45.068  1.00  0.00    -0.545 OA
ATOM      9  O   UNL     1       2.196  38.725  46.943  1.00  0.00    -0.545 OA
ENDBRANCH   1   7
BRANCH   4  10
ATOM     10  N   UNL     1       6.923  42.741  48.753  1.00  0.00    -0.324 N 
ATOM     11  H   UNL     1       7.858  42.515  48.452  1.00  0.00     0.170 HD
BRANCH  10  12
ATOM     12  C   UNL     1       6.972  43.788  49.667  1.00  0.00     0.228 A 
ATOM     13  N   UNL     1       5.823  44.026  50.312  1.00  0.00    -0.212 NA
ATOM     14  N   UNL     1       8.086  44.497  49.878  1.00  0.00    -0.213 NA
ATOM     15  C   UNL     1       5.800  45.035  51.209  1.00  0.00     0.084 A 
ATOM     16  C   UNL     1       8.064  45.484  50.776  1.00  0.00     0.076 A 
ATOM     17  C   UNL     1       6.922  45.818  51.506  1.00  0.00     0.027 A 
ATOM     18  C   UNL     1       9.230  46.207  50.997  1.00  0.00     0.029 A 
ATOM     19  C   UNL     1       6.985  46.868  52.462  1.00  0.00     0.012 A 
ATOM     20  C   UNL     1       9.293  47.247  51.929  1.00  0.00     0.002 A 
ATOM     21  C   UNL     1       8.166  47.577  52.667  1.00  0.00     0.001 A 
BRANCH  15  22
ATOM     22  C   UNL     1       4.485  45.230  51.841  1.00  0.00     0.001 A 
ATOM     23  C   UNL     1       4.063  44.386  52.881  1.00  0.00     0.010 A 
ATOM     24  C   UNL     1       3.612  46.244  51.411  1.00  0.00     0.010 A 
ATOM     25  C   UNL     1       2.818  44.564  53.489  1.00  0.00     0.001 A 
ATOM     26  C   UNL     1       2.366  46.421  52.018  1.00  0.00     0.001 A 
ATOM     27  C   UNL     1       1.972  45.583  53.058  1.00  0.00     0.000 A 
ENDBRANCH  15  22
ENDBRANCH  10  12
ENDBRANCH   4  10
TORSDOF 4
ENDMDL
MODEL 3
REMARK VINA RESULT:    -9.550      3.857      7.628
REMARK INTER + INTRA:         -12.048
REMARK INTER:                 -11.427
REMARK INTRA:                  -0.621
REMARK UNBOUND:                -0.265
REMARK SMILES O=C([O-])c1ccc(Nc2nc(-c3ccccc3)c3ccccc3n2)cc1
REMARK SMILES IDX 4 1 5 2 6 3 7 4 25 5 26 6 2 7 1 8 3 9 8 10 9 12 10 13 24 14
REMARK SMILES IDX 11 15 23 16 18 17 22 18 19 19 21 20 20 21 12 22 13 23 17 24
REMARK SMILES IDX 14 25 16 26 15 27
REMARK H PARENT 8 11
ROOT
ATOM      1  C   UNL     1       9.500  47.274  54.503  1.00  0.00    -0.003 A 
ATOM      2  C   UNL     1      10.165  46.882  53.334  1.00  0.00     0.012 A 
ATOM      3  C   UNL     1       9.455  46.428  52.211  1.00  0.00     0.027 A 
ATOM      4  C   UNL     1       8.060  46.353  52.218  1.00  0.00     0.041 A 
ATOM      5  C   UNL     1       7.396  46.746  53.392  1.00  0.00     0.027 A 
ATOM      6  C   UNL     1       8.102  47.199  54.515  1.00  0.00     0.012 A 
ENDROOT
BRANCH   1   7
ATOM      7  C   UNL     1      10.268  47.764  55.716  1.00  0.00     0.071 C 
ATOM      8  O   UNL     1       9.754  48.722  56.379  1.00  0.00    -0.545 OA
ATOM      9  O   UNL     1      11.367  47.184  55.983  1.00  0.00    -0.545 OA
ENDBRANCH   1   7
BRANCH   4  10
ATOM     10  N   UNL     1       7.291  45.912  51.135  1.00  0.00    -0.324 N 
ATOM     11  H   UNL     1       7.425  46.402  50.264  1.00  0.00     0.170 HD
BRANCH  10  12
ATOM     12  C   UNL     1       6.337  44.915  50.963  1.00  0.00     0.228 A 
ATOM     13  N   UNL     1       5.181  45.128  51.604  1.00  0.00    -0.212 NA
ATOM     14  N   UNL     1       6.566  43.832  50.214  1.00  0.00    -0.213 NA
ATOM     15  C   UNL     1       4.212  44.194  51.485  1.00  0.00     0.084 A 
ATOM     16  C   UNL     1       5.601  42.918  50.086  1.00  0.00     0.076 A 
ATOM     17  C   UNL     1       4.358  43.037  50.708  1.00  0.00     0.027 A 
ATOM     18  C   UNL     1       5.845  41.801  49.295  1.00  0.00     0.029 A 
ATOM     19  C   UNL     1       3.373  42.032  50.505  1.00  0.00     0.012 A 
ATOM     20  C   UNL     1       4.883  40.806  49.101  1.00  0.00     0.002 A 
ATOM     21  C   UNL     1       3.640  40.923  49.706  1.00  0.00     0.001 A 
BRANCH  15  22
ATOM     22  C   UNL     1       2.994  44.509  52.248  1.00  0.00     0.001 A 
ATOM     23  C   UNL     1       1.869  45.049  51.604  1.00  0.00     0.010 A 
ATOM     24  C   UNL     1       2.929  44.302  53.637  1.00  0.00     0.010 A 
ATOM     25  C   UNL     1       0.708  45.351  52.319  1.00  0.00     0.001 A 
ATOM     26  C   UNL     1       1.768  44.604  54.352  1.00  0.00     0.001 A 
ATOM     27  C   UNL     1       0.657  45.125  53.692  1.00  0.00     0.000 A 
ENDBRANCH  15  22
ENDBRANCH  10  12
ENDBRANCH   4  10
TORSDOF 4
ENDMDL
MODEL 4
REMARK VINA RESULT:    -9.447      1.923      4.381
REMARK INTER + INTRA:         -11.921
REMARK INTER:                 -11.564
REMARK INTRA:                  -0.357
REMARK UNBOUND:                -0.265
REMARK SMILES O=C([O-])c1ccc(Nc2nc(-c3ccccc3)c3ccccc3n2)cc1
REMARK SMILES IDX 4 1 5 2 6 3 7 4 25 5 26 6 2 7 1 8 3 9 8 10 9 12 10 13 24 14
REMARK SMILES IDX 11 15 23 16 18 17 22 18 19 19 21 20 20 21 12 22 13 23 17 24
REMARK SMILES IDX 14 25 16 26 15 27
REMARK H PARENT 8 11
ROOT
ATOM      1  C   UNL     1      -1.220  44.355  56.175  1.00  0.00    -0.003 A 
ATOM      2  C   UNL     1      -1.129  44.200  54.786  1.00  0.00     0.012 A 
ATOM      3  C   UNL     1       0.018  44.601  54.083  1.00  0.00     0.027 A 
ATOM      4  C   UNL     1       1.111  45.167  54.744  1.00  0.00     0.041 A 
ATOM      5  C   UNL     1       1.017  45.321  56.137  1.00  0.00     0.027 A 
ATOM      6  C   UNL     1      -0.127  44.923  56.841  1.00  0.00     0.012 A 
ENDROOT
BRANCH   1   7
ATOM      7  C   UNL     1      -2.460  43.921  56.934  1.00  0.00     0.071 C 
ATOM      8  O   UNL     1      -2.759  44.581  57.981  1.00  0.00    -0.545 OA
ATOM      9  O   UNL     1      -3.109  42.931  56.471  1.00  0.00    -0.545 OA
ENDBRANCH   1   7
BRANCH   4  10
ATOM     10  N   UNL     1       2.284  45.587  54.106  1.00  0.00    -0.324 N 
ATOM     11  H   UNL     1       2.563  46.543  54.267  1.00  0.00     0.170 HD
BRANCH  10  12
ATOM     12  C   UNL     1       3.201  44.975  53.259  1.00  0.00     0.228 A 
ATOM     13  N   UNL     1       4.403  45.564  53.212  1.00  0.00    -0.212 NA
ATOM     14  N   UNL     1       2.897  43.883  52.549  1.00  0.00    -0.213 NA
ATOM     15  C   UNL     1       5.340  45.024  52.403  1.00  0.00     0.084 A 
ATOM     16  C   UNL     1       3.829  43.344  51.761  1.00  0.00     0.076 A 
ATOM     17  C   UNL     1       5.115  43.873  51.637  1.00  0.00     0.027 A 
ATOM     18  C   UNL     1       3.507  42.202  51.037  1.00  0.00     0.029 A 
ATOM     19  C   UNL     1       6.060  43.226  50.795  1.00  0.00     0.012 A 
ATOM     20  C   UNL     1       4.430  41.569  50.201  1.00  0.00     0.002 A 
ATOM     21  C   UNL     1       5.714  42.082  50.080  1.00  0.00     0.001 A 
BRANCH  15  22
ATOM     22  C   UNL     1       6.614  45.760  52.404  1.00  0.00     0.001 A 
ATOM     23  C   UNL     1       7.249  46.082  53.614  1.00  0.00     0.010 A 
ATOM     24  C   UNL     1       7.215  46.180  51.205  1.00  0.00     0.010 A 
ATOM     25  C   UNL     1       8.460  46.780  53.626  1.00  0.00     0.001 A 
ATOM     26  C   UNL     1       8.425  46.878  51.217  1.00  0.00     0.001 A 
ATOM     27  C   UNL     1       9.048  47.174  52.427  1.00  0.00     0.000 A 
ENDBRANCH  15  22
ENDBRANCH  10  12
ENDBRANCH   4  10
TORSDOF 4
ENDMDL
MODEL 5
REMARK VINA RESULT:    -9.446      3.514      6.255
REMARK INTER + INTRA:         -11.920
REMARK INTER:                 -11.336
REMARK INTRA:                  -0.584
REMARK UNBOUND:                -0.265
REMARK SMILES O=C([O-])c1ccc(Nc2nc(-c3ccccc3)c3ccccc3n2)cc1
REMARK SMILES IDX 4 1 5 2 6 3 7 4 25 5 26 6 2 7 1 8 3 9 8 10 9 12 10 13 24 14
REMARK SMILES IDX 11 15 23 16 18 17 22 18 19 19 21 20 20 21 12 22 13 23 17 24
REMARK SMILES IDX 14 25 16 26 15 27
REMARK H PARENT 8 11
ROOT
ATOM      1  C   UNL     1       3.811  40.446  47.020  1.00  0.00    -0.003 A 
ATOM      2  C   UNL     1       4.664  41.198  46.202  1.00  0.00     0.012 A 
ATOM      3  C   UNL     1       5.715  41.953  46.745  1.00  0.00     0.027 A 
ATOM      4  C   UNL     1       5.949  41.982  48.122  1.00  0.00     0.041 A 
ATOM      5  C   UNL     1       5.092  41.227  48.940  1.00  0.00     0.027 A 
ATOM      6  C   UNL     1       4.042  40.473  48.401  1.00  0.00     0.012 A 
ENDROOT
BRANCH   1   7
ATOM      7  C   UNL     1       2.676  39.630  46.432  1.00  0.00     0.071 C 
ATOM      8  O   UNL     1       2.165  40.047  45.343  1.00  0.00    -0.545 OA
ATOM      9  O   UNL     1       2.316  38.591  47.070  1.00  0.00    -0.545 OA
ENDBRANCH   1   7
BRANCH   4  10
ATOM     10  N   UNL     1       6.978  42.711  48.730  1.00  0.00    -0.324 N 
ATOM     11  H   UNL     1       7.919  42.439  48.490  1.00  0.00     0.170 HD
BRANCH  10  12
ATOM     12  C   UNL     1       7.017  43.768  49.631  1.00  0.00     0.228 A 
ATOM     13  N   UNL     1       5.868  43.999  50.278  1.00  0.00    -0.212 NA
ATOM     14  N   UNL     1       8.123  44.494  49.830  1.00  0.00    -0.213 NA
ATOM     15  C   UNL     1       5.835  45.018  51.164  1.00  0.00     0.084 A 
ATOM     16  C   UNL     1       8.091  45.491  50.717  1.00  0.00     0.076 A 
ATOM     17  C   UNL     1       6.948  45.819  51.448  1.00  0.00     0.027 A 
ATOM     18  C   UNL     1       9.249  46.232  50.925  1.00  0.00     0.029 A 
ATOM     19  C   UNL     1       7.001  46.880  52.392  1.00  0.00     0.012 A 
ATOM     20  C   UNL     1       9.302  47.282  51.845  1.00  0.00     0.002 A 
ATOM     21  C   UNL     1       8.173  47.607  52.584  1.00  0.00     0.001 A 
BRANCH  15  22
ATOM     22  C   UNL     1       4.520  45.203  51.799  1.00  0.00     0.001 A 
ATOM     23  C   UNL     1       3.664  46.233  51.377  1.00  0.00     0.010 A 
ATOM     24  C   UNL     1       4.096  44.375  52.853  1.00  0.00     0.010 A 
ATOM     25  C   UNL     1       2.413  46.416  51.972  1.00  0.00     0.001 A 
ATOM     26  C   UNL     1       2.846  44.559  53.449  1.00  0.00     0.001 A 
ATOM     27  C   UNL     1       2.004  45.576  53.006  1.00  0.00     0.000 A 
ENDBRANCH  15  22
ENDBRANCH  10  12
ENDBRANCH   4  10
TORSDOF 4
ENDMDL
MODEL 6
REMARK VINA RESULT:    -9.323      1.616      2.394
REMARK INTER + INTRA:         -11.768
REMARK INTER:                 -11.978
REMARK INTRA:                   0.210
REMARK UNBOUND:                -0.265
REMARK SMILES O=C([O-])c1ccc(Nc2nc(-c3ccccc3)c3ccccc3n2)cc1
REMARK SMILES IDX 4 1 5 2 6 3 7 4 25 5 26 6 2 7 1 8 3 9 8 10 9 12 10 13 24 14
REMARK SMILES IDX 11 15 23 16 18 17 22 18 19 19 21 20 20 21 12 22 13 23 17 24
REMARK SMILES IDX 14 25 16 26 15 27
REMARK H PARENT 8 11
ROOT
ATOM      1  C   UNL     1      -0.751  44.564  55.149  1.00  0.00    -0.003 A 
ATOM      2  C   UNL     1      -0.124  45.204  56.226  1.00  0.00     0.012 A 
ATOM      3  C   UNL     1       1.272  45.334  56.282  1.00  0.00     0.027 A 
ATOM      4  C   UNL     1       2.088  44.831  55.266  1.00  0.00     0.041 A 
ATOM      5  C   UNL     1       1.457  44.190  54.187  1.00  0.00     0.027 A 
ATOM      6  C   UNL     1       0.063  44.058  54.128  1.00  0.00     0.012 A 
ENDROOT
BRANCH   1   7
ATOM      7  C   UNL     1      -2.260  44.424  55.088  1.00  0.00     0.071 C 
ATOM      8  O   UNL     1      -2.949  45.309  55.690  1.00  0.00    -0.545 OA
ATOM      9  O   UNL     1      -2.726  43.435  54.440  1.00  0.00    -0.545 OA
ENDBRANCH   1   7
BRANCH   4  10
ATOM     10  N   UNL     1       3.484  44.927  55.258  1.00  0.00    -0.324 N 
ATOM     11  H   UNL     1       3.944  44.820  56.149  1.00  0.00     0.170 HD
BRANCH  10  12
ATOM     12  C   UNL     1       4.437  45.150  54.271  1.00  0.00     0.228 A 
ATOM     13  N   UNL     1       4.434  44.256  53.275  1.00  0.00    -0.212 NA
ATOM     14  N   UNL     1       5.287  46.181  54.321  1.00  0.00    -0.213 NA
ATOM     15  C   UNL     1       5.340  44.409  52.285  1.00  0.00     0.084 A 
ATOM     16  C   UNL     1       6.172  46.339  53.334  1.00  0.00     0.076 A 
ATOM     17  C   UNL     1       6.256  45.468  52.246  1.00  0.00     0.027 A 
ATOM     18  C   UNL     1       7.043  47.421  53.389  1.00  0.00     0.029 A 
ATOM     19  C   UNL     1       7.210  45.717  51.222  1.00  0.00     0.012 A 
ATOM     20  C   UNL     1       7.988  47.663  52.390  1.00  0.00     0.002 A 
ATOM     21  C   UNL     1       8.071  46.809  51.299  1.00  0.00     0.001 A 
BRANCH  15  22
ATOM     22  C   UNL     1       5.270  43.360  51.255  1.00  0.00     0.001 A 
ATOM     23  C   UNL     1       4.278  42.368  51.315  1.00  0.00     0.010 A 
ATOM     24  C   UNL     1       6.200  43.308  50.203  1.00  0.00     0.010 A 
ATOM     25  C   UNL     1       4.202  41.369  50.341  1.00  0.00     0.001 A 
ATOM     26  C   UNL     1       6.126  42.308  49.230  1.00  0.00     0.001 A 
ATOM     27  C   UNL     1       5.124  41.342  49.298  1.00  0.00     0.000 A 
ENDBRANCH  15  22
ENDBRANCH  10  12
ENDBRANCH   4  10
TORSDOF 4
ENDMDL
MODEL 7
REMARK VINA RESULT:    -9.283      2.575      5.084
REMARK INTER + INTRA:         -11.718
REMARK INTER:                 -11.495
REMARK INTRA:                  -0.224
REMARK UNBOUND:                -0.265
REMARK SMILES O=C([O-])c1ccc(Nc2nc(-c3ccccc3)c3ccccc3n2)cc1
REMARK SMILES IDX 4 1 5 2 6 3 7 4 25 5 26 6 2 7 1 8 3 9 8 10 9 12 10 13 24 14
REMARK SMILES IDX 11 15 23 16 18 17 22 18 19 19 21 20 20 21 12 22 13 23 17 24
REMARK SMILES IDX 14 25 16 26 15 27
REMARK H PARENT 8 11
ROOT
ATOM      1  C   UNL     1       0.244  45.856  56.772  1.00  0.00    -0.003 A 
ATOM      2  C   UNL     1       1.605  45.638  56.525  1.00  0.00     0.012 A 
ATOM      3  C   UNL     1       2.032  44.842  55.451  1.00  0.00     0.027 A 
ATOM      4  C   UNL     1       1.113  44.239  54.587  1.00  0.00     0.041 A 
ATOM      5  C   UNL     1      -0.251  44.459  54.837  1.00  0.00     0.027 A 
ATOM      6  C   UNL     1      -0.680  45.253  55.909  1.00  0.00     0.012 A 
ENDROOT
BRANCH   1   7
ATOM      7  C   UNL     1      -0.217  46.717  57.933  1.00  0.00     0.071 C 
ATOM      8  O   UNL     1       0.683  47.326  58.595  1.00  0.00    -0.545 OA
ATOM      9  O   UNL     1      -1.466  46.767  58.159  1.00  0.00    -0.545 OA
ENDBRANCH   1   7
BRANCH   4  10
ATOM     10  N   UNL     1       1.469  43.435  53.498  1.00  0.00    -0.324 N 
ATOM     11  H   UNL     1       0.772  42.779  53.180  1.00  0.00     0.170 HD
BRANCH  10  12
ATOM     12  C   UNL     1       2.609  43.314  52.712  1.00  0.00     0.228 A 
ATOM     13  N   UNL     1       3.570  44.209  52.975  1.00  0.00    -0.212 NA
ATOM     14  N   UNL     1       2.728  42.374  51.769  1.00  0.00    -0.213 NA
ATOM     15  C   UNL     1       4.704  44.152  52.241  1.00  0.00     0.084 A 
ATOM     16  C   UNL     1       3.855  42.310  51.056  1.00  0.00     0.076 A 
ATOM     17  C   UNL     1       4.921  43.191  51.246  1.00  0.00     0.027 A 
ATOM     18  C   UNL     1       3.973  41.322  50.086  1.00  0.00     0.029 A 
ATOM     19  C   UNL     1       6.098  43.044  50.462  1.00  0.00     0.012 A 
ATOM     20  C   UNL     1       5.124  41.181  49.308  1.00  0.00     0.002 A 
ATOM     21  C   UNL     1       6.194  42.044  49.498  1.00  0.00     0.001 A 
BRANCH  15  22
ATOM     22  C   UNL     1       5.683  45.193  52.590  1.00  0.00     0.001 A 
ATOM     23  C   UNL     1       6.140  46.096  51.617  1.00  0.00     0.010 A 
ATOM     24  C   UNL     1       6.203  45.299  53.892  1.00  0.00     0.010 A 
ATOM     25  C   UNL     1       7.068  47.089  51.939  1.00  0.00     0.001 A 
ATOM     26  C   UNL     1       7.132  46.291  54.213  1.00  0.00     0.001 A 
ATOM     27  C   UNL     1       7.561  47.188  53.238  1.00  0.00     0.000 A 
ENDBRANCH  15  22
ENDBRANCH  10  12
ENDBRANCH   4  10
TORSDOF 4
ENDMDL
MODEL 8
REMARK VINA RESULT:    -9.185      3.492      6.628
REMARK INTER + INTRA:         -11.597
REMARK INTER:                 -11.330
REMARK INTRA:                  -0.267
REMARK UNBOUND:                -0.265
REMARK SMILES O=C([O-])c1ccc(Nc2nc(-c3ccccc3)c3ccccc3n2)cc1
REMARK SMILES IDX 4 1 5 2 6 3 7 4 25 5 26 6 2 7 1 8 3 9 8 10 9 12 10 13 24 14
REMARK SMILES IDX 11 15 23 16 18 17 22 18 19 19 21 20 20 21 12 22 13 23 17 24
REMARK SMILES IDX 14 25 16 26 15 27
REMARK H PARENT 8 11
ROOT
ATOM      1  C   UNL     1       3.955  40.347  47.004  1.00  0.00    -0.003 A 
ATOM      2  C   UNL     1       4.946  41.218  46.532  1.00  0.00     0.012 A 
ATOM      3  C   UNL     1       5.674  42.035  47.410  1.00  0.00     0.027 A 
ATOM      4  C   UNL     1       5.439  42.009  48.787  1.00  0.00     0.041 A 
ATOM      5  C   UNL     1       4.445  41.135  49.258  1.00  0.00     0.027 A 
ATOM      6  C   UNL     1       3.715  40.319  48.384  1.00  0.00     0.012 A 
ENDROOT
BRANCH   1   7
ATOM      7  C   UNL     1       3.168  39.464  46.055  1.00  0.00     0.071 C 
ATOM      8  O   UNL     1       3.551  39.430  44.842  1.00  0.00    -0.545 OA
ATOM      9  O   UNL     1       2.183  38.822  46.540  1.00  0.00    -0.545 OA
ENDBRANCH   1   7
BRANCH   4  10
ATOM     10  N   UNL     1       6.129  42.795  49.718  1.00  0.00    -0.324 N 
ATOM     11  H   UNL     1       7.089  42.541  49.892  1.00  0.00     0.170 HD
BRANCH  10  12
ATOM     12  C   UNL     1       5.792  43.893  50.501  1.00  0.00     0.228 A 
ATOM     13  N   UNL     1       6.828  44.504  51.088  1.00  0.00    -0.212 NA
ATOM     14  N   UNL     1       4.527  44.300  50.651  1.00  0.00    -0.213 NA
ATOM     15  C   UNL     1       6.570  45.575  51.870  1.00  0.00     0.084 A 
ATOM     16  C   UNL     1       4.276  45.367  51.412  1.00  0.00     0.076 A 
ATOM     17  C   UNL     1       5.279  46.081  52.070  1.00  0.00     0.027 A 
ATOM     18  C   UNL     1       2.959  45.789  51.551  1.00  0.00     0.029 A 
ATOM     19  C   UNL     1       4.934  47.222  52.844  1.00  0.00     0.012 A 
ATOM     20  C   UNL     1       2.615  46.904  52.320  1.00  0.00     0.002 A 
ATOM     21  C   UNL     1       3.608  47.626  52.967  1.00  0.00     0.001 A 
BRANCH  15  22
ATOM     22  C   UNL     1       7.773  46.156  52.488  1.00  0.00     0.001 A 
ATOM     23  C   UNL     1       8.971  46.254  51.762  1.00  0.00     0.010 A 
ATOM     24  C   UNL     1       7.764  46.604  53.821  1.00  0.00     0.010 A 
ATOM     25  C   UNL     1      10.117  46.805  52.339  1.00  0.00     0.001 A 
ATOM     26  C   UNL     1       8.911  47.154  54.398  1.00  0.00     0.001 A 
ATOM     27  C   UNL     1      10.085  47.258  53.656  1.00  0.00     0.000 A 
ENDBRANCH  15  22
ENDBRANCH  10  12
ENDBRANCH   4  10
TORSDOF 4
ENDMDL
MODEL 9
REMARK VINA RESULT:    -9.125      1.709      4.278
REMARK INTER + INTRA:         -11.523
REMARK INTER:                 -11.216
REMARK INTRA:                  -0.307
REMARK UNBOUND:                -0.265
REMARK SMILES O=C([O-])c1ccc(Nc2nc(-c3ccccc3)c3ccccc3n2)cc1
REMARK SMILES IDX 4 1 5 2 6 3 7 4 25 5 26 6 2 7 1 8 3 9 8 10 9 12 10 13 24 14
REMARK SMILES IDX 11 15 23 16 18 17 22 18 19 19 21 20 20 21 12 22 13 23 17 24
REMARK SMILES IDX 14 25 16 26 15 27
REMARK H PARENT 8 11
ROOT
ATOM      1  C   UNL     1      -1.136  43.505  53.141  1.00  0.00    -0.003 A 
ATOM      2  C   UNL     1      -0.306  42.714  52.336  1.00  0.00     0.012 A 
ATOM      3  C   UNL     1       1.091  42.790  52.436  1.00  0.00     0.027 A 
ATOM      4  C   UNL     1       1.706  43.657  53.343  1.00  0.00     0.041 A 
ATOM      5  C   UNL     1       0.872  44.449  54.148  1.00  0.00     0.027 A 
ATOM      6  C   UNL     1      -0.523  44.376  54.051  1.00  0.00     0.012 A 
ENDROOT
BRANCH   1   7
ATOM      7  C   UNL     1      -2.647  43.422  53.034  1.00  0.00     0.071 C 
ATOM      8  O   UNL     1      -3.142  43.367  51.863  1.00  0.00    -0.545 OA
ATOM      9  O   UNL     1      -3.307  43.415  54.120  1.00  0.00    -0.545 OA
ENDBRANCH   1   7
BRANCH   4  10
ATOM     10  N   UNL     1       3.092  43.781  53.494  1.00  0.00    -0.324 N 
ATOM     11  H   UNL     1       3.438  43.800  54.441  1.00  0.00     0.170 HD
BRANCH  10  12
ATOM     12  C   UNL     1       4.160  43.896  52.611  1.00  0.00     0.228 A 
ATOM     13  N   UNL     1       5.053  44.841  52.928  1.00  0.00    -0.212 NA
ATOM     14  N   UNL     1       4.276  43.117  51.530  1.00  0.00    -0.213 NA
ATOM     15  C   UNL     1       6.113  45.010  52.107  1.00  0.00     0.084 A 
ATOM     16  C   UNL     1       5.331  43.276  50.728  1.00  0.00     0.076 A 
ATOM     17  C   UNL     1       6.324  44.229  50.963  1.00  0.00     0.027 A 
ATOM     18  C   UNL     1       5.449  42.454  49.614  1.00  0.00     0.029 A 
ATOM     19  C   UNL     1       7.430  44.321  50.075  1.00  0.00     0.012 A 
ATOM     20  C   UNL     1       6.530  42.549  48.733  1.00  0.00     0.002 A 
ATOM     21  C   UNL     1       7.527  43.485  48.966  1.00  0.00     0.001 A 
BRANCH  15  22
ATOM     22  C   UNL     1       7.019  46.089  52.530  1.00  0.00     0.001 A 
ATOM     23  C   UNL     1       7.463  46.166  53.860  1.00  0.00     0.010 A 
ATOM     24  C   UNL     1       7.445  47.080  51.629  1.00  0.00     0.010 A 
ATOM     25  C   UNL     1       8.325  47.185  54.271  1.00  0.00     0.001 A 
ATOM     26  C   UNL     1       8.305  48.100  52.040  1.00  0.00     0.001 A 
ATOM     27  C   UNL     1       8.748  48.150  53.360  1.00  0.00     0.000 A 
ENDBRANCH  15  22
ENDBRANCH  10  12
ENDBRANCH   4  10
TORSDOF 4
ENDMDL
MODEL 10
REMARK VINA RESULT:    -8.983      4.132      7.373
REMARK INTER + INTRA:         -11.348
REMARK INTER:                 -10.839
REMARK INTRA:                  -0.509
REMARK UNBOUND:                -0.265
REMARK SMILES O=C([O-])c1ccc(Nc2nc(-c3ccccc3)c3ccccc3n2)cc1
REMARK SMILES IDX 4 1 5 2 6 3 7 4 25 5 26 6 2 7 1 8 3 9 8 10 9 12 10 13 24 14
REMARK SMILES IDX 11 15 23 16 18 17 22 18 19 19 21 20 20 21 12 22 13 23 17 24
REMARK SMILES IDX 14 25 16 26 15 27
REMARK H PARENT 8 11
ROOT
ATOM      1  C   UNL     1       4.343  40.767  45.927  1.00  0.00    -0.003 A 
ATOM      2  C   UNL     1       5.417  41.561  46.350  1.00  0.00     0.012 A 
ATOM      3  C   UNL     1       5.669  41.778  47.713  1.00  0.00     0.027 A 
ATOM      4  C   UNL     1       4.858  41.210  48.699  1.00  0.00     0.041 A 
ATOM      5  C   UNL     1       3.781  40.415  48.272  1.00  0.00     0.027 A 
ATOM      6  C   UNL     1       3.527  40.197  46.912  1.00  0.00     0.012 A 
ENDROOT
BRANCH   1   7
ATOM      7  C   UNL     1       4.071  40.532  44.453  1.00  0.00     0.071 C 
ATOM      8  O   UNL     1       5.069  40.581  43.665  1.00  0.00    -0.545 OA
ATOM      9  O   UNL     1       2.868  40.304  44.113  1.00  0.00    -0.545 OA
ENDBRANCH   1   7
BRANCH   4  10
ATOM     10  N   UNL     1       5.052  41.385  50.074  1.00  0.00    -0.324 N 
ATOM     11  H   UNL     1       5.647  40.710  50.530  1.00  0.00     0.170 HD
BRANCH  10  12
ATOM     12  C   UNL     1       4.598  42.307  51.010  1.00  0.00     0.228 A 
ATOM     13  N   UNL     1       5.457  43.294  51.289  1.00  0.00    -0.212 NA
ATOM     14  N   UNL     1       3.393  42.207  51.582  1.00  0.00    -0.213 NA
ATOM     15  C   UNL     1       5.081  44.222  52.197  1.00  0.00     0.084 A 
ATOM     16  C   UNL     1       3.018  43.132  52.467  1.00  0.00     0.076 A 
ATOM     17  C   UNL     1       3.832  44.205  52.832  1.00  0.00     0.027 A 
ATOM     18  C   UNL     1       1.759  43.025  53.046  1.00  0.00     0.029 A 
ATOM     19  C   UNL     1       3.351  45.164  53.765  1.00  0.00     0.012 A 
ATOM     20  C   UNL     1       1.287  43.960  53.971  1.00  0.00     0.002 A 
ATOM     21  C   UNL     1       2.086  45.036  54.331  1.00  0.00     0.001 A 
BRANCH  15  22
ATOM     22  C   UNL     1       6.106  45.246  52.451  1.00  0.00     0.001 A 
ATOM     23  C   UNL     1       6.519  45.531  53.763  1.00  0.00     0.010 A 
ATOM     24  C   UNL     1       6.680  45.981  51.399  1.00  0.00     0.010 A 
ATOM     25  C   UNL     1       7.493  46.500  54.015  1.00  0.00     0.001 A 
ATOM     26  C   UNL     1       7.653  46.951  51.651  1.00  0.00     0.001 A 
ATOM     27  C   UNL     1       8.061  47.207  52.958  1.00  0.00     0.000 A 
ENDBRANCH  15  22
ENDBRANCH  10  12
ENDBRANCH   4  10
TORSDOF 4
ENDMDL
