MODEL 1
REMARK VINA RESULT:    -8.644      0.000      0.000
REMARK INTER + INTRA:         -12.343
REMARK INTER:                 -11.928
REMARK INTRA:                  -0.415
REMARK UNBOUND:                -0.415
REMARK SMILES COc1ccc(Nc2nc(NCCO)c3ccccc3n2)cc1
REMARK SMILES IDX 8 1 9 2 10 3 15 4 16 5 17 6 18 7 19 8 20 9 21 10 7 11 6 13
REMARK SMILES IDX 3 14 4 15 23 16 5 17 22 18 2 19 1 20 11 21 12 23 13 24 14 25
REMARK H PARENT 7 12 11 22 14 26
ROOT
ATOM      1  C   UNL     1       6.457  44.833  51.133  1.00  0.00     0.229 A 
ATOM      2  N   UNL     1       5.534  44.713  52.097  1.00  0.00    -0.195 NA
ATOM      3  C   UNL     1       4.670  43.685  52.031  1.00  0.00     0.139 A 
ATOM      4  C   UNL     1       4.690  42.768  50.967  1.00  0.00     0.043 A 
ATOM      5  C   UNL     1       3.785  41.688  50.797  1.00  0.00     0.014 A 
ATOM      6  C   UNL     1       3.898  40.825  49.709  1.00  0.00     0.001 A 
ATOM      7  C   UNL     1       4.911  41.031  48.782  1.00  0.00     0.002 A 
ATOM      8  C   UNL     1       5.793  42.101  48.948  1.00  0.00     0.029 A 
ATOM      9  C   UNL     1       5.697  42.977  50.023  1.00  0.00     0.078 A 
ATOM     10  N   UNL     1       6.569  43.983  50.108  1.00  0.00    -0.213 NA
ENDROOT
BRANCH   1  11
ATOM     11  N   UNL     1       7.311  45.924  51.283  1.00  0.00    -0.324 N 
ATOM     12  H   UNL     1       7.454  46.347  50.379  1.00  0.00     0.170 HD
BRANCH  11  13
ATOM     13  C   UNL     1       8.035  46.456  52.354  1.00  0.00     0.041 A 
ATOM     14  C   UNL     1       9.384  47.544  54.601  1.00  0.00     0.119 A 
ATOM     15  C   UNL     1      10.102  47.000  53.540  1.00  0.00     0.048 A 
ATOM     16  C   UNL     1       7.992  47.540  54.543  1.00  0.00     0.048 A 
ATOM     17  C   UNL     1       9.430  46.461  52.431  1.00  0.00     0.030 A 
ATOM     18  C   UNL     1       7.327  47.002  53.435  1.00  0.00     0.030 A 
BRANCH  14  19
ATOM     19  O   UNL     1       9.911  48.096  55.735  1.00  0.00    -0.497 OA
ATOM     20  C   UNL     1      11.087  47.490  56.255  1.00  0.00     0.278 C 
ENDBRANCH  14  19
ENDBRANCH  11  13
ENDBRANCH   1  11
BRANCH   3  21
ATOM     21  N   UNL     1       3.691  43.550  53.039  1.00  0.00    -0.367 N 
ATOM     22  H   UNL     1       4.145  43.229  53.896  1.00  0.00     0.162 HD
BRANCH  21  23
ATOM     23  C   UNL     1       2.908  44.750  53.354  1.00  0.00     0.142 C 
BRANCH  23  24
ATOM     24  C   UNL     1       3.202  45.246  54.775  1.00  0.00     0.177 C 
BRANCH  24  25
ATOM     25  O   UNL     1       4.342  44.557  55.298  1.00  0.00    -0.395 OA
ATOM     26  H   UNL     1       4.155  43.605  55.212  1.00  0.00     0.210 HD
ENDBRANCH  24  25
ENDBRANCH  23  24
ENDBRANCH  21  23
ENDBRANCH   3  21
TORSDOF 7
ENDMDL
MODEL 2
REMARK VINA RESULT:    -8.611      2.738      7.125
REMARK INTER + INTRA:         -12.298
REMARK INTER:                 -11.714
REMARK INTRA:                  -0.583
REMARK UNBOUND:                -0.415
REMARK SMILES COc1ccc(Nc2nc(NCCO)c3ccccc3n2)cc1
REMARK SMILES IDX 8 1 9 2 10 3 15 4 16 5 17 6 18 7 19 8 20 9 21 10 7 11 6 13
REMARK SMILES IDX 3 14 4 15 23 16 5 17 22 18 2 19 1 20 11 21 12 23 13 24 14 25
REMARK H PARENT 7 12 11 22 14 26
ROOT
ATOM      1  C   UNL     1       5.306  46.895  52.924  1.00  0.00     0.229 A 
ATOM      2  N   UNL     1       5.465  46.186  51.798  1.00  0.00    -0.195 NA
ATOM      3  C   UNL     1       6.715  45.890  51.400  1.00  0.00     0.139 A 
ATOM      4  C   UNL     1       7.843  46.333  52.109  1.00  0.00     0.043 A 
ATOM      5  C   UNL     1       9.192  46.107  51.731  1.00  0.00     0.014 A 
ATOM      6  C   UNL     1      10.244  46.581  52.512  1.00  0.00     0.001 A 
ATOM      7  C   UNL     1       9.961  47.285  53.674  1.00  0.00     0.002 A 
ATOM      8  C   UNL     1       8.632  47.515  54.038  1.00  0.00     0.029 A 
ATOM      9  C   UNL     1       7.567  47.054  53.272  1.00  0.00     0.078 A 
ATOM     10  N   UNL     1       6.324  47.323  53.677  1.00  0.00    -0.213 NA
ENDROOT
BRANCH   1  11
ATOM     11  N   UNL     1       3.980  47.154  53.263  1.00  0.00    -0.324 N 
ATOM     12  H   UNL     1       3.869  48.148  53.392  1.00  0.00     0.170 HD
BRANCH  11  13
ATOM     13  C   UNL     1       2.868  46.352  53.531  1.00  0.00     0.041 A 
ATOM     14  C   UNL     1       0.650  44.716  54.211  1.00  0.00     0.119 A 
ATOM     15  C   UNL     1       0.707  45.355  52.975  1.00  0.00     0.048 A 
ATOM     16  C   UNL     1       1.699  44.899  55.110  1.00  0.00     0.048 A 
ATOM     17  C   UNL     1       1.804  46.164  52.644  1.00  0.00     0.030 A 
ATOM     18  C   UNL     1       2.792  45.706  54.775  1.00  0.00     0.030 A 
BRANCH  14  19
ATOM     19  O   UNL     1      -0.356  43.906  54.658  1.00  0.00    -0.497 OA
ATOM     20  C   UNL     1      -1.261  44.470  55.599  1.00  0.00     0.278 C 
ENDBRANCH  14  19
ENDBRANCH  11  13
ENDBRANCH   1  11
BRANCH   3  21
ATOM     21  N   UNL     1       6.895  45.145  50.214  1.00  0.00    -0.367 N 
ATOM     22  H   UNL     1       7.895  44.994  50.070  1.00  0.00     0.162 HD
BRANCH  21  23
ATOM     23  C   UNL     1       6.219  43.844  50.152  1.00  0.00     0.142 C 
BRANCH  23  24
ATOM     24  C   UNL     1       7.058  42.820  49.380  1.00  0.00     0.177 C 
BRANCH  24  25
ATOM     25  O   UNL     1       8.270  43.434  48.929  1.00  0.00    -0.395 OA
ATOM     26  H   UNL     1       8.008  44.185  48.368  1.00  0.00     0.210 HD
ENDBRANCH  24  25
ENDBRANCH  23  24
ENDBRANCH  21  23
ENDBRANCH   3  21
TORSDOF 7
ENDMDL
MODEL 3
REMARK VINA RESULT:    -8.199      2.282      3.626
REMARK INTER + INTRA:         -11.729
REMARK INTER:                 -11.267
REMARK INTRA:                  -0.462
REMARK UNBOUND:                -0.415
REMARK SMILES COc1ccc(Nc2nc(NCCO)c3ccccc3n2)cc1
REMARK SMILES IDX 8 1 9 2 10 3 15 4 16 5 17 6 18 7 19 8 20 9 21 10 7 11 6 13
REMARK SMILES IDX 3 14 4 15 23 16 5 17 22 18 2 19 1 20 11 21 12 23 13 24 14 25
REMARK H PARENT 7 12 11 22 14 26
ROOT
ATOM      1  C   UNL     1       5.905  45.112  51.230  1.00  0.00     0.229 A 
ATOM      2  N   UNL     1       6.036  43.805  50.964  1.00  0.00    -0.195 NA
ATOM      3  C   UNL     1       4.923  43.054  50.884  1.00  0.00     0.139 A 
ATOM      4  C   UNL     1       3.647  43.595  51.106  1.00  0.00     0.043 A 
ATOM      5  C   UNL     1       2.430  42.864  51.089  1.00  0.00     0.014 A 
ATOM      6  C   UNL     1       1.211  43.500  51.313  1.00  0.00     0.001 A 
ATOM      7  C   UNL     1       1.192  44.866  51.556  1.00  0.00     0.002 A 
ATOM      8  C   UNL     1       2.393  45.581  51.583  1.00  0.00     0.029 A 
ATOM      9  C   UNL     1       3.621  44.967  51.366  1.00  0.00     0.078 A 
ATOM     10  N   UNL     1       4.726  45.713  51.418  1.00  0.00    -0.213 NA
ENDROOT
BRANCH   1  11
ATOM     11  N   UNL     1       7.108  45.813  51.293  1.00  0.00    -0.324 N 
ATOM     12  H   UNL     1       7.519  45.830  50.373  1.00  0.00     0.170 HD
BRANCH  11  13
ATOM     13  C   UNL     1       7.852  46.381  52.331  1.00  0.00     0.041 A 
ATOM     14  C   UNL     1       9.252  47.519  54.522  1.00  0.00     0.119 A 
ATOM     15  C   UNL     1       9.930  47.148  53.364  1.00  0.00     0.048 A 
ATOM     16  C   UNL     1       7.875  47.317  54.588  1.00  0.00     0.048 A 
ATOM     17  C   UNL     1       9.234  46.584  52.284  1.00  0.00     0.030 A 
ATOM     18  C   UNL     1       7.185  46.754  53.507  1.00  0.00     0.030 A 
BRANCH  14  19
ATOM     19  O   UNL     1       9.806  48.075  55.641  1.00  0.00    -0.497 OA
ATOM     20  C   UNL     1      11.018  47.497  56.108  1.00  0.00     0.278 C 
ENDBRANCH  14  19
ENDBRANCH  11  13
ENDBRANCH   1  11
BRANCH   3  21
ATOM     21  N   UNL     1       5.049  41.676  50.605  1.00  0.00    -0.367 N 
ATOM     22  H   UNL     1       4.126  41.301  50.383  1.00  0.00     0.162 HD
BRANCH  21  23
ATOM     23  C   UNL     1       5.968  41.310  49.521  1.00  0.00     0.142 C 
BRANCH  23  24
ATOM     24  C   UNL     1       5.224  41.165  48.189  1.00  0.00     0.177 C 
BRANCH  24  25
ATOM     25  O   UNL     1       6.086  41.548  47.113  1.00  0.00    -0.395 OA
ATOM     26  H   UNL     1       6.144  42.520  47.137  1.00  0.00     0.210 HD
ENDBRANCH  24  25
ENDBRANCH  23  24
ENDBRANCH  21  23
ENDBRANCH   3  21
TORSDOF 7
ENDMDL
MODEL 4
REMARK VINA RESULT:    -7.937      2.158      6.295
REMARK INTER + INTRA:         -11.367
REMARK INTER:                 -10.660
REMARK INTRA:                  -0.707
REMARK UNBOUND:                -0.415
REMARK SMILES COc1ccc(Nc2nc(NCCO)c3ccccc3n2)cc1
REMARK SMILES IDX 8 1 9 2 10 3 15 4 16 5 17 6 18 7 19 8 20 9 21 10 7 11 6 13
REMARK SMILES IDX 3 14 4 15 23 16 5 17 22 18 2 19 1 20 11 21 12 23 13 24 14 25
REMARK H PARENT 7 12 11 22 14 26
ROOT
ATOM      1  C   UNL     1       5.117  46.175  52.363  1.00  0.00     0.229 A 
ATOM      2  N   UNL     1       6.258  46.873  52.436  1.00  0.00    -0.195 NA
ATOM      3  C   UNL     1       7.295  46.486  51.672  1.00  0.00     0.139 A 
ATOM      4  C   UNL     1       7.220  45.359  50.837  1.00  0.00     0.043 A 
ATOM      5  C   UNL     1       8.281  44.857  50.039  1.00  0.00     0.014 A 
ATOM      6  C   UNL     1       8.101  43.734  49.234  1.00  0.00     0.001 A 
ATOM      7  C   UNL     1       6.865  43.103  49.218  1.00  0.00     0.002 A 
ATOM      8  C   UNL     1       5.826  43.594  50.013  1.00  0.00     0.029 A 
ATOM      9  C   UNL     1       5.985  44.710  50.827  1.00  0.00     0.078 A 
ATOM     10  N   UNL     1       4.950  45.113  51.567  1.00  0.00    -0.213 NA
ENDROOT
BRANCH   1  11
ATOM     11  N   UNL     1       4.096  46.645  53.185  1.00  0.00    -0.324 N 
ATOM     12  H   UNL     1       4.289  47.607  53.420  1.00  0.00     0.170 HD
BRANCH  11  13
ATOM     13  C   UNL     1       2.978  46.058  53.786  1.00  0.00     0.041 A 
ATOM     14  C   UNL     1       0.650  44.859  54.877  1.00  0.00     0.119 A 
ATOM     15  C   UNL     1       1.805  44.988  55.643  1.00  0.00     0.048 A 
ATOM     16  C   UNL     1       0.659  45.324  53.564  1.00  0.00     0.048 A 
ATOM     17  C   UNL     1       2.954  45.580  55.099  1.00  0.00     0.030 A 
ATOM     18  C   UNL     1       1.808  45.915  53.025  1.00  0.00     0.030 A 
BRANCH  14  19
ATOM     19  O   UNL     1      -0.532  44.304  55.282  1.00  0.00    -0.497 OA
ATOM     20  C   UNL     1      -1.706  44.733  54.604  1.00  0.00     0.278 C 
ENDBRANCH  14  19
ENDBRANCH  11  13
ENDBRANCH   1  11
BRANCH   3  21
ATOM     21  N   UNL     1       8.503  47.213  51.743  1.00  0.00    -0.367 N 
ATOM     22  H   UNL     1       8.284  48.209  51.804  1.00  0.00     0.162 HD
BRANCH  21  23
ATOM     23  C   UNL     1       9.407  46.872  52.848  1.00  0.00     0.142 C 
BRANCH  23  24
ATOM     24  C   UNL     1       9.251  47.854  54.015  1.00  0.00     0.177 C 
BRANCH  24  25
ATOM     25  O   UNL     1       8.138  47.462  54.826  1.00  0.00    -0.395 OA
ATOM     26  H   UNL     1       8.504  47.187  55.685  1.00  0.00     0.210 HD
ENDBRANCH  24  25
ENDBRANCH  23  24
ENDBRANCH  21  23
ENDBRANCH   3  21
TORSDOF 7
ENDMDL
MODEL 5
REMARK VINA RESULT:    -7.922      2.194      4.099
REMARK INTER + INTRA:         -11.347
REMARK INTER:                 -10.807
REMARK INTRA:                  -0.540
REMARK UNBOUND:                -0.415
REMARK SMILES COc1ccc(Nc2nc(NCCO)c3ccccc3n2)cc1
REMARK SMILES IDX 8 1 9 2 10 3 15 4 16 5 17 6 18 7 19 8 20 9 21 10 7 11 6 13
REMARK SMILES IDX 3 14 4 15 23 16 5 17 22 18 2 19 1 20 11 21 12 23 13 24 14 25
REMARK H PARENT 7 12 11 22 14 26
ROOT
ATOM      1  C   UNL     1       4.498  45.304  51.990  1.00  0.00     0.229 A 
ATOM      2  N   UNL     1       4.479  44.032  51.566  1.00  0.00    -0.195 NA
ATOM      3  C   UNL     1       3.458  43.246  51.950  1.00  0.00     0.139 A 
ATOM      4  C   UNL     1       2.445  43.711  52.804  1.00  0.00     0.043 A 
ATOM      5  C   UNL     1       1.363  42.933  53.294  1.00  0.00     0.014 A 
ATOM      6  C   UNL     1       0.401  43.495  54.131  1.00  0.00     0.001 A 
ATOM      7  C   UNL     1       0.508  44.832  54.488  1.00  0.00     0.002 A 
ATOM      8  C   UNL     1       1.580  45.591  54.011  1.00  0.00     0.029 A 
ATOM      9  C   UNL     1       2.554  45.051  53.178  1.00  0.00     0.078 A 
ATOM     10  N   UNL     1       3.555  45.835  52.773  1.00  0.00    -0.213 NA
ENDROOT
BRANCH   1  11
ATOM     11  N   UNL     1       5.589  46.046  51.543  1.00  0.00    -0.324 N 
ATOM     12  H   UNL     1       5.406  46.352  50.601  1.00  0.00     0.170 HD
BRANCH  11  13
ATOM     13  C   UNL     1       6.844  46.352  52.077  1.00  0.00     0.041 A 
ATOM     14  C   UNL     1       9.337  46.960  53.289  1.00  0.00     0.119 A 
ATOM     15  C   UNL     1       9.260  46.689  51.925  1.00  0.00     0.048 A 
ATOM     16  C   UNL     1       8.170  46.923  54.048  1.00  0.00     0.048 A 
ATOM     17  C   UNL     1       8.026  46.387  51.331  1.00  0.00     0.030 A 
ATOM     18  C   UNL     1       6.940  46.622  53.450  1.00  0.00     0.030 A 
BRANCH  14  19
ATOM     19  O   UNL     1      10.470  47.265  53.990  1.00  0.00    -0.497 OA
ATOM     20  C   UNL     1      10.324  47.450  55.392  1.00  0.00     0.278 C 
ENDBRANCH  14  19
ENDBRANCH  11  13
ENDBRANCH   1  11
BRANCH   3  21
ATOM     21  N   UNL     1       3.428  41.904  51.511  1.00  0.00    -0.367 N 
ATOM     22  H   UNL     1       2.539  41.733  51.038  1.00  0.00     0.162 HD
BRANCH  21  23
ATOM     23  C   UNL     1       4.514  41.486  50.617  1.00  0.00     0.142 C 
BRANCH  23  24
ATOM     24  C   UNL     1       3.964  40.799  49.361  1.00  0.00     0.177 C 
BRANCH  24  25
ATOM     25  O   UNL     1       3.049  39.765  49.741  1.00  0.00    -0.395 OA
ATOM     26  H   UNL     1       2.247  40.211  50.067  1.00  0.00     0.210 HD
ENDBRANCH  24  25
ENDBRANCH  23  24
ENDBRANCH  21  23
ENDBRANCH   3  21
TORSDOF 7
ENDMDL
MODEL 6
REMARK VINA RESULT:    -7.842      1.917      6.914
REMARK INTER + INTRA:         -11.236
REMARK INTER:                 -10.811
REMARK INTRA:                  -0.426
REMARK UNBOUND:                -0.415
REMARK SMILES COc1ccc(Nc2nc(NCCO)c3ccccc3n2)cc1
REMARK SMILES IDX 8 1 9 2 10 3 15 4 16 5 17 6 18 7 19 8 20 9 21 10 7 11 6 13
REMARK SMILES IDX 3 14 4 15 23 16 5 17 22 18 2 19 1 20 11 21 12 23 13 24 14 25
REMARK H PARENT 7 12 11 22 14 26
ROOT
ATOM      1  C   UNL     1       6.963  45.451  51.315  1.00  0.00     0.229 A 
ATOM      2  N   UNL     1       5.961  46.058  51.965  1.00  0.00    -0.195 NA
ATOM      3  C   UNL     1       6.261  46.850  53.010  1.00  0.00     0.139 A 
ATOM      4  C   UNL     1       7.583  47.022  53.452  1.00  0.00     0.043 A 
ATOM      5  C   UNL     1       7.980  47.798  54.572  1.00  0.00     0.014 A 
ATOM      6  C   UNL     1       9.324  47.914  54.922  1.00  0.00     0.001 A 
ATOM      7  C   UNL     1      10.282  47.259  54.162  1.00  0.00     0.002 A 
ATOM      8  C   UNL     1       9.887  46.488  53.065  1.00  0.00     0.029 A 
ATOM      9  C   UNL     1       8.552  46.355  52.700  1.00  0.00     0.078 A 
ATOM     10  N   UNL     1       8.250  45.592  51.648  1.00  0.00    -0.213 NA
ENDROOT
BRANCH   1  11
ATOM     11  N   UNL     1       6.561  44.654  50.246  1.00  0.00    -0.324 N 
ATOM     12  H   UNL     1       6.904  45.063  49.392  1.00  0.00     0.170 HD
BRANCH  11  13
ATOM     13  C   UNL     1       5.751  43.521  50.126  1.00  0.00     0.041 A 
ATOM     14  C   UNL     1       4.205  41.164  49.797  1.00  0.00     0.119 A 
ATOM     15  C   UNL     1       3.876  42.096  50.778  1.00  0.00     0.048 A 
ATOM     16  C   UNL     1       5.309  41.407  48.983  1.00  0.00     0.048 A 
ATOM     17  C   UNL     1       4.645  43.258  50.938  1.00  0.00     0.030 A 
ATOM     18  C   UNL     1       6.073  42.569  49.147  1.00  0.00     0.030 A 
BRANCH  14  19
ATOM     19  O   UNL     1       3.544  39.996  49.536  1.00  0.00    -0.497 OA
ATOM     20  C   UNL     1       3.402  39.633  48.169  1.00  0.00     0.278 C 
ENDBRANCH  14  19
ENDBRANCH  11  13
ENDBRANCH   1  11
BRANCH   3  21
ATOM     21  N   UNL     1       5.213  47.493  53.703  1.00  0.00    -0.367 N 
ATOM     22  H   UNL     1       4.920  48.312  53.168  1.00  0.00     0.162 HD
BRANCH  21  23
ATOM     23  C   UNL     1       4.026  46.680  53.990  1.00  0.00     0.142 C 
BRANCH  23  24
ATOM     24  C   UNL     1       4.101  46.065  55.393  1.00  0.00     0.177 C 
BRANCH  24  25
ATOM     25  O   UNL     1       3.721  44.686  55.334  1.00  0.00    -0.395 OA
ATOM     26  H   UNL     1       3.261  44.490  56.169  1.00  0.00     0.210 HD
ENDBRANCH  24  25
ENDBRANCH  23  24
ENDBRANCH  21  23
ENDBRANCH   3  21
TORSDOF 7
ENDMDL
MODEL 7
REMARK VINA RESULT:    -7.679      3.201      6.941
REMARK INTER + INTRA:         -11.012
REMARK INTER:                 -10.512
REMARK INTRA:                  -0.499
REMARK UNBOUND:                -0.415
REMARK SMILES COc1ccc(Nc2nc(NCCO)c3ccccc3n2)cc1
REMARK SMILES IDX 8 1 9 2 10 3 15 4 16 5 17 6 18 7 19 8 20 9 21 10 7 11 6 13
REMARK SMILES IDX 3 14 4 15 23 16 5 17 22 18 2 19 1 20 11 21 12 23 13 24 14 25
REMARK H PARENT 7 12 11 22 14 26
ROOT
ATOM      1  C   UNL     1       4.014  44.248  52.825  1.00  0.00     0.229 A 
ATOM      2  N   UNL     1       4.426  43.551  51.758  1.00  0.00    -0.195 NA
ATOM      3  C   UNL     1       5.531  43.962  51.112  1.00  0.00     0.139 A 
ATOM      4  C   UNL     1       6.233  45.114  51.506  1.00  0.00     0.043 A 
ATOM      5  C   UNL     1       7.376  45.642  50.851  1.00  0.00     0.014 A 
ATOM      6  C   UNL     1       8.008  46.788  51.330  1.00  0.00     0.001 A 
ATOM      7  C   UNL     1       7.507  47.417  52.461  1.00  0.00     0.002 A 
ATOM      8  C   UNL     1       6.375  46.900  53.096  1.00  0.00     0.029 A 
ATOM      9  C   UNL     1       5.726  45.760  52.635  1.00  0.00     0.078 A 
ATOM     10  N   UNL     1       4.644  45.332  53.287  1.00  0.00    -0.213 NA
ENDROOT
BRANCH   1  11
ATOM     11  N   UNL     1       2.863  43.750  53.433  1.00  0.00    -0.324 N 
ATOM     12  H   UNL     1       2.713  42.805  53.114  1.00  0.00     0.170 HD
BRANCH  11  13
ATOM     13  C   UNL     1       1.888  44.298  54.272  1.00  0.00     0.041 A 
ATOM     14  C   UNL     1      -0.187  45.334  55.906  1.00  0.00     0.119 A 
ATOM     15  C   UNL     1       1.148  45.535  56.245  1.00  0.00     0.048 A 
ATOM     16  C   UNL     1      -0.486  44.611  54.754  1.00  0.00     0.048 A 
ATOM     17  C   UNL     1       2.171  45.019  55.435  1.00  0.00     0.030 A 
ATOM     18  C   UNL     1       0.538  44.099  53.948  1.00  0.00     0.030 A 
BRANCH  14  19
ATOM     19  O   UNL     1      -1.274  45.779  56.605  1.00  0.00    -0.497 OA
ATOM     20  C   UNL     1      -1.055  46.848  57.516  1.00  0.00     0.278 C 
ENDBRANCH  14  19
ENDBRANCH  11  13
ENDBRANCH   1  11
BRANCH   3  21
ATOM     21  N   UNL     1       5.974  43.237  49.985  1.00  0.00    -0.367 N 
ATOM     22  H   UNL     1       6.912  43.555  49.738  1.00  0.00     0.162 HD
BRANCH  21  23
ATOM     23  C   UNL     1       6.004  41.776  50.121  1.00  0.00     0.142 C 
BRANCH  23  24
ATOM     24  C   UNL     1       4.760  41.135  49.493  1.00  0.00     0.177 C 
BRANCH  24  25
ATOM     25  O   UNL     1       3.837  40.770  50.524  1.00  0.00    -0.395 OA
ATOM     26  H   UNL     1       3.018  41.267  50.351  1.00  0.00     0.210 HD
ENDBRANCH  24  25
ENDBRANCH  23  24
ENDBRANCH  21  23
ENDBRANCH   3  21
TORSDOF 7
ENDMDL
MODEL 8
REMARK VINA RESULT:    -7.672      2.857      7.416
REMARK INTER + INTRA:         -11.002
REMARK INTER:                 -10.410
REMARK INTRA:                  -0.592
REMARK UNBOUND:                -0.415
REMARK SMILES COc1ccc(Nc2nc(NCCO)c3ccccc3n2)cc1
REMARK SMILES IDX 8 1 9 2 10 3 15 4 16 5 17 6 18 7 19 8 20 9 21 10 7 11 6 13
REMARK SMILES IDX 3 14 4 15 23 16 5 17 22 18 2 19 1 20 11 21 12 23 13 24 14 25
REMARK H PARENT 7 12 11 22 14 26
ROOT
ATOM      1  C   UNL     1       6.735  43.754  49.846  1.00  0.00     0.229 A 
ATOM      2  N   UNL     1       5.567  43.957  50.469  1.00  0.00    -0.195 NA
ATOM      3  C   UNL     1       5.457  45.014  51.294  1.00  0.00     0.139 A 
ATOM      4  C   UNL     1       6.538  45.876  51.541  1.00  0.00     0.043 A 
ATOM      5  C   UNL     1       6.520  46.981  52.432  1.00  0.00     0.014 A 
ATOM      6  C   UNL     1       7.646  47.784  52.598  1.00  0.00     0.001 A 
ATOM      7  C   UNL     1       8.798  47.493  51.882  1.00  0.00     0.002 A 
ATOM      8  C   UNL     1       8.815  46.399  51.013  1.00  0.00     0.029 A 
ATOM      9  C   UNL     1       7.705  45.582  50.834  1.00  0.00     0.078 A 
ATOM     10  N   UNL     1       7.801  44.547  49.996  1.00  0.00    -0.213 NA
ENDROOT
BRANCH   1  11
ATOM     11  N   UNL     1       6.759  42.640  49.010  1.00  0.00    -0.324 N 
ATOM     12  H   UNL     1       7.720  42.396  48.825  1.00  0.00     0.170 HD
BRANCH  11  13
ATOM     13  C   UNL     1       5.778  41.897  48.347  1.00  0.00     0.041 A 
ATOM     14  C   UNL     1       3.724  40.368  47.124  1.00  0.00     0.119 A 
ATOM     15  C   UNL     1       4.601  41.123  46.350  1.00  0.00     0.048 A 
ATOM     16  C   UNL     1       3.870  40.380  48.510  1.00  0.00     0.048 A 
ATOM     17  C   UNL     1       5.613  41.879  46.959  1.00  0.00     0.030 A 
ATOM     18  C   UNL     1       4.882  41.136  49.112  1.00  0.00     0.030 A 
BRANCH  14  19
ATOM     19  O   UNL     1       2.699  39.592  46.661  1.00  0.00    -0.497 OA
ATOM     20  C   UNL     1       2.684  38.233  47.081  1.00  0.00     0.278 C 
ENDBRANCH  14  19
ENDBRANCH  11  13
ENDBRANCH   1  11
BRANCH   3  21
ATOM     21  N   UNL     1       4.231  45.237  51.958  1.00  0.00    -0.367 N 
ATOM     22  H   UNL     1       3.476  45.212  51.270  1.00  0.00     0.162 HD
BRANCH  21  23
ATOM     23  C   UNL     1       3.897  44.306  53.042  1.00  0.00     0.142 C 
BRANCH  23  24
ATOM     24  C   UNL     1       2.783  43.341  52.620  1.00  0.00     0.177 C 
BRANCH  24  25
ATOM     25  O   UNL     1       3.361  42.157  52.060  1.00  0.00    -0.395 OA
ATOM     26  H   UNL     1       4.061  41.873  52.674  1.00  0.00     0.210 HD
ENDBRANCH  24  25
ENDBRANCH  23  24
ENDBRANCH  21  23
ENDBRANCH   3  21
TORSDOF 7
ENDMDL
MODEL 9
REMARK VINA RESULT:    -7.657      2.976      7.421
REMARK INTER + INTRA:         -10.981
REMARK INTER:                 -10.420
REMARK INTRA:                  -0.561
REMARK UNBOUND:                -0.415
REMARK SMILES COc1ccc(Nc2nc(NCCO)c3ccccc3n2)cc1
REMARK SMILES IDX 8 1 9 2 10 3 15 4 16 5 17 6 18 7 19 8 20 9 21 10 7 11 6 13
REMARK SMILES IDX 3 14 4 15 23 16 5 17 22 18 2 19 1 20 11 21 12 23 13 24 14 25
REMARK H PARENT 7 12 11 22 14 26
ROOT
ATOM      1  C   UNL     1       4.384  46.001  52.374  1.00  0.00     0.229 A 
ATOM      2  N   UNL     1       4.678  45.014  51.516  1.00  0.00    -0.195 NA
ATOM      3  C   UNL     1       5.948  44.890  51.094  1.00  0.00     0.139 A 
ATOM      4  C   UNL     1       6.954  45.783  51.499  1.00  0.00     0.043 A 
ATOM      5  C   UNL     1       8.304  45.752  51.063  1.00  0.00     0.014 A 
ATOM      6  C   UNL     1       9.230  46.681  51.535  1.00  0.00     0.001 A 
ATOM      7  C   UNL     1       8.819  47.647  52.442  1.00  0.00     0.002 A 
ATOM      8  C   UNL     1       7.486  47.681  52.861  1.00  0.00     0.029 A 
ATOM      9  C   UNL     1       6.545  46.767  52.401  1.00  0.00     0.078 A 
ATOM     10  N   UNL     1       5.288  46.870  52.837  1.00  0.00    -0.213 NA
ENDROOT
BRANCH   1  11
ATOM     11  N   UNL     1       3.047  46.054  52.760  1.00  0.00    -0.324 N 
ATOM     12  H   UNL     1       2.842  46.985  53.087  1.00  0.00     0.170 HD
BRANCH  11  13
ATOM     13  C   UNL     1       2.023  45.108  52.862  1.00  0.00     0.041 A 
ATOM     14  C   UNL     1      -0.106  43.233  52.946  1.00  0.00     0.119 A 
ATOM     15  C   UNL     1       0.967  43.127  53.827  1.00  0.00     0.048 A 
ATOM     16  C   UNL     1      -0.113  44.272  52.019  1.00  0.00     0.048 A 
ATOM     17  C   UNL     1       2.018  44.055  53.781  1.00  0.00     0.030 A 
ATOM     18  C   UNL     1       0.938  45.196  51.976  1.00  0.00     0.030 A 
BRANCH  14  19
ATOM     19  O   UNL     1      -1.187  42.400  52.884  1.00  0.00    -0.497 OA
ATOM     20  C   UNL     1      -2.017  42.513  51.735  1.00  0.00     0.278 C 
ENDBRANCH  14  19
ENDBRANCH  11  13
ENDBRANCH   1  11
BRANCH   3  21
ATOM     21  N   UNL     1       6.269  43.855  50.189  1.00  0.00    -0.367 N 
ATOM     22  H   UNL     1       7.272  43.671  50.243  1.00  0.00     0.162 HD
BRANCH  21  23
ATOM     23  C   UNL     1       5.557  42.585  50.372  1.00  0.00     0.142 C 
BRANCH  23  24
ATOM     24  C   UNL     1       6.109  41.502  49.437  1.00  0.00     0.177 C 
BRANCH  24  25
ATOM     25  O   UNL     1       7.243  40.875  50.045  1.00  0.00    -0.395 OA
ATOM     26  H   UNL     1       7.556  40.200  49.417  1.00  0.00     0.210 HD
ENDBRANCH  24  25
ENDBRANCH  23  24
ENDBRANCH  21  23
ENDBRANCH   3  21
TORSDOF 7
ENDMDL
MODEL 10
REMARK VINA RESULT:    -7.525      2.752      7.079
REMARK INTER + INTRA:         -10.799
REMARK INTER:                 -10.198
REMARK INTRA:                  -0.601
REMARK UNBOUND:                -0.415
REMARK SMILES COc1ccc(Nc2nc(NCCO)c3ccccc3n2)cc1
REMARK SMILES IDX 8 1 9 2 10 3 15 4 16 5 17 6 18 7 19 8 20 9 21 10 7 11 6 13
REMARK SMILES IDX 3 14 4 15 23 16 5 17 22 18 2 19 1 20 11 21 12 23 13 24 14 25
REMARK H PARENT 7 12 11 22 14 26
ROOT
ATOM      1  C   UNL     1       4.379  44.444  52.642  1.00  0.00     0.229 A 
ATOM      2  N   UNL     1       5.039  45.596  52.827  1.00  0.00    -0.195 NA
ATOM      3  C   UNL     1       6.083  45.870  52.026  1.00  0.00     0.139 A 
ATOM      4  C   UNL     1       6.515  44.971  51.037  1.00  0.00     0.043 A 
ATOM      5  C   UNL     1       7.635  45.162  50.186  1.00  0.00     0.014 A 
ATOM      6  C   UNL     1       7.974  44.210  49.227  1.00  0.00     0.001 A 
ATOM      7  C   UNL     1       7.204  43.062  49.108  1.00  0.00     0.002 A 
ATOM      8  C   UNL     1       6.108  42.873  49.954  1.00  0.00     0.029 A 
ATOM      9  C   UNL     1       5.753  43.807  50.921  1.00  0.00     0.078 A 
ATOM     10  N   UNL     1       4.701  43.552  51.701  1.00  0.00    -0.213 NA
ENDROOT
BRANCH   1  11
ATOM     11  N   UNL     1       3.311  44.243  53.514  1.00  0.00    -0.324 N 
ATOM     12  H   UNL     1       3.667  44.203  54.456  1.00  0.00     0.170 HD
BRANCH  11  13
ATOM     13  C   UNL     1       1.943  44.009  53.342  1.00  0.00     0.041 A 
ATOM     14  C   UNL     1      -0.814  43.406  53.049  1.00  0.00     0.119 A 
ATOM     15  C   UNL     1      -0.354  44.710  52.889  1.00  0.00     0.048 A 
ATOM     16  C   UNL     1       0.102  42.404  53.360  1.00  0.00     0.048 A 
ATOM     17  C   UNL     1       1.010  45.004  53.037  1.00  0.00     0.030 A 
ATOM     18  C   UNL     1       1.462  42.702  53.506  1.00  0.00     0.030 A 
BRANCH  14  19
ATOM     19  O   UNL     1      -2.110  42.986  52.934  1.00  0.00    -0.497 OA
ATOM     20  C   UNL     1      -3.104  43.807  53.533  1.00  0.00     0.278 C 
ENDBRANCH  14  19
ENDBRANCH  11  13
ENDBRANCH   1  11
BRANCH   3  21
ATOM     21  N   UNL     1       6.787  47.080  52.212  1.00  0.00    -0.367 N 
ATOM     22  H   UNL     1       6.114  47.846  52.269  1.00  0.00     0.162 HD
BRANCH  21  23
ATOM     23  C   UNL     1       7.664  47.150  53.387  1.00  0.00     0.142 C 
BRANCH  23  24
ATOM     24  C   UNL     1       9.127  47.358  52.974  1.00  0.00     0.177 C 
BRANCH  24  25
ATOM     25  O   UNL     1       9.833  46.116  53.067  1.00  0.00    -0.395 OA
ATOM     26  H   UNL     1       9.173  45.412  52.942  1.00  0.00     0.210 HD
ENDBRANCH  24  25
ENDBRANCH  23  24
ENDBRANCH  21  23
ENDBRANCH   3  21
TORSDOF 7
ENDMDL
