MODEL 1
REMARK VINA RESULT:    -9.076      0.000      0.000
REMARK INTER + INTRA:         -13.439
REMARK INTER:                 -12.260
REMARK INTRA:                  -1.179
REMARK UNBOUND:                -1.179
REMARK SMILES c1cc(COCC2CCCCO2)cc(Nc2nc3ccccc3o2)c1
REMARK SMILES IDX 4 1 3 2 1 3 2 4 25 5 14 6 13 7 15 8 16 10 17 11 24 12 18 13
REMARK SMILES IDX 23 14 19 15 22 16 20 17 21 18 5 19 6 20 7 21 8 22 12 23 9 24
REMARK SMILES IDX 11 25 10 26
REMARK H PARENT 15 9
ROOT
ATOM      1  C   UNL     1       2.378  43.065  52.392  1.00  0.00     0.196 C 
ENDROOT
BRANCH   1   2
ATOM      2  C   UNL     1       2.369  44.030  53.551  1.00  0.00    -0.020 A 
ATOM      3  C   UNL     1       1.286  44.963  55.504  1.00  0.00     0.003 A 
ATOM      4  C   UNL     1       1.300  44.049  54.455  1.00  0.00     0.006 A 
ATOM      5  C   UNL     1       2.338  45.869  55.654  1.00  0.00     0.026 A 
ATOM      6  C   UNL     1       3.427  45.880  54.766  1.00  0.00     0.043 A 
ATOM      7  C   UNL     1       3.414  44.959  53.709  1.00  0.00     0.032 A 
BRANCH   6   8
ATOM      8  N   UNL     1       4.444  46.831  54.967  1.00  0.00    -0.309 N 
ATOM      9  H   UNL     1       4.221  47.553  55.637  1.00  0.00     0.171 HD
BRANCH   8  10
ATOM     10  C   UNL     1       5.700  46.848  54.489  1.00  0.00     0.300 A 
ATOM     11  N   UNL     1       6.849  46.475  55.017  1.00  0.00    -0.193 NA
ATOM     12  O   UNL     1       5.802  47.339  53.210  1.00  0.00    -0.423 OA
ATOM     13  C   UNL     1       7.770  46.739  54.036  1.00  0.00     0.111 A 
ATOM     14  C   UNL     1       7.133  47.270  52.929  1.00  0.00     0.156 A 
ATOM     15  C   UNL     1       9.159  46.560  53.999  1.00  0.00     0.032 A 
ATOM     16  C   UNL     1       7.770  47.654  51.755  1.00  0.00     0.049 A 
ATOM     17  C   UNL     1       9.842  46.934  52.831  1.00  0.00     0.003 A 
ATOM     18  C   UNL     1       9.158  47.471  51.731  1.00  0.00     0.004 A 
ENDBRANCH   8  10
ENDBRANCH   6   8
ENDBRANCH   1   2
BRANCH   1  19
ATOM     19  O   UNL     1       3.652  42.422  52.322  1.00  0.00    -0.374 OA
BRANCH  19  20
ATOM     20  C   UNL     1       3.948  41.983  50.998  1.00  0.00     0.192 C 
BRANCH  20  21
ATOM     21  C   UNL     1       5.337  42.482  50.578  1.00  0.00     0.144 C 
ATOM     22  C   UNL     1       5.436  44.010  50.645  1.00  0.00     0.034 C 
ATOM     23  O   UNL     1       5.608  41.986  49.259  1.00  0.00    -0.376 OA
ATOM     24  C   UNL     1       6.844  44.481  50.283  1.00  0.00     0.005 C 
ATOM     25  C   UNL     1       6.580  42.723  48.513  1.00  0.00     0.160 C 
ATOM     26  C   UNL     1       7.569  43.482  49.383  1.00  0.00     0.029 C 
ENDBRANCH  20  21
ENDBRANCH  19  20
ENDBRANCH   1  19
TORSDOF 6
ENDMDL
MODEL 2
REMARK VINA RESULT:    -9.010      0.686      1.192
REMARK INTER + INTRA:         -13.349
REMARK INTER:                 -12.118
REMARK INTRA:                  -1.231
REMARK UNBOUND:                -1.179
REMARK SMILES c1cc(COCC2CCCCO2)cc(Nc2nc3ccccc3o2)c1
REMARK SMILES IDX 4 1 3 2 1 3 2 4 25 5 14 6 13 7 15 8 16 10 17 11 24 12 18 13
REMARK SMILES IDX 23 14 19 15 22 16 20 17 21 18 5 19 6 20 7 21 8 22 12 23 9 24
REMARK SMILES IDX 11 25 10 26
REMARK H PARENT 15 9
ROOT
ATOM      1  C   UNL     1       2.299  43.067  52.312  1.00  0.00     0.196 C 
ENDROOT
BRANCH   1   2
ATOM      2  C   UNL     1       2.332  43.961  53.525  1.00  0.00    -0.020 A 
ATOM      3  C   UNL     1       1.318  44.777  55.566  1.00  0.00     0.003 A 
ATOM      4  C   UNL     1       1.295  43.927  54.465  1.00  0.00     0.006 A 
ATOM      5  C   UNL     1       2.378  45.670  55.735  1.00  0.00     0.026 A 
ATOM      6  C   UNL     1       3.436  45.733  54.812  1.00  0.00     0.043 A 
ATOM      7  C   UNL     1       3.385  44.878  53.704  1.00  0.00     0.032 A 
BRANCH   6   8
ATOM      8  N   UNL     1       4.462  46.669  55.036  1.00  0.00    -0.309 N 
ATOM      9  H   UNL     1       4.381  47.189  55.898  1.00  0.00     0.171 HD
BRANCH   8  10
ATOM     10  C   UNL     1       5.586  46.884  54.330  1.00  0.00     0.300 A 
ATOM     11  N   UNL     1       5.806  47.513  53.192  1.00  0.00    -0.193 NA
ATOM     12  O   UNL     1       6.715  46.353  54.906  1.00  0.00    -0.423 OA
ATOM     13  C   UNL     1       7.157  47.389  52.996  1.00  0.00     0.111 A 
ATOM     14  C   UNL     1       7.717  46.678  54.042  1.00  0.00     0.156 A 
ATOM     15  C   UNL     1       7.989  47.847  51.966  1.00  0.00     0.032 A 
ATOM     16  C   UNL     1       9.067  46.367  54.159  1.00  0.00     0.049 A 
ATOM     17  C   UNL     1       9.359  47.557  52.044  1.00  0.00     0.003 A 
ATOM     18  C   UNL     1       9.886  46.830  53.121  1.00  0.00     0.004 A 
ENDBRANCH   8  10
ENDBRANCH   6   8
ENDBRANCH   1   2
BRANCH   1  19
ATOM     19  O   UNL     1       3.514  42.317  52.243  1.00  0.00    -0.374 OA
BRANCH  19  20
ATOM     20  C   UNL     1       3.917  42.090  50.894  1.00  0.00     0.192 C 
BRANCH  20  21
ATOM     21  C   UNL     1       5.306  42.697  50.654  1.00  0.00     0.144 C 
ATOM     22  C   UNL     1       5.259  44.228  50.622  1.00  0.00     0.034 C 
ATOM     23  O   UNL     1       5.823  42.152  49.431  1.00  0.00    -0.376 OA
ATOM     24  C   UNL     1       6.660  44.812  50.443  1.00  0.00     0.005 C 
ATOM     25  C   UNL     1       6.832  42.935  48.787  1.00  0.00     0.160 C 
ATOM     26  C   UNL     1       7.602  43.838  49.739  1.00  0.00     0.029 C 
ENDBRANCH  20  21
ENDBRANCH  19  20
ENDBRANCH   1  19
TORSDOF 6
ENDMDL
MODEL 3
REMARK VINA RESULT:    -8.952      2.182      4.587
REMARK INTER + INTRA:         -13.271
REMARK INTER:                 -12.080
REMARK INTRA:                  -1.191
REMARK UNBOUND:                -1.179
REMARK SMILES c1cc(COCC2CCCCO2)cc(Nc2nc3ccccc3o2)c1
REMARK SMILES IDX 4 1 3 2 1 3 2 4 25 5 14 6 13 7 15 8 16 10 17 11 24 12 18 13
REMARK SMILES IDX 23 14 19 15 22 16 20 17 21 18 5 19 6 20 7 21 8 22 12 23 9 24
REMARK SMILES IDX 11 25 10 26
REMARK H PARENT 15 9
ROOT
ATOM      1  C   UNL     1       2.189  42.830  52.147  1.00  0.00     0.196 C 
ENDROOT
BRANCH   1   2
ATOM      2  C   UNL     1       3.475  42.753  51.362  1.00  0.00    -0.020 A 
ATOM      3  C   UNL     1       5.123  41.465  50.144  1.00  0.00     0.003 A 
ATOM      4  C   UNL     1       3.922  41.533  50.842  1.00  0.00     0.006 A 
ATOM      5  C   UNL     1       5.891  42.619  49.965  1.00  0.00     0.026 A 
ATOM      6  C   UNL     1       5.475  43.861  50.473  1.00  0.00     0.043 A 
ATOM      7  C   UNL     1       4.268  43.902  51.184  1.00  0.00     0.032 A 
BRANCH   6   8
ATOM      8  N   UNL     1       6.306  44.978  50.270  1.00  0.00    -0.309 N 
ATOM      9  H   UNL     1       6.114  45.500  49.427  1.00  0.00     0.171 HD
BRANCH   8  10
ATOM     10  C   UNL     1       7.230  45.510  51.088  1.00  0.00     0.300 A 
ATOM     11  N   UNL     1       8.538  45.635  50.977  1.00  0.00    -0.193 NA
ATOM     12  O   UNL     1       6.714  46.023  52.253  1.00  0.00    -0.423 OA
ATOM     13  C   UNL     1       8.915  46.262  52.137  1.00  0.00     0.111 A 
ATOM     14  C   UNL     1       7.801  46.500  52.921  1.00  0.00     0.156 A 
ATOM     15  C   UNL     1      10.172  46.667  52.604  1.00  0.00     0.032 A 
ATOM     16  C   UNL     1       7.823  47.118  54.166  1.00  0.00     0.049 A 
ATOM     17  C   UNL     1      10.240  47.296  53.856  1.00  0.00     0.003 A 
ATOM     18  C   UNL     1       9.086  47.516  54.621  1.00  0.00     0.004 A 
ENDBRANCH   8  10
ENDBRANCH   6   8
ENDBRANCH   1   2
BRANCH   1  19
ATOM     19  O   UNL     1       1.635  44.141  52.021  1.00  0.00    -0.374 OA
BRANCH  19  20
ATOM     20  C   UNL     1       1.177  44.642  53.275  1.00  0.00     0.192 C 
BRANCH  20  21
ATOM     21  C   UNL     1       2.158  45.695  53.808  1.00  0.00     0.144 C 
ATOM     22  C   UNL     1       2.828  46.474  52.671  1.00  0.00     0.034 C 
ATOM     23  O   UNL     1       3.120  45.027  54.638  1.00  0.00    -0.376 OA
ATOM     24  C   UNL     1       3.753  47.557  53.224  1.00  0.00     0.005 C 
ATOM     25  C   UNL     1       4.364  45.710  54.808  1.00  0.00     0.160 C 
ATOM     26  C   UNL     1       4.263  47.217  54.623  1.00  0.00     0.029 C 
ENDBRANCH  20  21
ENDBRANCH  19  20
ENDBRANCH   1  19
TORSDOF 6
ENDMDL
MODEL 4
REMARK VINA RESULT:    -8.924      1.373      5.383
REMARK INTER + INTRA:         -13.233
REMARK INTER:                 -11.833
REMARK INTRA:                  -1.400
REMARK UNBOUND:                -1.179
REMARK SMILES c1cc(COCC2CCCCO2)cc(Nc2nc3ccccc3o2)c1
REMARK SMILES IDX 4 1 3 2 1 3 2 4 25 5 14 6 13 7 15 8 16 10 17 11 24 12 18 13
REMARK SMILES IDX 23 14 19 15 22 16 20 17 21 18 5 19 6 20 7 21 8 22 12 23 9 24
REMARK SMILES IDX 11 25 10 26
REMARK H PARENT 15 9
ROOT
ATOM      1  C   UNL     1       8.599  45.530  50.500  1.00  0.00     0.196 C 
ENDROOT
BRANCH   1   2
ATOM      2  C   UNL     1       8.668  46.193  51.853  1.00  0.00    -0.020 A 
ATOM      3  C   UNL     1       9.954  47.172  53.654  1.00  0.00     0.003 A 
ATOM      4  C   UNL     1       9.897  46.588  52.393  1.00  0.00     0.006 A 
ATOM      5  C   UNL     1       8.781  47.360  54.389  1.00  0.00     0.026 A 
ATOM      6  C   UNL     1       7.529  46.975  53.880  1.00  0.00     0.043 A 
ATOM      7  C   UNL     1       7.498  46.377  52.613  1.00  0.00     0.032 A 
BRANCH   6   8
ATOM      8  N   UNL     1       6.391  47.180  54.681  1.00  0.00    -0.309 N 
ATOM      9  H   UNL     1       6.485  47.913  55.369  1.00  0.00     0.171 HD
BRANCH   8  10
ATOM     10  C   UNL     1       5.171  46.624  54.583  1.00  0.00     0.300 A 
ATOM     11  N   UNL     1       4.545  45.734  55.328  1.00  0.00    -0.193 NA
ATOM     12  O   UNL     1       4.440  47.073  53.511  1.00  0.00    -0.423 OA
ATOM     13  C   UNL     1       3.330  45.576  54.713  1.00  0.00     0.111 A 
ATOM     14  C   UNL     1       3.262  46.393  53.599  1.00  0.00     0.156 A 
ATOM     15  C   UNL     1       2.231  44.768  55.029  1.00  0.00     0.032 A 
ATOM     16  C   UNL     1       2.171  46.479  52.743  1.00  0.00     0.049 A 
ATOM     17  C   UNL     1       1.106  44.825  54.192  1.00  0.00     0.003 A 
ATOM     18  C   UNL     1       1.079  45.665  53.070  1.00  0.00     0.004 A 
ENDBRANCH   8  10
ENDBRANCH   6   8
ENDBRANCH   1   2
BRANCH   1  19
ATOM     19  O   UNL     1       7.244  45.181  50.212  1.00  0.00    -0.374 OA
BRANCH  19  20
ATOM     20  C   UNL     1       7.120  43.806  49.854  1.00  0.00     0.192 C 
BRANCH  20  21
ATOM     21  C   UNL     1       5.685  43.326  50.108  1.00  0.00     0.144 C 
ATOM     22  C   UNL     1       5.153  43.816  51.459  1.00  0.00     0.034 C 
ATOM     23  O   UNL     1       5.673  41.893  50.018  1.00  0.00    -0.376 OA
ATOM     24  C   UNL     1       3.703  43.379  51.664  1.00  0.00     0.005 C 
ATOM     25  C   UNL     1       4.596  41.243  50.698  1.00  0.00     0.160 C 
ATOM     26  C   UNL     1       3.365  42.121  50.868  1.00  0.00     0.029 C 
ENDBRANCH  20  21
ENDBRANCH  19  20
ENDBRANCH   1  19
TORSDOF 6
ENDMDL
MODEL 5
REMARK VINA RESULT:    -8.683      2.438      6.727
REMARK INTER + INTRA:         -12.908
REMARK INTER:                 -12.020
REMARK INTRA:                  -0.888
REMARK UNBOUND:                -1.179
REMARK SMILES c1cc(COCC2CCCCO2)cc(Nc2nc3ccccc3o2)c1
REMARK SMILES IDX 4 1 3 2 1 3 2 4 25 5 14 6 13 7 15 8 16 10 17 11 24 12 18 13
REMARK SMILES IDX 23 14 19 15 22 16 20 17 21 18 5 19 6 20 7 21 8 22 12 23 9 24
REMARK SMILES IDX 11 25 10 26
REMARK H PARENT 15 9
ROOT
ATOM      1  C   UNL     1       7.427  47.156  54.426  1.00  0.00     0.196 C 
ENDROOT
BRANCH   1   2
ATOM      2  C   UNL     1       8.351  46.684  53.332  1.00  0.00    -0.020 A 
ATOM      3  C   UNL     1      10.578  46.457  52.411  1.00  0.00     0.003 A 
ATOM      4  C   UNL     1       9.735  46.869  53.438  1.00  0.00     0.006 A 
ATOM      5  C   UNL     1      10.043  45.860  51.267  1.00  0.00     0.026 A 
ATOM      6  C   UNL     1       8.659  45.659  51.125  1.00  0.00     0.043 A 
ATOM      7  C   UNL     1       7.829  46.094  52.166  1.00  0.00     0.032 A 
BRANCH   6   8
ATOM      8  N   UNL     1       8.189  45.067  49.939  1.00  0.00    -0.309 N 
ATOM      9  H   UNL     1       8.664  45.366  49.099  1.00  0.00     0.171 HD
BRANCH   8  10
ATOM     10  C   UNL     1       7.286  44.084  49.778  1.00  0.00     0.300 A 
ATOM     11  N   UNL     1       7.172  43.131  48.874  1.00  0.00    -0.193 NA
ATOM     12  O   UNL     1       6.305  44.067  50.739  1.00  0.00    -0.423 OA
ATOM     13  C   UNL     1       6.047  42.444  49.250  1.00  0.00     0.111 A 
ATOM     14  C   UNL     1       5.512  43.015  50.391  1.00  0.00     0.156 A 
ATOM     15  C   UNL     1       5.412  41.330  48.688  1.00  0.00     0.032 A 
ATOM     16  C   UNL     1       4.367  42.569  51.040  1.00  0.00     0.049 A 
ATOM     17  C   UNL     1       4.252  40.845  49.312  1.00  0.00     0.003 A 
ATOM     18  C   UNL     1       3.741  41.455  50.466  1.00  0.00     0.004 A 
ENDBRANCH   8  10
ENDBRANCH   6   8
ENDBRANCH   1   2
BRANCH   1  19
ATOM     19  O   UNL     1       6.153  47.477  53.863  1.00  0.00    -0.374 OA
BRANCH  19  20
ATOM     20  C   UNL     1       5.105  46.722  54.469  1.00  0.00     0.192 C 
BRANCH  20  21
ATOM     21  C   UNL     1       4.204  46.114  53.386  1.00  0.00     0.144 C 
ATOM     22  C   UNL     1       4.337  46.858  52.053  1.00  0.00     0.034 C 
ATOM     23  O   UNL     1       2.854  46.127  53.872  1.00  0.00    -0.376 OA
ATOM     24  C   UNL     1       3.479  46.200  50.974  1.00  0.00     0.005 C 
ATOM     25  C   UNL     1       1.838  46.084  52.867  1.00  0.00     0.160 C 
ATOM     26  C   UNL     1       2.294  45.440  51.566  1.00  0.00     0.029 C 
ENDBRANCH  20  21
ENDBRANCH  19  20
ENDBRANCH   1  19
TORSDOF 6
ENDMDL
MODEL 6
REMARK VINA RESULT:    -8.465      2.669      5.293
REMARK INTER + INTRA:         -12.613
REMARK INTER:                 -11.487
REMARK INTRA:                  -1.126
REMARK UNBOUND:                -1.179
REMARK SMILES c1cc(COCC2CCCCO2)cc(Nc2nc3ccccc3o2)c1
REMARK SMILES IDX 4 1 3 2 1 3 2 4 25 5 14 6 13 7 15 8 16 10 17 11 24 12 18 13
REMARK SMILES IDX 23 14 19 15 22 16 20 17 21 18 5 19 6 20 7 21 8 22 12 23 9 24
REMARK SMILES IDX 11 25 10 26
REMARK H PARENT 15 9
ROOT
ATOM      1  C   UNL     1       4.117  41.206  51.257  1.00  0.00     0.196 C 
ENDROOT
BRANCH   1   2
ATOM      2  C   UNL     1       4.797  41.516  49.947  1.00  0.00    -0.020 A 
ATOM      3  C   UNL     1       4.980  41.226  47.551  1.00  0.00     0.003 A 
ATOM      4  C   UNL     1       4.329  40.958  48.751  1.00  0.00     0.006 A 
ATOM      5  C   UNL     1       6.107  42.051  47.538  1.00  0.00     0.026 A 
ATOM      6  C   UNL     1       6.605  42.628  48.718  1.00  0.00     0.043 A 
ATOM      7  C   UNL     1       5.942  42.334  49.917  1.00  0.00     0.032 A 
BRANCH   6   8
ATOM      8  N   UNL     1       7.754  43.435  48.633  1.00  0.00    -0.309 N 
ATOM      9  H   UNL     1       8.183  43.467  47.720  1.00  0.00     0.171 HD
BRANCH   8  10
ATOM     10  C   UNL     1       8.289  44.254  49.556  1.00  0.00     0.300 A 
ATOM     11  N   UNL     1       9.511  44.358  50.040  1.00  0.00    -0.193 NA
ATOM     12  O   UNL     1       7.395  45.151  50.089  1.00  0.00    -0.423 OA
ATOM     13  C   UNL     1       9.425  45.379  50.951  1.00  0.00     0.111 A 
ATOM     14  C   UNL     1       8.131  45.866  50.985  1.00  0.00     0.156 A 
ATOM     15  C   UNL     1      10.389  45.957  51.787  1.00  0.00     0.032 A 
ATOM     16  C   UNL     1       7.693  46.902  51.802  1.00  0.00     0.049 A 
ATOM     17  C   UNL     1       9.991  47.007  52.628  1.00  0.00     0.003 A 
ATOM     18  C   UNL     1       8.667  47.469  52.633  1.00  0.00     0.004 A 
ENDBRANCH   8  10
ENDBRANCH   6   8
ENDBRANCH   1   2
BRANCH   1  19
ATOM     19  O   UNL     1       3.757  42.428  51.904  1.00  0.00    -0.374 OA
BRANCH  19  20
ATOM     20  C   UNL     1       2.579  42.997  51.337  1.00  0.00     0.192 C 
BRANCH  20  21
ATOM     21  C   UNL     1       2.571  44.516  51.558  1.00  0.00     0.144 C 
ATOM     22  C   UNL     1       3.913  45.151  51.179  1.00  0.00     0.034 C 
ATOM     23  O   UNL     1       2.233  44.763  52.931  1.00  0.00    -0.376 OA
ATOM     24  C   UNL     1       3.864  46.669  51.348  1.00  0.00     0.005 C 
ATOM     25  C   UNL     1       2.654  46.027  53.450  1.00  0.00     0.160 C 
ATOM     26  C   UNL     1       2.826  47.097  52.383  1.00  0.00     0.029 C 
ENDBRANCH  20  21
ENDBRANCH  19  20
ENDBRANCH   1  19
TORSDOF 6
ENDMDL
MODEL 7
REMARK VINA RESULT:    -8.296      2.351      3.353
REMARK INTER + INTRA:         -12.385
REMARK INTER:                 -11.801
REMARK INTRA:                  -0.584
REMARK UNBOUND:                -1.179
REMARK SMILES c1cc(COCC2CCCCO2)cc(Nc2nc3ccccc3o2)c1
REMARK SMILES IDX 4 1 3 2 1 3 2 4 25 5 14 6 13 7 15 8 16 10 17 11 24 12 18 13
REMARK SMILES IDX 23 14 19 15 22 16 20 17 21 18 5 19 6 20 7 21 8 22 12 23 9 24
REMARK SMILES IDX 11 25 10 26
REMARK H PARENT 15 9
ROOT
ATOM      1  C   UNL     1       4.295  41.581  51.022  1.00  0.00     0.196 C 
ENDROOT
BRANCH   1   2
ATOM      2  C   UNL     1       3.642  42.929  51.198  1.00  0.00    -0.020 A 
ATOM      3  C   UNL     1       1.657  44.311  51.276  1.00  0.00     0.003 A 
ATOM      4  C   UNL     1       2.250  43.060  51.141  1.00  0.00     0.006 A 
ATOM      5  C   UNL     1       2.453  45.443  51.464  1.00  0.00     0.026 A 
ATOM      6  C   UNL     1       3.854  45.350  51.526  1.00  0.00     0.043 A 
ATOM      7  C   UNL     1       4.430  44.082  51.374  1.00  0.00     0.032 A 
BRANCH   6   8
ATOM      8  N   UNL     1       4.595  46.534  51.701  1.00  0.00    -0.309 N 
ATOM      9  H   UNL     1       4.098  47.382  51.468  1.00  0.00     0.171 HD
BRANCH   8  10
ATOM     10  C   UNL     1       5.815  46.702  52.239  1.00  0.00     0.300 A 
ATOM     11  N   UNL     1       6.206  47.178  53.405  1.00  0.00    -0.193 NA
ATOM     12  O   UNL     1       6.844  46.297  51.424  1.00  0.00    -0.423 OA
ATOM     13  C   UNL     1       7.573  47.091  53.362  1.00  0.00     0.111 A 
ATOM     14  C   UNL     1       7.968  46.554  52.150  1.00  0.00     0.156 A 
ATOM     15  C   UNL     1       8.553  47.440  54.300  1.00  0.00     0.032 A 
ATOM     16  C   UNL     1       9.287  46.330  51.772  1.00  0.00     0.049 A 
ATOM     17  C   UNL     1       9.898  47.230  53.960  1.00  0.00     0.003 A 
ATOM     18  C   UNL     1      10.256  46.685  52.719  1.00  0.00     0.004 A 
ENDBRANCH   8  10
ENDBRANCH   6   8
ENDBRANCH   1   2
BRANCH   1  19
ATOM     19  O   UNL     1       4.109  41.138  49.676  1.00  0.00    -0.374 OA
BRANCH  19  20
ATOM     20  C   UNL     1       5.310  41.248  48.915  1.00  0.00     0.192 C 
BRANCH  20  21
ATOM     21  C   UNL     1       5.041  40.869  47.452  1.00  0.00     0.144 C 
ATOM     22  C   UNL     1       5.432  41.997  46.492  1.00  0.00     0.034 C 
ATOM     23  O   UNL     1       3.653  40.522  47.332  1.00  0.00    -0.376 OA
ATOM     24  C   UNL     1       5.213  41.576  45.040  1.00  0.00     0.005 C 
ATOM     25  C   UNL     1       3.104  40.631  46.016  1.00  0.00     0.160 C 
ATOM     26  C   UNL     1       4.141  40.497  44.910  1.00  0.00     0.029 C 
ENDBRANCH  20  21
ENDBRANCH  19  20
ENDBRANCH   1  19
TORSDOF 6
ENDMDL
MODEL 8
REMARK VINA RESULT:    -8.231      2.323      5.111
REMARK INTER + INTRA:         -12.297
REMARK INTER:                 -11.274
REMARK INTRA:                  -1.023
REMARK UNBOUND:                -1.179
REMARK SMILES c1cc(COCC2CCCCO2)cc(Nc2nc3ccccc3o2)c1
REMARK SMILES IDX 4 1 3 2 1 3 2 4 25 5 14 6 13 7 15 8 16 10 17 11 24 12 18 13
REMARK SMILES IDX 23 14 19 15 22 16 20 17 21 18 5 19 6 20 7 21 8 22 12 23 9 24
REMARK SMILES IDX 11 25 10 26
REMARK H PARENT 15 9
ROOT
ATOM      1  C   UNL     1       0.211  43.967  51.022  1.00  0.00     0.196 C 
ENDROOT
BRANCH   1   2
ATOM      2  C   UNL     1       1.701  43.910  51.250  1.00  0.00    -0.020 A 
ATOM      3  C   UNL     1       3.691  42.671  51.853  1.00  0.00     0.003 A 
ATOM      4  C   UNL     1       2.321  42.709  51.616  1.00  0.00     0.006 A 
ATOM      5  C   UNL     1       4.452  43.836  51.731  1.00  0.00     0.026 A 
ATOM      6  C   UNL     1       3.864  45.060  51.367  1.00  0.00     0.043 A 
ATOM      7  C   UNL     1       2.481  45.077  51.146  1.00  0.00     0.032 A 
BRANCH   6   8
ATOM      8  N   UNL     1       4.688  46.196  51.280  1.00  0.00    -0.309 N 
ATOM      9  H   UNL     1       4.291  46.968  50.764  1.00  0.00     0.171 HD
BRANCH   8  10
ATOM     10  C   UNL     1       5.866  46.441  51.880  1.00  0.00     0.300 A 
ATOM     11  N   UNL     1       6.166  46.928  53.068  1.00  0.00    -0.193 NA
ATOM     12  O   UNL     1       6.959  46.118  51.113  1.00  0.00    -0.423 OA
ATOM     13  C   UNL     1       7.537  46.935  53.092  1.00  0.00     0.111 A 
ATOM     14  C   UNL     1       8.026  46.441  51.896  1.00  0.00     0.156 A 
ATOM     15  C   UNL     1       8.443  47.339  54.080  1.00  0.00     0.032 A 
ATOM     16  C   UNL     1       9.374  46.313  51.582  1.00  0.00     0.049 A 
ATOM     17  C   UNL     1       9.815  47.225  53.806  1.00  0.00     0.003 A 
ATOM     18  C   UNL     1      10.270  46.722  52.579  1.00  0.00     0.004 A 
ENDBRANCH   8  10
ENDBRANCH   6   8
ENDBRANCH   1   2
BRANCH   1  19
ATOM     19  O   UNL     1      -0.381  44.846  51.981  1.00  0.00    -0.374 OA
BRANCH  19  20
ATOM     20  C   UNL     1      -0.730  44.157  53.180  1.00  0.00     0.192 C 
BRANCH  20  21
ATOM     21  C   UNL     1      -0.125  44.877  54.393  1.00  0.00     0.144 C 
ATOM     22  C   UNL     1       1.252  44.312  54.760  1.00  0.00     0.034 C 
ATOM     23  O   UNL     1      -1.053  44.770  55.482  1.00  0.00    -0.376 OA
ATOM     24  C   UNL     1       1.862  45.082  55.930  1.00  0.00     0.005 C 
ATOM     25  C   UNL     1      -0.489  44.917  56.788  1.00  0.00     0.160 C 
ATOM     26  C   UNL     1       0.796  45.731  56.808  1.00  0.00     0.029 C 
ENDBRANCH  20  21
ENDBRANCH  19  20
ENDBRANCH   1  19
TORSDOF 6
ENDMDL
MODEL 9
REMARK VINA RESULT:    -8.136      2.518      7.138
REMARK INTER + INTRA:         -12.169
REMARK INTER:                 -10.869
REMARK INTRA:                  -1.300
REMARK UNBOUND:                -1.179
REMARK SMILES c1cc(COCC2CCCCO2)cc(Nc2nc3ccccc3o2)c1
REMARK SMILES IDX 4 1 3 2 1 3 2 4 25 5 14 6 13 7 15 8 16 10 17 11 24 12 18 13
REMARK SMILES IDX 23 14 19 15 22 16 20 17 21 18 5 19 6 20 7 21 8 22 12 23 9 24
REMARK SMILES IDX 11 25 10 26
REMARK H PARENT 15 9
ROOT
ATOM      1  C   UNL     1       7.018  45.440  50.461  1.00  0.00     0.196 C 
ENDROOT
BRANCH   1   2
ATOM      2  C   UNL     1       6.437  44.057  50.304  1.00  0.00    -0.020 A 
ATOM      3  C   UNL     1       6.454  41.873  49.259  1.00  0.00     0.003 A 
ATOM      4  C   UNL     1       7.014  43.137  49.420  1.00  0.00     0.006 A 
ATOM      5  C   UNL     1       5.308  41.522  49.977  1.00  0.00     0.026 A 
ATOM      6  C   UNL     1       4.701  42.420  50.872  1.00  0.00     0.043 A 
ATOM      7  C   UNL     1       5.275  43.691  51.008  1.00  0.00     0.032 A 
BRANCH   6   8
ATOM      8  N   UNL     1       3.540  42.005  51.549  1.00  0.00    -0.309 N 
ATOM      9  H   UNL     1       3.619  41.114  52.018  1.00  0.00     0.171 HD
BRANCH   8  10
ATOM     10  C   UNL     1       2.392  42.673  51.757  1.00  0.00     0.300 A 
ATOM     11  N   UNL     1       1.579  43.305  50.933  1.00  0.00    -0.193 NA
ATOM     12  O   UNL     1       1.991  42.695  53.070  1.00  0.00    -0.423 OA
ATOM     13  C   UNL     1       0.582  43.780  51.745  1.00  0.00     0.111 A 
ATOM     14  C   UNL     1       0.831  43.410  53.055  1.00  0.00     0.156 A 
ATOM     15  C   UNL     1      -0.567  44.529  51.459  1.00  0.00     0.032 A 
ATOM     16  C   UNL     1       0.022  43.730  54.138  1.00  0.00     0.049 A 
ATOM     17  C   UNL     1      -1.414  44.873  52.524  1.00  0.00     0.003 A 
ATOM     18  C   UNL     1      -1.123  44.480  53.838  1.00  0.00     0.004 A 
ENDBRANCH   8  10
ENDBRANCH   6   8
ENDBRANCH   1   2
BRANCH   1  19
ATOM     19  O   UNL     1       7.326  45.670  51.837  1.00  0.00    -0.374 OA
BRANCH  19  20
ATOM     20  C   UNL     1       6.742  46.881  52.312  1.00  0.00     0.192 C 
BRANCH  20  21
ATOM     21  C   UNL     1       5.793  46.583  53.481  1.00  0.00     0.144 C 
ATOM     22  C   UNL     1       6.165  45.279  54.195  1.00  0.00     0.034 C 
ATOM     23  O   UNL     1       4.454  46.547  52.967  1.00  0.00    -0.376 OA
ATOM     24  C   UNL     1       5.247  45.033  55.391  1.00  0.00     0.005 C 
ATOM     25  C   UNL     1       3.513  45.811  53.754  1.00  0.00     0.160 C 
ATOM     26  C   UNL     1       3.891  45.716  55.224  1.00  0.00     0.029 C 
ENDBRANCH  20  21
ENDBRANCH  19  20
ENDBRANCH   1  19
TORSDOF 6
ENDMDL
MODEL 10
REMARK VINA RESULT:    -8.136      2.583      4.982
REMARK INTER + INTRA:         -12.169
REMARK INTER:                 -10.757
REMARK INTRA:                  -1.412
REMARK UNBOUND:                -1.179
REMARK SMILES c1cc(COCC2CCCCO2)cc(Nc2nc3ccccc3o2)c1
REMARK SMILES IDX 4 1 3 2 1 3 2 4 25 5 14 6 13 7 15 8 16 10 17 11 24 12 18 13
REMARK SMILES IDX 23 14 19 15 22 16 20 17 21 18 5 19 6 20 7 21 8 22 12 23 9 24
REMARK SMILES IDX 11 25 10 26
REMARK H PARENT 15 9
ROOT
ATOM      1  C   UNL     1       0.682  44.474  54.886  1.00  0.00     0.196 C 
ENDROOT
BRANCH   1   2
ATOM      2  C   UNL     1       0.852  43.997  53.465  1.00  0.00    -0.020 A 
ATOM      3  C   UNL     1       0.005  43.759  51.210  1.00  0.00     0.003 A 
ATOM      4  C   UNL     1      -0.147  44.227  52.511  1.00  0.00     0.006 A 
ATOM      5  C   UNL     1       1.156  43.052  50.854  1.00  0.00     0.026 A 
ATOM      6  C   UNL     1       2.178  42.802  51.784  1.00  0.00     0.043 A 
ATOM      7  C   UNL     1       1.998  43.271  53.092  1.00  0.00     0.032 A 
BRANCH   6   8
ATOM      8  N   UNL     1       3.302  42.069  51.360  1.00  0.00    -0.309 N 
ATOM      9  H   UNL     1       3.174  41.067  51.349  1.00  0.00     0.171 HD
BRANCH   8  10
ATOM     10  C   UNL     1       4.469  42.513  50.862  1.00  0.00     0.300 A 
ATOM     11  N   UNL     1       5.366  41.945  50.080  1.00  0.00    -0.193 NA
ATOM     12  O   UNL     1       4.779  43.798  51.233  1.00  0.00    -0.423 OA
ATOM     13  C   UNL     1       6.332  42.906  49.925  1.00  0.00     0.111 A 
ATOM     14  C   UNL     1       5.977  44.041  50.631  1.00  0.00     0.156 A 
ATOM     15  C   UNL     1       7.535  42.901  49.208  1.00  0.00     0.032 A 
ATOM     16  C   UNL     1       6.734  45.205  50.695  1.00  0.00     0.049 A 
ATOM     17  C   UNL     1       8.330  44.057  49.244  1.00  0.00     0.003 A 
ATOM     18  C   UNL     1       7.935  45.187  49.974  1.00  0.00     0.004 A 
ENDBRANCH   8  10
ENDBRANCH   6   8
ENDBRANCH   1   2
BRANCH   1  19
ATOM     19  O   UNL     1       1.962  44.552  55.515  1.00  0.00    -0.374 OA
BRANCH  19  20
ATOM     20  C   UNL     1       2.341  45.902  55.772  1.00  0.00     0.192 C 
BRANCH  20  21
ATOM     21  C   UNL     1       3.781  46.142  55.298  1.00  0.00     0.144 C 
ATOM     22  C   UNL     1       3.822  46.749  53.891  1.00  0.00     0.034 C 
ATOM     23  O   UNL     1       4.483  44.892  55.360  1.00  0.00    -0.376 OA
ATOM     24  C   UNL     1       5.261  47.035  53.464  1.00  0.00     0.005 C 
ATOM     25  C   UNL     1       5.632  44.789  54.517  1.00  0.00     0.160 C 
ATOM     26  C   UNL     1       6.263  46.132  54.179  1.00  0.00     0.029 C 
ENDBRANCH  20  21
ENDBRANCH  19  20
ENDBRANCH   1  19
TORSDOF 6
ENDMDL
