MODEL 1
REMARK VINA RESULT:    -9.306      0.000      0.000
REMARK INTER + INTRA:         -13.142
REMARK INTER:                 -12.026
REMARK INTRA:                  -1.116
REMARK UNBOUND:                -1.116
REMARK SMILES O=C(NCC1CC1)C1CCCN(C(=O)c2cccc3cn[nH]c23)C1
REMARK SMILES IDX 8 1 9 2 10 3 11 4 12 5 24 6 2 7 3 8 1 9 4 11 5 12 6 13 7 14
REMARK SMILES IDX 13 15 14 16 15 17 16 18 23 19 17 20 22 21 19 22 18 23 21 24
REMARK SMILES IDX 20 25
REMARK H PARENT 3 10 22 26
ROOT
ATOM      1  C   UNL     1       5.639  45.282  54.889  1.00  0.00     0.098 C 
ATOM      2  C   UNL     1       4.351  45.457  55.715  1.00  0.00     0.017 C 
ATOM      3  C   UNL     1       3.075  45.397  54.875  1.00  0.00     0.022 C 
ATOM      4  C   UNL     1       3.271  46.041  53.509  1.00  0.00     0.120 C 
ATOM      5  N   UNL     1       4.319  45.360  52.749  1.00  0.00    -0.338 N 
ATOM      6  C   UNL     1       5.374  44.687  53.503  1.00  0.00     0.133 C 
ENDROOT
BRANCH   1   7
ATOM      7  C   UNL     1       6.417  46.595  54.797  1.00  0.00     0.224 C 
ATOM      8  N   UNL     1       7.756  46.417  54.504  1.00  0.00    -0.356 N 
ATOM      9  O   UNL     1       5.921  47.700  54.981  1.00  0.00    -0.275 OA
ATOM     10  H   UNL     1       8.048  45.526  54.132  1.00  0.00     0.163 HD
BRANCH   8  11
ATOM     11  C   UNL     1       8.615  47.558  54.285  1.00  0.00     0.119 C 
BRANCH  11  12
ATOM     12  C   UNL     1       9.736  47.285  53.329  1.00  0.00     0.008 C 
ATOM     13  C   UNL     1       9.902  45.970  52.605  1.00  0.00     0.006 C 
ATOM     14  C   UNL     1       9.537  47.211  51.833  1.00  0.00     0.006 C 
ENDBRANCH  11  12
ENDBRANCH   8  11
ENDBRANCH   1   7
BRANCH   5  15
ATOM     15  C   UNL     1       4.254  45.110  51.379  1.00  0.00     0.256 C 
ATOM     16  O   UNL     1       3.246  45.330  50.709  1.00  0.00    -0.269 OA
BRANCH  15  17
ATOM     17  C   UNL     1       5.446  44.591  50.672  1.00  0.00     0.065 A 
ATOM     18  C   UNL     1       6.603  45.354  50.453  1.00  0.00     0.016 A 
ATOM     19  C   UNL     1       5.477  43.255  50.255  1.00  0.00     0.078 A 
ATOM     20  C   UNL     1       7.702  44.813  49.782  1.00  0.00     0.002 A 
ATOM     21  N   UNL     1       4.566  42.241  50.396  1.00  0.00    -0.277 N 
ATOM     22  C   UNL     1       6.556  42.695  49.584  1.00  0.00     0.020 A 
ATOM     23  C   UNL     1       7.689  43.487  49.327  1.00  0.00     0.012 A 
ATOM     24  N   UNL     1       4.941  41.086  49.812  1.00  0.00    -0.183 NA
ATOM     25  C   UNL     1       6.157  41.363  49.333  1.00  0.00     0.143 A 
ATOM     26  H   UNL     1       3.680  42.285  50.893  1.00  0.00     0.190 HD
ENDBRANCH  15  17
ENDBRANCH   5  15
TORSDOF 5
ENDMDL
MODEL 2
REMARK VINA RESULT:    -9.080      1.375      2.030
REMARK INTER + INTRA:         -12.850
REMARK INTER:                 -12.259
REMARK INTRA:                  -0.591
REMARK UNBOUND:                -1.116
REMARK SMILES O=C(NCC1CC1)C1CCCN(C(=O)c2cccc3cn[nH]c23)C1
REMARK SMILES IDX 8 1 9 2 10 3 11 4 12 5 24 6 2 7 3 8 1 9 4 11 5 12 6 13 7 14
REMARK SMILES IDX 13 15 14 16 15 17 16 18 23 19 17 20 22 21 19 22 18 23 21 24
REMARK SMILES IDX 20 25
REMARK H PARENT 3 10 22 26
ROOT
ATOM      1  C   UNL     1       5.614  45.245  54.717  1.00  0.00     0.098 C 
ATOM      2  C   UNL     1       4.473  45.516  55.715  1.00  0.00     0.017 C 
ATOM      3  C   UNL     1       3.080  45.316  55.118  1.00  0.00     0.022 C 
ATOM      4  C   UNL     1       3.023  45.760  53.662  1.00  0.00     0.120 C 
ATOM      5  N   UNL     1       3.959  44.994  52.839  1.00  0.00    -0.338 N 
ATOM      6  C   UNL     1       5.150  44.453  53.492  1.00  0.00     0.133 C 
ENDROOT
BRANCH   1   7
ATOM      7  C   UNL     1       6.314  46.543  54.315  1.00  0.00     0.224 C 
ATOM      8  N   UNL     1       7.067  46.423  53.162  1.00  0.00    -0.356 N 
ATOM      9  O   UNL     1       6.241  47.588  54.951  1.00  0.00    -0.275 OA
ATOM     10  H   UNL     1       6.898  45.629  52.563  1.00  0.00     0.163 HD
BRANCH   8  11
ATOM     11  C   UNL     1       7.715  47.579  52.587  1.00  0.00     0.119 C 
BRANCH  11  12
ATOM     12  C   UNL     1       9.199  47.594  52.794  1.00  0.00     0.008 C 
ATOM     13  C   UNL     1       9.906  46.689  53.775  1.00  0.00     0.006 C 
ATOM     14  C   UNL     1      10.107  46.495  52.295  1.00  0.00     0.006 C 
ENDBRANCH  11  12
ENDBRANCH   8  11
ENDBRANCH   1   7
BRANCH   5  15
ATOM     15  C   UNL     1       3.681  44.550  51.548  1.00  0.00     0.256 C 
ATOM     16  O   UNL     1       2.771  45.017  50.864  1.00  0.00    -0.269 OA
BRANCH  15  17
ATOM     17  C   UNL     1       4.522  43.495  50.939  1.00  0.00     0.065 A 
ATOM     18  C   UNL     1       4.108  42.162  50.810  1.00  0.00     0.016 A 
ATOM     19  C   UNL     1       5.766  43.831  50.391  1.00  0.00     0.078 A 
ATOM     20  C   UNL     1       4.940  41.205  50.223  1.00  0.00     0.002 A 
ATOM     21  N   UNL     1       6.408  45.036  50.275  1.00  0.00    -0.277 N 
ATOM     22  C   UNL     1       6.613  42.900  49.806  1.00  0.00     0.020 A 
ATOM     23  C   UNL     1       6.204  41.556  49.728  1.00  0.00     0.012 A 
ATOM     24  N   UNL     1       7.633  44.949  49.719  1.00  0.00    -0.183 NA
ATOM     25  C   UNL     1       7.746  43.651  49.423  1.00  0.00     0.143 A 
ATOM     26  H   UNL     1       6.047  45.946  50.548  1.00  0.00     0.190 HD
ENDBRANCH  15  17
ENDBRANCH   5  15
TORSDOF 5
ENDMDL
MODEL 3
REMARK VINA RESULT:    -8.979      1.450      1.658
REMARK INTER + INTRA:         -12.720
REMARK INTER:                 -12.042
REMARK INTRA:                  -0.678
REMARK UNBOUND:                -1.116
REMARK SMILES O=C(NCC1CC1)C1CCCN(C(=O)c2cccc3cn[nH]c23)C1
REMARK SMILES IDX 8 1 9 2 10 3 11 4 12 5 24 6 2 7 3 8 1 9 4 11 5 12 6 13 7 14
REMARK SMILES IDX 13 15 14 16 15 17 16 18 23 19 17 20 22 21 19 22 18 23 21 24
REMARK SMILES IDX 20 25
REMARK H PARENT 3 10 22 26
ROOT
ATOM      1  C   UNL     1       5.294  45.872  54.675  1.00  0.00     0.098 C 
ATOM      2  C   UNL     1       4.059  46.516  55.330  1.00  0.00     0.017 C 
ATOM      3  C   UNL     1       2.741  45.849  54.934  1.00  0.00     0.022 C 
ATOM      4  C   UNL     1       2.757  45.391  53.483  1.00  0.00     0.120 C 
ATOM      5  N   UNL     1       3.822  44.415  53.248  1.00  0.00    -0.338 N 
ATOM      6  C   UNL     1       5.003  44.481  54.106  1.00  0.00     0.133 C 
ENDROOT
BRANCH   1   7
ATOM      7  C   UNL     1       5.899  46.796  53.617  1.00  0.00     0.224 C 
ATOM      8  N   UNL     1       7.040  46.281  53.030  1.00  0.00    -0.356 N 
ATOM      9  O   UNL     1       5.442  47.894  53.322  1.00  0.00    -0.275 OA
ATOM     10  H   UNL     1       7.225  45.295  53.134  1.00  0.00     0.163 HD
BRANCH   8  11
ATOM     11  C   UNL     1       7.683  46.980  51.941  1.00  0.00     0.119 C 
BRANCH  11  12
ATOM     12  C   UNL     1       9.110  47.338  52.224  1.00  0.00     0.008 C 
ATOM     13  C   UNL     1       9.878  46.798  53.407  1.00  0.00     0.006 C 
ATOM     14  C   UNL     1      10.255  46.376  52.011  1.00  0.00     0.006 C 
ENDBRANCH  11  12
ENDBRANCH   8  11
ENDBRANCH   1   7
BRANCH   5  15
ATOM     15  C   UNL     1       3.687  43.294  52.432  1.00  0.00     0.256 C 
ATOM     16  O   UNL     1       2.810  42.447  52.600  1.00  0.00    -0.269 OA
BRANCH  15  17
ATOM     17  C   UNL     1       4.606  43.108  51.286  1.00  0.00     0.065 A 
ATOM     18  C   UNL     1       5.752  43.891  51.086  1.00  0.00     0.016 A 
ATOM     19  C   UNL     1       4.385  42.061  50.384  1.00  0.00     0.078 A 
ATOM     20  C   UNL     1       6.589  43.672  49.988  1.00  0.00     0.002 A 
ATOM     21  N   UNL     1       3.428  41.081  50.350  1.00  0.00    -0.277 N 
ATOM     22  C   UNL     1       5.199  41.824  49.283  1.00  0.00     0.020 A 
ATOM     23  C   UNL     1       6.317  42.649  49.068  1.00  0.00     0.012 A 
ATOM     24  N   UNL     1       3.518  40.266  49.280  1.00  0.00    -0.183 NA
ATOM     25  C   UNL     1       4.605  40.713  48.644  1.00  0.00     0.143 A 
ATOM     26  H   UNL     1       2.700  40.918  51.041  1.00  0.00     0.190 HD
ENDBRANCH  15  17
ENDBRANCH   5  15
TORSDOF 5
ENDMDL
MODEL 4
REMARK VINA RESULT:    -8.893      1.784      5.429
REMARK INTER + INTRA:         -12.608
REMARK INTER:                 -11.542
REMARK INTRA:                  -1.067
REMARK UNBOUND:                -1.116
REMARK SMILES O=C(NCC1CC1)C1CCCN(C(=O)c2cccc3cn[nH]c23)C1
REMARK SMILES IDX 8 1 9 2 10 3 11 4 12 5 24 6 2 7 3 8 1 9 4 11 5 12 6 13 7 14
REMARK SMILES IDX 13 15 14 16 15 17 16 18 23 19 17 20 22 21 19 22 18 23 21 24
REMARK SMILES IDX 20 25
REMARK H PARENT 3 10 22 26
ROOT
ATOM      1  C   UNL     1       2.009  46.067  52.951  1.00  0.00     0.098 C 
ATOM      2  C   UNL     1       1.458  45.334  54.188  1.00  0.00     0.017 C 
ATOM      3  C   UNL     1       2.436  45.303  55.364  1.00  0.00     0.022 C 
ATOM      4  C   UNL     1       3.876  45.156  54.894  1.00  0.00     0.120 C 
ATOM      5  N   UNL     1       4.269  46.274  54.036  1.00  0.00    -0.338 N 
ATOM      6  C   UNL     1       3.218  46.948  53.277  1.00  0.00     0.133 C 
ENDROOT
BRANCH   1   7
ATOM      7  C   UNL     1       2.319  45.084  51.822  1.00  0.00     0.224 C 
ATOM      8  N   UNL     1       2.376  43.769  52.242  1.00  0.00    -0.356 N 
ATOM      9  O   UNL     1       2.519  45.416  50.659  1.00  0.00    -0.275 OA
ATOM     10  H   UNL     1       1.973  43.537  53.137  1.00  0.00     0.163 HD
BRANCH   8  11
ATOM     11  C   UNL     1       2.563  42.702  51.286  1.00  0.00     0.119 C 
BRANCH  11  12
ATOM     12  C   UNL     1       3.926  42.084  51.341  1.00  0.00     0.008 C 
ATOM     13  C   UNL     1       4.500  41.249  50.221  1.00  0.00     0.006 C 
ATOM     14  C   UNL     1       5.092  42.599  50.530  1.00  0.00     0.006 C 
ENDBRANCH  11  12
ENDBRANCH   8  11
ENDBRANCH   1   7
BRANCH   5  15
ATOM     15  C   UNL     1       5.521  46.884  54.073  1.00  0.00     0.256 C 
ATOM     16  O   UNL     1       5.843  47.696  54.940  1.00  0.00    -0.269 OA
BRANCH  15  17
ATOM     17  C   UNL     1       6.538  46.531  53.055  1.00  0.00     0.065 A 
ATOM     18  C   UNL     1       6.214  46.005  51.796  1.00  0.00     0.016 A 
ATOM     19  C   UNL     1       7.890  46.793  53.307  1.00  0.00     0.078 A 
ATOM     20  C   UNL     1       7.213  45.692  50.871  1.00  0.00     0.002 A 
ATOM     21  N   UNL     1       8.515  47.374  54.379  1.00  0.00    -0.277 N 
ATOM     22  C   UNL     1       8.901  46.489  52.406  1.00  0.00     0.020 A 
ATOM     23  C   UNL     1       8.565  45.915  51.167  1.00  0.00     0.012 A 
ATOM     24  N   UNL     1       9.859  47.411  54.273  1.00  0.00    -0.183 NA
ATOM     25  C   UNL     1      10.086  46.885  53.065  1.00  0.00     0.143 A 
ATOM     26  H   UNL     1       8.069  47.772  55.201  1.00  0.00     0.190 HD
ENDBRANCH  15  17
ENDBRANCH   5  15
TORSDOF 5
ENDMDL
MODEL 5
REMARK VINA RESULT:    -8.802      2.142      6.236
REMARK INTER + INTRA:         -12.491
REMARK INTER:                 -11.502
REMARK INTRA:                  -0.989
REMARK UNBOUND:                -1.116
REMARK SMILES O=C(NCC1CC1)C1CCCN(C(=O)c2cccc3cn[nH]c23)C1
REMARK SMILES IDX 8 1 9 2 10 3 11 4 12 5 24 6 2 7 3 8 1 9 4 11 5 12 6 13 7 14
REMARK SMILES IDX 13 15 14 16 15 17 16 18 23 19 17 20 22 21 19 22 18 23 21 24
REMARK SMILES IDX 20 25
REMARK H PARENT 3 10 22 26
ROOT
ATOM      1  C   UNL     1       3.983  43.512  52.939  1.00  0.00     0.098 C 
ATOM      2  C   UNL     1       4.043  42.920  51.519  1.00  0.00     0.017 C 
ATOM      3  C   UNL     1       4.983  43.679  50.581  1.00  0.00     0.022 C 
ATOM      4  C   UNL     1       4.953  45.177  50.848  1.00  0.00     0.120 C 
ATOM      5  N   UNL     1       5.373  45.479  52.217  1.00  0.00    -0.338 N 
ATOM      6  C   UNL     1       5.151  44.455  53.235  1.00  0.00     0.133 C 
ENDROOT
BRANCH   1   7
ATOM      7  C   UNL     1       2.636  44.189  53.197  1.00  0.00     0.224 C 
ATOM      8  N   UNL     1       2.450  44.551  54.517  1.00  0.00    -0.356 N 
ATOM      9  O   UNL     1       1.788  44.379  52.333  1.00  0.00    -0.275 OA
ATOM     10  H   UNL     1       3.259  44.590  55.119  1.00  0.00     0.163 HD
BRANCH   8  11
ATOM     11  C   UNL     1       1.274  45.289  54.916  1.00  0.00     0.119 C 
BRANCH  11  12
ATOM     12  C   UNL     1       0.815  44.972  56.306  1.00  0.00     0.008 C 
ATOM     13  C   UNL     1       0.692  46.015  57.393  1.00  0.00     0.006 C 
ATOM     14  C   UNL     1      -0.547  45.367  56.830  1.00  0.00     0.006 C 
ENDBRANCH  11  12
ENDBRANCH   8  11
ENDBRANCH   1   7
BRANCH   5  15
ATOM     15  C   UNL     1       6.173  46.566  52.566  1.00  0.00     0.256 C 
ATOM     16  O   UNL     1       5.714  47.614  53.020  1.00  0.00    -0.269 OA
BRANCH  15  17
ATOM     17  C   UNL     1       7.644  46.467  52.426  1.00  0.00     0.065 A 
ATOM     18  C   UNL     1       8.275  45.997  51.265  1.00  0.00     0.016 A 
ATOM     19  C   UNL     1       8.470  46.927  53.458  1.00  0.00     0.078 A 
ATOM     20  C   UNL     1       9.668  45.928  51.183  1.00  0.00     0.002 A 
ATOM     21  N   UNL     1       8.176  47.515  54.660  1.00  0.00    -0.277 N 
ATOM     22  C   UNL     1       9.856  46.866  53.403  1.00  0.00     0.020 A 
ATOM     23  C   UNL     1      10.474  46.346  52.252  1.00  0.00     0.012 A 
ATOM     24  N   UNL     1       9.259  47.781  55.417  1.00  0.00    -0.183 NA
ATOM     25  C   UNL     1      10.278  47.398  54.642  1.00  0.00     0.143 A 
ATOM     26  H   UNL     1       7.253  47.767  55.004  1.00  0.00     0.190 HD
ENDBRANCH  15  17
ENDBRANCH   5  15
TORSDOF 5
ENDMDL
MODEL 6
REMARK VINA RESULT:    -8.474      1.757      4.075
REMARK INTER + INTRA:         -12.067
REMARK INTER:                 -10.343
REMARK INTRA:                  -1.724
REMARK UNBOUND:                -1.116
REMARK SMILES O=C(NCC1CC1)C1CCCN(C(=O)c2cccc3cn[nH]c23)C1
REMARK SMILES IDX 8 1 9 2 10 3 11 4 12 5 24 6 2 7 3 8 1 9 4 11 5 12 6 13 7 14
REMARK SMILES IDX 13 15 14 16 15 17 16 18 23 19 17 20 22 21 19 22 18 23 21 24
REMARK SMILES IDX 20 25
REMARK H PARENT 3 10 22 26
ROOT
ATOM      1  C   UNL     1       8.480  47.869  52.744  1.00  0.00     0.098 C 
ATOM      2  C   UNL     1       9.913  47.394  53.045  1.00  0.00     0.017 C 
ATOM      3  C   UNL     1      10.326  46.157  52.247  1.00  0.00     0.022 C 
ATOM      4  C   UNL     1       9.162  45.193  52.061  1.00  0.00     0.120 C 
ATOM      5  N   UNL     1       8.062  45.827  51.335  1.00  0.00    -0.338 N 
ATOM      6  C   UNL     1       7.923  47.277  51.446  1.00  0.00     0.133 C 
ENDROOT
BRANCH   1   7
ATOM      7  C   UNL     1       7.550  47.598  53.927  1.00  0.00     0.224 C 
ATOM      8  N   UNL     1       6.220  47.494  53.566  1.00  0.00    -0.356 N 
ATOM      9  O   UNL     1       7.929  47.501  55.089  1.00  0.00    -0.275 OA
ATOM     10  H   UNL     1       6.002  47.344  52.592  1.00  0.00     0.163 HD
BRANCH   8  11
ATOM     11  C   UNL     1       5.220  47.144  54.547  1.00  0.00     0.119 C 
BRANCH  11  12
ATOM     12  C   UNL     1       4.904  45.680  54.580  1.00  0.00     0.008 C 
ATOM     13  C   UNL     1       5.897  44.612  54.185  1.00  0.00     0.006 C 
ATOM     14  C   UNL     1       5.468  44.743  55.623  1.00  0.00     0.006 C 
ENDBRANCH  11  12
ENDBRANCH   8  11
ENDBRANCH   1   7
BRANCH   5  15
ATOM     15  C   UNL     1       7.290  45.183  50.369  1.00  0.00     0.256 C 
ATOM     16  O   UNL     1       7.747  44.814  49.288  1.00  0.00    -0.269 OA
BRANCH  15  17
ATOM     17  C   UNL     1       5.866  44.889  50.646  1.00  0.00     0.065 A 
ATOM     18  C   UNL     1       4.902  45.887  50.850  1.00  0.00     0.016 A 
ATOM     19  C   UNL     1       5.418  43.563  50.637  1.00  0.00     0.078 A 
ATOM     20  C   UNL     1       3.569  45.555  51.105  1.00  0.00     0.002 A 
ATOM     21  N   UNL     1       6.074  42.387  50.385  1.00  0.00    -0.277 N 
ATOM     22  C   UNL     1       4.100  43.207  50.891  1.00  0.00     0.020 A 
ATOM     23  C   UNL     1       3.154  44.216  51.143  1.00  0.00     0.012 A 
ATOM     24  N   UNL     1       5.301  41.291  50.519  1.00  0.00    -0.183 NA
ATOM     25  C   UNL     1       4.099  41.797  50.812  1.00  0.00     0.143 A 
ATOM     26  H   UNL     1       7.046  42.281  50.105  1.00  0.00     0.190 HD
ENDBRANCH  15  17
ENDBRANCH   5  15
TORSDOF 5
ENDMDL
MODEL 7
REMARK VINA RESULT:    -8.456      2.042      5.159
REMARK INTER + INTRA:         -12.044
REMARK INTER:                 -10.331
REMARK INTRA:                  -1.713
REMARK UNBOUND:                -1.116
REMARK SMILES O=C(NCC1CC1)C1CCCN(C(=O)c2cccc3cn[nH]c23)C1
REMARK SMILES IDX 8 1 9 2 10 3 11 4 12 5 24 6 2 7 3 8 1 9 4 11 5 12 6 13 7 14
REMARK SMILES IDX 13 15 14 16 15 17 16 18 23 19 17 20 22 21 19 22 18 23 21 24
REMARK SMILES IDX 20 25
REMARK H PARENT 3 10 22 26
ROOT
ATOM      1  C   UNL     1       6.854  44.124  49.092  1.00  0.00     0.098 C 
ATOM      2  C   UNL     1       6.773  42.722  48.460  1.00  0.00     0.017 C 
ATOM      3  C   UNL     1       5.810  41.781  49.185  1.00  0.00     0.022 C 
ATOM      4  C   UNL     1       5.833  42.004  50.691  1.00  0.00     0.120 C 
ATOM      5  N   UNL     1       5.436  43.372  51.029  1.00  0.00    -0.338 N 
ATOM      6  C   UNL     1       5.684  44.414  50.036  1.00  0.00     0.133 C 
ENDROOT
BRANCH   1   7
ATOM      7  C   UNL     1       8.200  44.337  49.786  1.00  0.00     0.224 C 
ATOM      8  N   UNL     1       8.200  45.405  50.664  1.00  0.00    -0.356 N 
ATOM      9  O   UNL     1       9.195  43.652  49.579  1.00  0.00    -0.275 OA
ATOM     10  H   UNL     1       7.310  45.771  50.968  1.00  0.00     0.163 HD
BRANCH   8  11
ATOM     11  C   UNL     1       9.361  45.687  51.475  1.00  0.00     0.119 C 
BRANCH  11  12
ATOM     12  C   UNL     1       9.465  47.122  51.888  1.00  0.00     0.008 C 
ATOM     13  C   UNL     1       8.270  47.957  52.283  1.00  0.00     0.006 C 
ATOM     14  C   UNL     1       9.297  47.578  53.319  1.00  0.00     0.006 C 
ENDBRANCH  11  12
ENDBRANCH   8  11
ENDBRANCH   1   7
BRANCH   5  15
ATOM     15  C   UNL     1       4.634  43.705  52.119  1.00  0.00     0.256 C 
ATOM     16  O   UNL     1       3.584  43.118  52.379  1.00  0.00    -0.269 OA
BRANCH  15  17
ATOM     17  C   UNL     1       5.059  44.785  53.037  1.00  0.00     0.065 A 
ATOM     18  C   UNL     1       6.145  44.663  53.917  1.00  0.00     0.016 A 
ATOM     19  C   UNL     1       4.411  46.025  52.995  1.00  0.00     0.078 A 
ATOM     20  C   UNL     1       6.506  45.715  54.762  1.00  0.00     0.002 A 
ATOM     21  N   UNL     1       3.395  46.489  52.202  1.00  0.00    -0.277 N 
ATOM     22  C   UNL     1       4.748  47.085  53.826  1.00  0.00     0.020 A 
ATOM     23  C   UNL     1       5.808  46.930  54.738  1.00  0.00     0.012 A 
ATOM     24  N   UNL     1       3.003  47.745  52.496  1.00  0.00    -0.183 NA
ATOM     25  C   UNL     1       3.839  48.107  53.473  1.00  0.00     0.143 A 
ATOM     26  H   UNL     1       2.945  45.992  51.438  1.00  0.00     0.190 HD
ENDBRANCH  15  17
ENDBRANCH   5  15
TORSDOF 5
ENDMDL
MODEL 8
REMARK VINA RESULT:    -8.425      2.100      6.379
REMARK INTER + INTRA:         -12.003
REMARK INTER:                 -11.313
REMARK INTRA:                  -0.690
REMARK UNBOUND:                -1.116
REMARK SMILES O=C(NCC1CC1)C1CCCN(C(=O)c2cccc3cn[nH]c23)C1
REMARK SMILES IDX 8 1 9 2 10 3 11 4 12 5 24 6 2 7 3 8 1 9 4 11 5 12 6 13 7 14
REMARK SMILES IDX 13 15 14 16 15 17 16 18 23 19 17 20 22 21 19 22 18 23 21 24
REMARK SMILES IDX 20 25
REMARK H PARENT 3 10 22 26
ROOT
ATOM      1  C   UNL     1       3.901  43.159  52.396  1.00  0.00     0.098 C 
ATOM      2  C   UNL     1       4.395  42.356  51.178  1.00  0.00     0.017 C 
ATOM      3  C   UNL     1       5.596  42.991  50.476  1.00  0.00     0.022 C 
ATOM      4  C   UNL     1       5.510  44.511  50.480  1.00  0.00     0.120 C 
ATOM      5  N   UNL     1       5.482  45.035  51.845  1.00  0.00    -0.338 N 
ATOM      6  C   UNL     1       4.933  44.175  52.890  1.00  0.00     0.133 C 
ENDROOT
BRANCH   1   7
ATOM      7  C   UNL     1       2.553  43.822  52.107  1.00  0.00     0.224 C 
ATOM      8  N   UNL     1       2.102  44.617  53.144  1.00  0.00    -0.356 N 
ATOM      9  O   UNL     1       1.916  43.659  51.073  1.00  0.00    -0.275 OA
ATOM     10  H   UNL     1       2.765  44.900  53.850  1.00  0.00     0.163 HD
BRANCH   8  11
ATOM     11  C   UNL     1       0.893  45.394  52.999  1.00  0.00     0.119 C 
BRANCH  11  12
ATOM     12  C   UNL     1      -0.325  44.705  53.530  1.00  0.00     0.008 C 
ATOM     13  C   UNL     1      -0.284  43.348  54.194  1.00  0.00     0.006 C 
ATOM     14  C   UNL     1      -0.615  44.573  55.007  1.00  0.00     0.006 C 
ENDBRANCH  11  12
ENDBRANCH   8  11
ENDBRANCH   1   7
BRANCH   5  15
ATOM     15  C   UNL     1       6.150  46.189  52.252  1.00  0.00     0.256 C 
ATOM     16  O   UNL     1       5.564  47.190  52.663  1.00  0.00    -0.269 OA
BRANCH  15  17
ATOM     17  C   UNL     1       7.630  46.225  52.229  1.00  0.00     0.065 A 
ATOM     18  C   UNL     1       8.393  45.771  51.143  1.00  0.00     0.016 A 
ATOM     19  C   UNL     1       8.325  46.801  53.299  1.00  0.00     0.078 A 
ATOM     20  C   UNL     1       9.788  45.830  51.172  1.00  0.00     0.002 A 
ATOM     21  N   UNL     1       7.883  47.406  54.446  1.00  0.00    -0.277 N 
ATOM     22  C   UNL     1       9.711  46.869  53.353  1.00  0.00     0.020 A 
ATOM     23  C   UNL     1      10.464  46.365  52.278  1.00  0.00     0.012 A 
ATOM     24  N   UNL     1       8.873  47.803  55.271  1.00  0.00    -0.183 NA
ATOM     25  C   UNL     1       9.981  47.488  54.594  1.00  0.00     0.143 A 
ATOM     26  H   UNL     1       6.916  47.583  54.706  1.00  0.00     0.190 HD
ENDBRANCH  15  17
ENDBRANCH   5  15
TORSDOF 5
ENDMDL
MODEL 9
REMARK VINA RESULT:    -8.344      2.739      5.407
REMARK INTER + INTRA:         -11.900
REMARK INTER:                 -10.988
REMARK INTRA:                  -0.912
REMARK UNBOUND:                -1.116
REMARK SMILES O=C(NCC1CC1)C1CCCN(C(=O)c2cccc3cn[nH]c23)C1
REMARK SMILES IDX 8 1 9 2 10 3 11 4 12 5 24 6 2 7 3 8 1 9 4 11 5 12 6 13 7 14
REMARK SMILES IDX 13 15 14 16 15 17 16 18 23 19 17 20 22 21 19 22 18 23 21 24
REMARK SMILES IDX 20 25
REMARK H PARENT 3 10 22 26
ROOT
ATOM      1  C   UNL     1       4.805  46.037  51.206  1.00  0.00     0.098 C 
ATOM      2  C   UNL     1       5.831  45.092  50.555  1.00  0.00     0.017 C 
ATOM      3  C   UNL     1       5.411  43.622  50.581  1.00  0.00     0.022 C 
ATOM      4  C   UNL     1       4.670  43.273  51.865  1.00  0.00     0.120 C 
ATOM      5  N   UNL     1       3.453  44.072  52.007  1.00  0.00    -0.338 N 
ATOM      6  C   UNL     1       3.428  45.387  51.372  1.00  0.00     0.133 C 
ENDROOT
BRANCH   1   7
ATOM      7  C   UNL     1       5.328  46.588  52.533  1.00  0.00     0.224 C 
ATOM      8  N   UNL     1       6.642  46.241  52.789  1.00  0.00    -0.356 N 
ATOM      9  O   UNL     1       4.657  47.255  53.312  1.00  0.00    -0.275 OA
ATOM     10  H   UNL     1       7.204  45.906  52.021  1.00  0.00     0.163 HD
BRANCH   8  11
ATOM     11  C   UNL     1       7.323  46.759  53.953  1.00  0.00     0.119 C 
BRANCH  11  12
ATOM     12  C   UNL     1       8.601  47.468  53.628  1.00  0.00     0.008 C 
ATOM     13  C   UNL     1       9.800  47.474  54.547  1.00  0.00     0.006 C 
ATOM     14  C   UNL     1       9.865  46.740  53.233  1.00  0.00     0.006 C 
ENDBRANCH  11  12
ENDBRANCH   8  11
ENDBRANCH   1   7
BRANCH   5  15
ATOM     15  C   UNL     1       2.247  43.577  52.499  1.00  0.00     0.256 C 
ATOM     16  O   UNL     1       1.622  42.673  51.945  1.00  0.00    -0.269 OA
BRANCH  15  17
ATOM     17  C   UNL     1       1.690  44.122  53.758  1.00  0.00     0.065 A 
ATOM     18  C   UNL     1       2.453  44.847  54.684  1.00  0.00     0.016 A 
ATOM     19  C   UNL     1       0.323  43.984  54.027  1.00  0.00     0.078 A 
ATOM     20  C   UNL     1       1.877  45.343  55.857  1.00  0.00     0.002 A 
ATOM     21  N   UNL     1      -0.692  43.421  53.298  1.00  0.00    -0.277 N 
ATOM     22  C   UNL     1      -0.273  44.464  55.186  1.00  0.00     0.020 A 
ATOM     23  C   UNL     1       0.516  45.147  56.129  1.00  0.00     0.012 A 
ATOM     24  N   UNL     1      -1.887  43.441  53.921  1.00  0.00    -0.183 NA
ATOM     25  C   UNL     1      -1.629  44.089  55.061  1.00  0.00     0.143 A 
ATOM     26  H   UNL     1      -0.621  43.023  52.366  1.00  0.00     0.190 HD
ENDBRANCH  15  17
ENDBRANCH   5  15
TORSDOF 5
ENDMDL
MODEL 10
REMARK VINA RESULT:    -8.260      2.095      4.456
REMARK INTER + INTRA:         -11.791
REMARK INTER:                 -10.763
REMARK INTRA:                  -1.028
REMARK UNBOUND:                -1.116
REMARK SMILES O=C(NCC1CC1)C1CCCN(C(=O)c2cccc3cn[nH]c23)C1
REMARK SMILES IDX 8 1 9 2 10 3 11 4 12 5 24 6 2 7 3 8 1 9 4 11 5 12 6 13 7 14
REMARK SMILES IDX 13 15 14 16 15 17 16 18 23 19 17 20 22 21 19 22 18 23 21 24
REMARK SMILES IDX 20 25
REMARK H PARENT 3 10 22 26
ROOT
ATOM      1  C   UNL     1       3.492  46.291  54.859  1.00  0.00     0.098 C 
ATOM      2  C   UNL     1       4.616  45.662  55.704  1.00  0.00     0.017 C 
ATOM      3  C   UNL     1       5.747  45.065  54.867  1.00  0.00     0.022 C 
ATOM      4  C   UNL     1       5.223  44.426  53.589  1.00  0.00     0.120 C 
ATOM      5  N   UNL     1       4.538  45.408  52.749  1.00  0.00    -0.338 N 
ATOM      6  C   UNL     1       3.919  46.553  53.413  1.00  0.00     0.133 C 
ENDROOT
BRANCH   1   7
ATOM      7  C   UNL     1       2.218  45.449  54.924  1.00  0.00     0.224 C 
ATOM      8  N   UNL     1       1.344  45.698  53.883  1.00  0.00    -0.356 N 
ATOM      9  O   UNL     1       1.972  44.644  55.816  1.00  0.00    -0.275 OA
ATOM     10  H   UNL     1       1.698  46.178  53.069  1.00  0.00     0.163 HD
BRANCH   8  11
ATOM     11  C   UNL     1       0.136  44.919  53.738  1.00  0.00     0.119 C 
BRANCH  11  12
ATOM     12  C   UNL     1       0.310  43.702  52.882  1.00  0.00     0.008 C 
ATOM     13  C   UNL     1       1.655  43.070  52.609  1.00  0.00     0.006 C 
ATOM     14  C   UNL     1       0.639  42.341  53.450  1.00  0.00     0.006 C 
ENDBRANCH  11  12
ENDBRANCH   8  11
ENDBRANCH   1   7
BRANCH   5  15
ATOM     15  C   UNL     1       4.636  45.452  51.359  1.00  0.00     0.256 C 
ATOM     16  O   UNL     1       3.830  46.055  50.652  1.00  0.00    -0.269 OA
BRANCH  15  17
ATOM     17  C   UNL     1       5.769  44.779  50.684  1.00  0.00     0.065 A 
ATOM     18  C   UNL     1       6.997  45.409  50.432  1.00  0.00     0.016 A 
ATOM     19  C   UNL     1       5.664  43.427  50.335  1.00  0.00     0.078 A 
ATOM     20  C   UNL     1       8.035  44.727  49.793  1.00  0.00     0.002 A 
ATOM     21  N   UNL     1       4.655  42.519  50.522  1.00  0.00    -0.277 N 
ATOM     22  C   UNL     1       6.680  42.728  49.697  1.00  0.00     0.020 A 
ATOM     23  C   UNL     1       7.887  43.388  49.406  1.00  0.00     0.012 A 
ATOM     24  N   UNL     1       4.910  41.304  49.999  1.00  0.00    -0.183 NA
ATOM     25  C   UNL     1       6.148  41.433  49.512  1.00  0.00     0.143 A 
ATOM     26  H   UNL     1       3.779  42.678  51.013  1.00  0.00     0.190 HD
ENDBRANCH  15  17
ENDBRANCH   5  15
TORSDOF 5
ENDMDL
