MODEL 1
REMARK VINA RESULT:    -8.685      0.000      0.000
REMARK INTER + INTRA:         -11.885
REMARK INTER:                 -11.223
REMARK INTRA:                  -0.662
REMARK UNBOUND:                -0.662
REMARK SMILES CN(CC(=O)N1CCCC1C1CCCC1)c1ncnc2nc[nH]c12
REMARK SMILES IDX 3 1 2 2 1 3 16 4 17 5 24 6 18 7 23 8 20 9 19 10 22 11 21 12
REMARK SMILES IDX 4 14 5 15 6 16 7 17 10 18 8 19 9 20 11 21 12 22 15 23 13 24
REMARK SMILES IDX 14 25
REMARK H PARENT 23 13
ROOT
ATOM      1  C   UNL     1       4.632  44.614  52.393  1.00  0.00     0.218 C 
ENDROOT
BRANCH   1   2
ATOM      2  N   UNL     1       3.519  43.660  52.249  1.00  0.00    -0.348 N 
ATOM      3  C   UNL     1       3.844  42.277  51.940  1.00  0.00     0.146 C 
BRANCH   2   4
ATOM      4  C   UNL     1       2.484  43.888  53.146  1.00  0.00     0.158 A 
ATOM      5  N   UNL     1       2.710  44.729  54.180  1.00  0.00    -0.217 NA
ATOM      6  C   UNL     1       1.225  43.306  53.109  1.00  0.00     0.128 A 
ATOM      7  C   UNL     1       1.706  45.002  55.038  1.00  0.00     0.226 A 
ATOM      8  N   UNL     1       0.637  42.337  52.341  1.00  0.00    -0.340 N 
ATOM      9  C   UNL     1       0.259  43.634  54.043  1.00  0.00     0.182 A 
ATOM     10  N   UNL     1       0.462  44.512  55.040  1.00  0.00    -0.215 NA
ATOM     11  C   UNL     1      -0.636  42.154  52.802  1.00  0.00     0.199 A 
ATOM     12  N   UNL     1      -0.900  42.934  53.827  1.00  0.00    -0.217 NA
ATOM     13  H   UNL     1       1.112  41.780  51.640  1.00  0.00     0.168 HD
ENDBRANCH   2   4
ENDBRANCH   1   2
BRANCH   1  14
ATOM     14  C   UNL     1       5.121  45.211  51.052  1.00  0.00     0.242 C 
ATOM     15  O   UNL     1       4.483  46.093  50.463  1.00  0.00    -0.273 OA
BRANCH  14  16
ATOM     16  N   UNL     1       6.321  44.737  50.545  1.00  0.00    -0.338 N 
ATOM     17  C   UNL     1       6.502  43.465  49.864  1.00  0.00     0.120 C 
ATOM     18  C   UNL     1       7.472  45.627  50.343  1.00  0.00     0.088 C 
ATOM     19  C   UNL     1       7.980  43.405  49.528  1.00  0.00     0.024 C 
ATOM     20  C   UNL     1       8.352  44.869  49.336  1.00  0.00     0.027 C 
BRANCH  18  21
ATOM     21  C   UNL     1       8.150  46.016  51.672  1.00  0.00     0.012 C 
ATOM     22  C   UNL     1       7.749  47.404  52.186  1.00  0.00     0.006 C 
ATOM     23  C   UNL     1       9.676  46.082  51.682  1.00  0.00     0.006 C 
ATOM     24  C   UNL     1       8.861  47.816  53.153  1.00  0.00     0.000 C 
ATOM     25  C   UNL     1       9.968  46.775  53.007  1.00  0.00     0.000 C 
ENDBRANCH  18  21
ENDBRANCH  14  16
ENDBRANCH   1  14
TORSDOF 5
ENDMDL
MODEL 2
REMARK VINA RESULT:    -8.574      1.061      1.814
REMARK INTER + INTRA:         -11.743
REMARK INTER:                 -10.902
REMARK INTRA:                  -0.841
REMARK UNBOUND:                -0.662
REMARK SMILES CN(CC(=O)N1CCCC1C1CCCC1)c1ncnc2nc[nH]c12
REMARK SMILES IDX 3 1 2 2 1 3 16 4 17 5 24 6 18 7 23 8 20 9 19 10 22 11 21 12
REMARK SMILES IDX 4 14 5 15 6 16 7 17 10 18 8 19 9 20 11 21 12 22 15 23 13 24
REMARK SMILES IDX 14 25
REMARK H PARENT 23 13
ROOT
ATOM      1  C   UNL     1       4.436  44.645  52.333  1.00  0.00     0.218 C 
ENDROOT
BRANCH   1   2
ATOM      2  N   UNL     1       3.318  43.718  52.090  1.00  0.00    -0.348 N 
ATOM      3  C   UNL     1       3.562  42.296  52.264  1.00  0.00     0.146 C 
BRANCH   2   4
ATOM      4  C   UNL     1       2.094  44.214  52.520  1.00  0.00     0.158 A 
ATOM      5  N   UNL     1       1.148  44.471  51.589  1.00  0.00    -0.217 NA
ATOM      6  C   UNL     1       1.745  44.509  53.830  1.00  0.00     0.128 A 
ATOM      7  C   UNL     1      -0.064  44.909  51.987  1.00  0.00     0.226 A 
ATOM      8  N   UNL     1       2.416  44.523  55.023  1.00  0.00    -0.340 N 
ATOM      9  C   UNL     1       0.480  44.972  54.144  1.00  0.00     0.182 A 
ATOM     10  N   UNL     1      -0.482  45.175  53.229  1.00  0.00    -0.215 NA
ATOM     11  C   UNL     1       1.544  44.941  55.988  1.00  0.00     0.199 A 
ATOM     12  N   UNL     1       0.358  45.210  55.489  1.00  0.00    -0.217 NA
ATOM     13  H   UNL     1       3.411  44.366  55.134  1.00  0.00     0.168 HD
ENDBRANCH   2   4
ENDBRANCH   1   2
BRANCH   1  14
ATOM     14  C   UNL     1       5.037  45.254  51.043  1.00  0.00     0.242 C 
ATOM     15  O   UNL     1       4.505  46.213  50.470  1.00  0.00    -0.273 OA
BRANCH  14  16
ATOM     16  N   UNL     1       6.212  44.697  50.564  1.00  0.00    -0.338 N 
ATOM     17  C   UNL     1       6.332  43.382  49.955  1.00  0.00     0.120 C 
ATOM     18  C   UNL     1       7.403  45.520  50.314  1.00  0.00     0.088 C 
ATOM     19  C   UNL     1       7.805  43.235  49.624  1.00  0.00     0.024 C 
ATOM     20  C   UNL     1       8.245  44.668  49.351  1.00  0.00     0.027 C 
BRANCH  18  21
ATOM     21  C   UNL     1       8.100  45.950  51.620  1.00  0.00     0.012 C 
ATOM     22  C   UNL     1       7.719  47.360  52.088  1.00  0.00     0.006 C 
ATOM     23  C   UNL     1       9.627  46.000  51.611  1.00  0.00     0.006 C 
ATOM     24  C   UNL     1       8.847  47.795  53.027  1.00  0.00     0.000 C 
ATOM     25  C   UNL     1       9.941  46.738  52.906  1.00  0.00     0.000 C 
ENDBRANCH  18  21
ENDBRANCH  14  16
ENDBRANCH   1  14
TORSDOF 5
ENDMDL
MODEL 3
REMARK VINA RESULT:    -8.494      1.938      2.763
REMARK INTER + INTRA:         -11.638
REMARK INTER:                 -10.644
REMARK INTRA:                  -0.994
REMARK UNBOUND:                -0.662
REMARK SMILES CN(CC(=O)N1CCCC1C1CCCC1)c1ncnc2nc[nH]c12
REMARK SMILES IDX 3 1 2 2 1 3 16 4 17 5 24 6 18 7 23 8 20 9 19 10 22 11 21 12
REMARK SMILES IDX 4 14 5 15 6 16 7 17 10 18 8 19 9 20 11 21 12 22 15 23 13 24
REMARK SMILES IDX 14 25
REMARK H PARENT 23 13
ROOT
ATOM      1  C   UNL     1       4.085  45.911  54.884  1.00  0.00     0.218 C 
ENDROOT
BRANCH   1   2
ATOM      2  N   UNL     1       2.773  45.256  55.017  1.00  0.00    -0.348 N 
ATOM      3  C   UNL     1       1.913  45.668  56.114  1.00  0.00     0.146 C 
BRANCH   2   4
ATOM      4  C   UNL     1       2.168  44.993  53.795  1.00  0.00     0.158 A 
ATOM      5  N   UNL     1       2.291  45.913  52.811  1.00  0.00    -0.217 NA
ATOM      6  C   UNL     1       1.407  43.876  53.481  1.00  0.00     0.128 A 
ATOM      7  C   UNL     1       1.752  45.659  51.601  1.00  0.00     0.226 A 
ATOM      8  N   UNL     1       0.938  42.804  54.190  1.00  0.00    -0.340 N 
ATOM      9  C   UNL     1       0.876  43.706  52.215  1.00  0.00     0.182 A 
ATOM     10  N   UNL     1       1.044  44.591  51.218  1.00  0.00    -0.215 NA
ATOM     11  C   UNL     1       0.199  42.030  53.339  1.00  0.00     0.199 A 
ATOM     12  N   UNL     1       0.153  42.545  52.131  1.00  0.00    -0.217 NA
ATOM     13  H   UNL     1       1.029  42.682  55.193  1.00  0.00     0.168 HD
ENDBRANCH   2   4
ENDBRANCH   1   2
BRANCH   1  14
ATOM     14  C   UNL     1       5.231  44.946  54.496  1.00  0.00     0.242 C 
ATOM     15  O   UNL     1       5.782  44.224  55.336  1.00  0.00    -0.273 OA
BRANCH  14  16
ATOM     16  N   UNL     1       5.600  44.902  53.161  1.00  0.00    -0.338 N 
ATOM     17  C   UNL     1       5.098  43.951  52.181  1.00  0.00     0.120 C 
ATOM     18  C   UNL     1       6.283  46.031  52.517  1.00  0.00     0.088 C 
ATOM     19  C   UNL     1       5.815  44.301  50.891  1.00  0.00     0.024 C 
ATOM     20  C   UNL     1       6.044  45.802  51.017  1.00  0.00     0.027 C 
BRANCH  18  21
ATOM     21  C   UNL     1       7.757  46.147  52.955  1.00  0.00     0.012 C 
ATOM     22  C   UNL     1       7.999  47.208  54.035  1.00  0.00     0.006 C 
ATOM     23  C   UNL     1       8.775  46.525  51.880  1.00  0.00     0.006 C 
ATOM     24  C   UNL     1       9.490  47.543  53.951  1.00  0.00     0.000 C 
ATOM     25  C   UNL     1      10.018  46.845  52.700  1.00  0.00     0.000 C 
ENDBRANCH  18  21
ENDBRANCH  14  16
ENDBRANCH   1  14
TORSDOF 5
ENDMDL
MODEL 4
REMARK VINA RESULT:    -8.474      1.423      2.525
REMARK INTER + INTRA:         -11.613
REMARK INTER:                 -11.027
REMARK INTRA:                  -0.586
REMARK UNBOUND:                -0.662
REMARK SMILES CN(CC(=O)N1CCCC1C1CCCC1)c1ncnc2nc[nH]c12
REMARK SMILES IDX 3 1 2 2 1 3 16 4 17 5 24 6 18 7 23 8 20 9 19 10 22 11 21 12
REMARK SMILES IDX 4 14 5 15 6 16 7 17 10 18 8 19 9 20 11 21 12 22 15 23 13 24
REMARK SMILES IDX 14 25
REMARK H PARENT 23 13
ROOT
ATOM      1  C   UNL     1       4.727  46.449  53.457  1.00  0.00     0.218 C 
ENDROOT
BRANCH   1   2
ATOM      2  N   UNL     1       4.538  45.186  54.190  1.00  0.00    -0.348 N 
ATOM      3  C   UNL     1       5.419  44.912  55.314  1.00  0.00     0.146 C 
BRANCH   2   4
ATOM      4  C   UNL     1       3.204  44.825  54.321  1.00  0.00     0.158 A 
ATOM      5  N   UNL     1       2.645  44.081  53.341  1.00  0.00    -0.217 NA
ATOM      6  C   UNL     1       2.357  45.184  55.361  1.00  0.00     0.128 A 
ATOM      7  C   UNL     1       1.363  43.679  53.469  1.00  0.00     0.226 A 
ATOM      8  N   UNL     1       2.469  46.004  56.451  1.00  0.00    -0.340 N 
ATOM      9  C   UNL     1       1.048  44.738  55.401  1.00  0.00     0.182 A 
ATOM     10  N   UNL     1       0.505  43.951  54.457  1.00  0.00    -0.215 NA
ATOM     11  C   UNL     1       1.271  45.989  57.109  1.00  0.00     0.199 A 
ATOM     12  N   UNL     1       0.392  45.221  56.504  1.00  0.00    -0.217 NA
ATOM     13  H   UNL     1       3.262  46.602  56.652  1.00  0.00     0.168 HD
ENDBRANCH   2   4
ENDBRANCH   1   2
BRANCH   1  14
ATOM     14  C   UNL     1       4.681  46.292  51.918  1.00  0.00     0.242 C 
ATOM     15  O   UNL     1       3.791  46.819  51.239  1.00  0.00    -0.273 OA
BRANCH  14  16
ATOM     16  N   UNL     1       5.694  45.557  51.323  1.00  0.00    -0.338 N 
ATOM     17  C   UNL     1       5.522  44.276  50.654  1.00  0.00     0.120 C 
ATOM     18  C   UNL     1       6.996  46.160  51.008  1.00  0.00     0.088 C 
ATOM     19  C   UNL     1       6.913  43.880  50.198  1.00  0.00     0.024 C 
ATOM     20  C   UNL     1       7.591  45.222  49.947  1.00  0.00     0.027 C 
BRANCH  18  21
ATOM     21  C   UNL     1       7.855  46.385  52.268  1.00  0.00     0.012 C 
ATOM     22  C   UNL     1       7.869  47.839  52.754  1.00  0.00     0.006 C 
ATOM     23  C   UNL     1       9.341  46.050  52.166  1.00  0.00     0.006 C 
ATOM     24  C   UNL     1       9.124  47.966  53.622  1.00  0.00     0.000 C 
ATOM     25  C   UNL     1       9.908  46.669  53.437  1.00  0.00     0.000 C 
ENDBRANCH  18  21
ENDBRANCH  14  16
ENDBRANCH   1  14
TORSDOF 5
ENDMDL
MODEL 5
REMARK VINA RESULT:    -8.425      1.854      2.869
REMARK INTER + INTRA:         -11.550
REMARK INTER:                 -10.848
REMARK INTRA:                  -0.702
REMARK UNBOUND:                -0.662
REMARK SMILES CN(CC(=O)N1CCCC1C1CCCC1)c1ncnc2nc[nH]c12
REMARK SMILES IDX 3 1 2 2 1 3 16 4 17 5 24 6 18 7 23 8 20 9 19 10 22 11 21 12
REMARK SMILES IDX 4 14 5 15 6 16 7 17 10 18 8 19 9 20 11 21 12 22 15 23 13 24
REMARK SMILES IDX 14 25
REMARK H PARENT 23 13
ROOT
ATOM      1  C   UNL     1       3.460  44.394  53.149  1.00  0.00     0.218 C 
ENDROOT
BRANCH   1   2
ATOM      2  N   UNL     1       2.677  45.586  53.514  1.00  0.00    -0.348 N 
ATOM      3  C   UNL     1       2.763  46.750  52.648  1.00  0.00     0.146 C 
BRANCH   2   4
ATOM      4  C   UNL     1       1.433  45.278  54.049  1.00  0.00     0.158 A 
ATOM      5  N   UNL     1       0.446  44.913  53.200  1.00  0.00    -0.217 NA
ATOM      6  C   UNL     1       1.080  45.339  55.390  1.00  0.00     0.128 A 
ATOM      7  C   UNL     1      -0.757  44.564  53.701  1.00  0.00     0.226 A 
ATOM      8  N   UNL     1       1.707  45.768  56.529  1.00  0.00    -0.340 N 
ATOM      9  C   UNL     1      -0.186  44.979  55.812  1.00  0.00     0.182 A 
ATOM     10  N   UNL     1      -1.153  44.561  54.978  1.00  0.00    -0.215 NA
ATOM     11  C   UNL     1       0.833  45.615  57.569  1.00  0.00     0.199 A 
ATOM     12  N   UNL     1      -0.320  45.127  57.169  1.00  0.00    -0.217 NA
ATOM     13  H   UNL     1       2.610  46.226  56.561  1.00  0.00     0.168 HD
ENDBRANCH   2   4
ENDBRANCH   1   2
BRANCH   1  14
ATOM     14  C   UNL     1       4.984  44.554  53.371  1.00  0.00     0.242 C 
ATOM     15  O   UNL     1       5.478  44.543  54.505  1.00  0.00    -0.273 OA
BRANCH  14  16
ATOM     16  N   UNL     1       5.780  44.685  52.244  1.00  0.00    -0.338 N 
ATOM     17  C   UNL     1       5.733  43.819  51.076  1.00  0.00     0.120 C 
ATOM     18  C   UNL     1       6.522  45.922  51.969  1.00  0.00     0.088 C 
ATOM     19  C   UNL     1       6.800  44.359  50.143  1.00  0.00     0.024 C 
ATOM     20  C   UNL     1       6.821  45.848  50.464  1.00  0.00     0.027 C 
BRANCH  18  21
ATOM     21  C   UNL     1       7.745  46.086  52.893  1.00  0.00     0.012 C 
ATOM     22  C   UNL     1       7.594  47.210  53.925  1.00  0.00     0.006 C 
ATOM     23  C   UNL     1       9.080  46.419  52.229  1.00  0.00     0.006 C 
ATOM     24  C   UNL     1       9.020  47.563  54.355  1.00  0.00     0.000 C 
ATOM     25  C   UNL     1       9.953  46.805  53.415  1.00  0.00     0.000 C 
ENDBRANCH  18  21
ENDBRANCH  14  16
ENDBRANCH   1  14
TORSDOF 5
ENDMDL
MODEL 6
REMARK VINA RESULT:    -8.358      1.822      2.384
REMARK INTER + INTRA:         -11.462
REMARK INTER:                 -10.830
REMARK INTRA:                  -0.632
REMARK UNBOUND:                -0.662
REMARK SMILES CN(CC(=O)N1CCCC1C1CCCC1)c1ncnc2nc[nH]c12
REMARK SMILES IDX 3 1 2 2 1 3 16 4 17 5 24 6 18 7 23 8 20 9 19 10 22 11 21 12
REMARK SMILES IDX 4 14 5 15 6 16 7 17 10 18 8 19 9 20 11 21 12 22 15 23 13 24
REMARK SMILES IDX 14 25
REMARK H PARENT 23 13
ROOT
ATOM      1  C   UNL     1       4.294  46.568  54.099  1.00  0.00     0.218 C 
ENDROOT
BRANCH   1   2
ATOM      2  N   UNL     1       3.053  46.665  53.311  1.00  0.00    -0.348 N 
ATOM      3  C   UNL     1       3.148  47.164  51.949  1.00  0.00     0.146 C 
BRANCH   2   4
ATOM      4  C   UNL     1       2.172  45.618  53.548  1.00  0.00     0.158 A 
ATOM      5  N   UNL     1       1.707  45.449  54.806  1.00  0.00    -0.217 NA
ATOM      6  C   UNL     1       1.735  44.689  52.615  1.00  0.00     0.128 A 
ATOM      7  C   UNL     1       0.814  44.468  55.051  1.00  0.00     0.226 A 
ATOM      8  N   UNL     1       2.044  44.422  51.309  1.00  0.00    -0.340 N 
ATOM      9  C   UNL     1       0.828  43.703  52.960  1.00  0.00     0.182 A 
ATOM     10  N   UNL     1       0.320  43.566  54.196  1.00  0.00    -0.215 NA
ATOM     11  C   UNL     1       1.303  43.342  50.917  1.00  0.00     0.199 A 
ATOM     12  N   UNL     1       0.547  42.891  51.893  1.00  0.00    -0.217 NA
ATOM     13  H   UNL     1       2.780  44.874  50.779  1.00  0.00     0.168 HD
ENDBRANCH   2   4
ENDBRANCH   1   2
BRANCH   1  14
ATOM     14  C   UNL     1       5.089  45.263  53.855  1.00  0.00     0.242 C 
ATOM     15  O   UNL     1       5.100  44.346  54.685  1.00  0.00    -0.273 OA
BRANCH  14  16
ATOM     16  N   UNL     1       5.771  45.149  52.654  1.00  0.00    -0.338 N 
ATOM     17  C   UNL     1       5.456  44.201  51.595  1.00  0.00     0.120 C 
ATOM     18  C   UNL     1       6.673  46.208  52.181  1.00  0.00     0.088 C 
ATOM     19  C   UNL     1       6.492  44.459  50.517  1.00  0.00     0.024 C 
ATOM     20  C   UNL     1       6.792  45.945  50.672  1.00  0.00     0.027 C 
BRANCH  18  21
ATOM     21  C   UNL     1       7.998  46.239  52.968  1.00  0.00     0.012 C 
ATOM     22  C   UNL     1       8.020  47.273  54.100  1.00  0.00     0.006 C 
ATOM     23  C   UNL     1       9.265  46.573  52.183  1.00  0.00     0.006 C 
ATOM     24  C   UNL     1       9.501  47.527  54.390  1.00  0.00     0.000 C 
ATOM     25  C   UNL     1      10.284  46.817  53.289  1.00  0.00     0.000 C 
ENDBRANCH  18  21
ENDBRANCH  14  16
ENDBRANCH   1  14
TORSDOF 5
ENDMDL
MODEL 7
REMARK VINA RESULT:    -8.299      2.765      6.926
REMARK INTER + INTRA:         -11.386
REMARK INTER:                 -10.602
REMARK INTRA:                  -0.785
REMARK UNBOUND:                -0.662
REMARK SMILES CN(CC(=O)N1CCCC1C1CCCC1)c1ncnc2nc[nH]c12
REMARK SMILES IDX 3 1 2 2 1 3 16 4 17 5 24 6 18 7 23 8 20 9 19 10 22 11 21 12
REMARK SMILES IDX 4 14 5 15 6 16 7 17 10 18 8 19 9 20 11 21 12 22 15 23 13 24
REMARK SMILES IDX 14 25
REMARK H PARENT 23 13
ROOT
ATOM      1  C   UNL     1       5.631  45.379  54.482  1.00  0.00     0.218 C 
ENDROOT
BRANCH   1   2
ATOM      2  N   UNL     1       6.005  46.734  54.044  1.00  0.00    -0.348 N 
ATOM      3  C   UNL     1       5.223  47.852  54.545  1.00  0.00     0.146 C 
BRANCH   2   4
ATOM      4  C   UNL     1       7.378  46.913  53.933  1.00  0.00     0.158 A 
ATOM      5  N   UNL     1       8.019  47.562  54.931  1.00  0.00    -0.217 NA
ATOM      6  C   UNL     1       8.172  46.514  52.868  1.00  0.00     0.128 A 
ATOM      7  C   UNL     1       9.358  47.706  54.868  1.00  0.00     0.226 A 
ATOM      8  N   UNL     1       7.925  45.962  51.639  1.00  0.00    -0.340 N 
ATOM      9  C   UNL     1       9.540  46.719  52.881  1.00  0.00     0.182 A 
ATOM     10  N   UNL     1      10.189  47.313  53.896  1.00  0.00    -0.215 NA
ATOM     11  C   UNL     1       9.123  45.823  50.996  1.00  0.00     0.199 A 
ATOM     12  N   UNL     1      10.123  46.262  51.728  1.00  0.00    -0.217 NA
ATOM     13  H   UNL     1       7.005  45.805  51.245  1.00  0.00     0.168 HD
ENDBRANCH   2   4
ENDBRANCH   1   2
BRANCH   1  14
ATOM     14  C   UNL     1       4.116  45.082  54.373  1.00  0.00     0.242 C 
ATOM     15  O   UNL     1       3.437  44.802  55.369  1.00  0.00    -0.273 OA
BRANCH  14  16
ATOM     16  N   UNL     1       3.539  45.167  53.116  1.00  0.00    -0.338 N 
ATOM     17  C   UNL     1       2.215  45.697  52.832  1.00  0.00     0.120 C 
ATOM     18  C   UNL     1       4.345  45.043  51.894  1.00  0.00     0.088 C 
ATOM     19  C   UNL     1       2.046  45.553  51.332  1.00  0.00     0.024 C 
ATOM     20  C   UNL     1       3.471  45.689  50.808  1.00  0.00     0.027 C 
BRANCH  18  21
ATOM     21  C   UNL     1       4.785  43.590  51.630  1.00  0.00     0.012 C 
ATOM     22  C   UNL     1       5.718  43.436  50.423  1.00  0.00     0.006 C 
ATOM     23  C   UNL     1       3.684  42.572  51.335  1.00  0.00     0.006 C 
ATOM     24  C   UNL     1       5.612  41.966  50.011  1.00  0.00     0.000 C 
ATOM     25  C   UNL     1       4.472  41.369  50.833  1.00  0.00     0.000 C 
ENDBRANCH  18  21
ENDBRANCH  14  16
ENDBRANCH   1  14
TORSDOF 5
ENDMDL
MODEL 8
REMARK VINA RESULT:    -8.196      1.666      3.591
REMARK INTER + INTRA:         -11.254
REMARK INTER:                 -10.427
REMARK INTRA:                  -0.826
REMARK UNBOUND:                -0.662
REMARK SMILES CN(CC(=O)N1CCCC1C1CCCC1)c1ncnc2nc[nH]c12
REMARK SMILES IDX 3 1 2 2 1 3 16 4 17 5 24 6 18 7 23 8 20 9 19 10 22 11 21 12
REMARK SMILES IDX 4 14 5 15 6 16 7 17 10 18 8 19 9 20 11 21 12 22 15 23 13 24
REMARK SMILES IDX 14 25
REMARK H PARENT 23 13
ROOT
ATOM      1  C   UNL     1       2.295  46.375  52.875  1.00  0.00     0.218 C 
ENDROOT
BRANCH   1   2
ATOM      2  N   UNL     1       2.441  45.270  53.836  1.00  0.00    -0.348 N 
ATOM      3  C   UNL     1       2.942  45.583  55.164  1.00  0.00     0.146 C 
BRANCH   2   4
ATOM      4  C   UNL     1       1.424  44.327  53.743  1.00  0.00     0.158 A 
ATOM      5  N   UNL     1       1.643  43.225  52.991  1.00  0.00    -0.217 NA
ATOM      6  C   UNL     1       0.169  44.416  54.329  1.00  0.00     0.128 A 
ATOM      7  C   UNL     1       0.689  42.274  52.924  1.00  0.00     0.226 A 
ATOM      8  N   UNL     1      -0.494  45.381  55.038  1.00  0.00    -0.340 N 
ATOM      9  C   UNL     1      -0.756  43.397  54.192  1.00  0.00     0.182 A 
ATOM     10  N   UNL     1      -0.521  42.274  53.492  1.00  0.00    -0.215 NA
ATOM     11  C   UNL     1      -1.741  44.904  55.327  1.00  0.00     0.199 A 
ATOM     12  N   UNL     1      -1.927  43.698  54.838  1.00  0.00    -0.217 NA
ATOM     13  H   UNL     1      -0.152  46.321  55.204  1.00  0.00     0.168 HD
ENDBRANCH   2   4
ENDBRANCH   1   2
BRANCH   1  14
ATOM     14  C   UNL     1       3.404  46.416  51.796  1.00  0.00     0.242 C 
ATOM     15  O   UNL     1       3.134  46.428  50.588  1.00  0.00    -0.273 OA
BRANCH  14  16
ATOM     16  N   UNL     1       4.717  46.466  52.236  1.00  0.00    -0.338 N 
ATOM     17  C   UNL     1       5.305  47.550  53.007  1.00  0.00     0.120 C 
ATOM     18  C   UNL     1       5.563  45.265  52.259  1.00  0.00     0.088 C 
ATOM     19  C   UNL     1       6.751  47.144  53.217  1.00  0.00     0.024 C 
ATOM     20  C   UNL     1       6.684  45.622  53.248  1.00  0.00     0.027 C 
BRANCH  18  21
ATOM     21  C   UNL     1       6.017  44.844  50.848  1.00  0.00     0.012 C 
ATOM     22  C   UNL     1       5.737  43.372  50.523  1.00  0.00     0.006 C 
ATOM     23  C   UNL     1       7.504  44.982  50.525  1.00  0.00     0.006 C 
ATOM     24  C   UNL     1       6.687  43.021  49.375  1.00  0.00     0.000 C 
ATOM     25  C   UNL     1       7.632  44.210  49.218  1.00  0.00     0.000 C 
ENDBRANCH  18  21
ENDBRANCH  14  16
ENDBRANCH   1  14
TORSDOF 5
ENDMDL
MODEL 9
REMARK VINA RESULT:    -8.039      2.413      7.021
REMARK INTER + INTRA:         -11.050
REMARK INTER:                 -10.344
REMARK INTRA:                  -0.706
REMARK UNBOUND:                -0.662
REMARK SMILES CN(CC(=O)N1CCCC1C1CCCC1)c1ncnc2nc[nH]c12
REMARK SMILES IDX 3 1 2 2 1 3 16 4 17 5 24 6 18 7 23 8 20 9 19 10 22 11 21 12
REMARK SMILES IDX 4 14 5 15 6 16 7 17 10 18 8 19 9 20 11 21 12 22 15 23 13 24
REMARK SMILES IDX 14 25
REMARK H PARENT 23 13
ROOT
ATOM      1  C   UNL     1       4.782  47.255  54.664  1.00  0.00     0.218 C 
ENDROOT
BRANCH   1   2
ATOM      2  N   UNL     1       5.906  46.351  54.964  1.00  0.00    -0.348 N 
ATOM      3  C   UNL     1       5.616  44.936  55.128  1.00  0.00     0.146 C 
BRANCH   2   4
ATOM      4  C   UNL     1       7.074  46.690  54.294  1.00  0.00     0.158 A 
ATOM      5  N   UNL     1       7.967  47.481  54.931  1.00  0.00    -0.217 NA
ATOM      6  C   UNL     1       7.413  46.321  53.000  1.00  0.00     0.128 A 
ATOM      7  C   UNL     1       9.130  47.785  54.318  1.00  0.00     0.226 A 
ATOM      8  N   UNL     1       6.768  45.659  51.990  1.00  0.00    -0.340 N 
ATOM      9  C   UNL     1       8.623  46.694  52.445  1.00  0.00     0.182 A 
ATOM     10  N   UNL     1       9.539  47.433  53.095  1.00  0.00    -0.215 NA
ATOM     11  C   UNL     1       7.606  45.625  50.911  1.00  0.00     0.199 A 
ATOM     12  N   UNL     1       8.744  46.234  51.160  1.00  0.00    -0.217 NA
ATOM     13  H   UNL     1       5.799  45.362  52.013  1.00  0.00     0.168 HD
ENDBRANCH   2   4
ENDBRANCH   1   2
BRANCH   1  14
ATOM     14  C   UNL     1       3.911  46.795  53.470  1.00  0.00     0.242 C 
ATOM     15  O   UNL     1       4.132  47.185  52.318  1.00  0.00    -0.273 OA
BRANCH  14  16
ATOM     16  N   UNL     1       2.883  45.904  53.739  1.00  0.00    -0.338 N 
ATOM     17  C   UNL     1       2.311  45.654  55.053  1.00  0.00     0.120 C 
ATOM     18  C   UNL     1       2.033  45.369  52.668  1.00  0.00     0.088 C 
ATOM     19  C   UNL     1       1.248  44.596  54.824  1.00  0.00     0.024 C 
ATOM     20  C   UNL     1       0.775  44.881  53.404  1.00  0.00     0.027 C 
BRANCH  18  21
ATOM     21  C   UNL     1       2.765  44.316  51.813  1.00  0.00     0.012 C 
ATOM     22  C   UNL     1       1.825  43.349  51.084  1.00  0.00     0.006 C 
ATOM     23  C   UNL     1       3.720  43.371  52.541  1.00  0.00     0.006 C 
ATOM     24  C   UNL     1       2.678  42.122  50.754  1.00  0.00     0.000 C 
ATOM     25  C   UNL     1       4.005  42.311  51.484  1.00  0.00     0.000 C 
ENDBRANCH  18  21
ENDBRANCH  14  16
ENDBRANCH   1  14
TORSDOF 5
ENDMDL
MODEL 10
REMARK VINA RESULT:    -7.915      1.703      3.059
REMARK INTER + INTRA:         -10.891
REMARK INTER:                 -10.410
REMARK INTRA:                  -0.481
REMARK UNBOUND:                -0.662
REMARK SMILES CN(CC(=O)N1CCCC1C1CCCC1)c1ncnc2nc[nH]c12
REMARK SMILES IDX 3 1 2 2 1 3 16 4 17 5 24 6 18 7 23 8 20 9 19 10 22 11 21 12
REMARK SMILES IDX 4 14 5 15 6 16 7 17 10 18 8 19 9 20 11 21 12 22 15 23 13 24
REMARK SMILES IDX 14 25
REMARK H PARENT 23 13
ROOT
ATOM      1  C   UNL     1       4.561  43.169  51.926  1.00  0.00     0.218 C 
ENDROOT
BRANCH   1   2
ATOM      2  N   UNL     1       3.503  42.692  51.019  1.00  0.00    -0.348 N 
ATOM      3  C   UNL     1       3.667  41.382  50.411  1.00  0.00     0.146 C 
BRANCH   2   4
ATOM      4  C   UNL     1       2.227  43.049  51.434  1.00  0.00     0.158 A 
ATOM      5  N   UNL     1       1.218  42.962  50.538  1.00  0.00    -0.217 NA
ATOM      6  C   UNL     1       1.877  43.526  52.689  1.00  0.00     0.128 A 
ATOM      7  C   UNL     1      -0.038  43.259  50.931  1.00  0.00     0.226 A 
ATOM      8  N   UNL     1       2.577  43.878  53.812  1.00  0.00    -0.340 N 
ATOM      9  C   UNL     1       0.562  43.822  53.000  1.00  0.00     0.182 A 
ATOM     10  N   UNL     1      -0.452  43.683  52.130  1.00  0.00    -0.215 NA
ATOM     11  C   UNL     1       1.678  44.321  54.742  1.00  0.00     0.199 A 
ATOM     12  N   UNL     1       0.447  44.288  54.284  1.00  0.00    -0.217 NA
ATOM     13  H   UNL     1       3.587  43.914  53.882  1.00  0.00     0.168 HD
ENDBRANCH   2   4
ENDBRANCH   1   2
BRANCH   1  14
ATOM     14  C   UNL     1       5.304  44.427  51.414  1.00  0.00     0.242 C 
ATOM     15  O   UNL     1       5.897  44.432  50.328  1.00  0.00    -0.273 OA
BRANCH  14  16
ATOM     16  N   UNL     1       5.259  45.560  52.210  1.00  0.00    -0.338 N 
ATOM     17  C   UNL     1       4.184  46.541  52.214  1.00  0.00     0.120 C 
ATOM     18  C   UNL     1       6.132  45.710  53.381  1.00  0.00     0.088 C 
ATOM     19  C   UNL     1       4.611  47.586  53.228  1.00  0.00     0.024 C 
ATOM     20  C   UNL     1       5.433  46.785  54.228  1.00  0.00     0.027 C 
BRANCH  18  21
ATOM     21  C   UNL     1       7.592  46.008  52.985  1.00  0.00     0.012 C 
ATOM     22  C   UNL     1       8.400  46.706  54.084  1.00  0.00     0.006 C 
ATOM     23  C   UNL     1       7.815  46.915  51.776  1.00  0.00     0.006 C 
ATOM     24  C   UNL     1       9.577  47.371  53.365  1.00  0.00     0.000 C 
ATOM     25  C   UNL     1       9.302  47.232  51.870  1.00  0.00     0.000 C 
ENDBRANCH  18  21
ENDBRANCH  14  16
ENDBRANCH   1  14
TORSDOF 5
ENDMDL
