MODEL 1
REMARK VINA RESULT:    -9.382      0.000      0.000
REMARK INTER + INTRA:         -13.985
REMARK INTER:                 -12.673
REMARK INTRA:                  -1.313
REMARK UNBOUND:                -1.313
REMARK SMILES Cc1[nH]nc2ncc(C(=O)N(Cc3ccccc3)CC3CCCO3)cc12
REMARK SMILES IDX 9 1 10 2 8 3 2 4 3 5 26 6 4 7 25 8 5 9 6 10 7 11 1 12 11 14
REMARK SMILES IDX 12 15 13 16 14 17 18 18 15 19 17 20 16 21 19 22 20 23 21 24
REMARK SMILES IDX 24 25 22 26 23 27
REMARK H PARENT 3 13
ROOT
ATOM      1  C   UNL     1       5.059  44.902  53.235  1.00  0.00     0.255 C 
ATOM      2  O   UNL     1       5.223  44.424  54.353  1.00  0.00    -0.269 OA
ENDROOT
BRANCH   1   3
ATOM      3  C   UNL     1       5.118  43.968  52.102  1.00  0.00     0.059 A 
ATOM      4  C   UNL     1       6.814  42.943  49.097  1.00  0.00     0.042 A 
ATOM      5  N   UNL     1       6.306  41.827  48.477  1.00  0.00    -0.280 N 
ATOM      6  C   UNL     1       5.995  43.130  50.183  1.00  0.00     0.042 A 
ATOM      7  N   UNL     1       5.242  41.276  49.092  1.00  0.00    -0.155 NA
ATOM      8  C   UNL     1       6.110  44.140  51.128  1.00  0.00     0.029 A 
ATOM      9  C   UNL     1       5.030  42.072  50.140  1.00  0.00     0.181 A 
ATOM     10  N   UNL     1       4.059  41.948  51.084  1.00  0.00    -0.234 NA
ATOM     11  C   UNL     1       4.149  42.938  52.029  1.00  0.00     0.127 A 
ATOM     12  C   UNL     1       7.994  43.674  48.583  1.00  0.00     0.067 C 
ATOM     13  H   UNL     1       6.644  41.382  47.630  1.00  0.00     0.190 HD
ENDBRANCH   1   3
BRANCH   1  14
ATOM     14  N   UNL     1       4.809  46.251  52.973  1.00  0.00    -0.332 N 
BRANCH  14  15
ATOM     15  C   UNL     1       5.615  47.354  53.509  1.00  0.00     0.155 C 
BRANCH  15  16
ATOM     16  C   UNL     1       7.093  47.223  53.219  1.00  0.00    -0.029 A 
ATOM     17  C   UNL     1       7.595  47.312  51.912  1.00  0.00     0.005 A 
ATOM     18  C   UNL     1       7.999  47.041  54.276  1.00  0.00     0.005 A 
ATOM     19  C   UNL     1       8.965  47.198  51.667  1.00  0.00     0.000 A 
ATOM     20  C   UNL     1       9.368  46.925  54.029  1.00  0.00     0.000 A 
ATOM     21  C   UNL     1       9.850  47.002  52.724  1.00  0.00     0.000 A 
ENDBRANCH  15  16
ENDBRANCH  14  15
BRANCH  14  22
ATOM     22  C   UNL     1       3.681  46.581  52.093  1.00  0.00     0.152 C 
BRANCH  22  23
ATOM     23  C   UNL     1       2.298  46.620  52.781  1.00  0.00     0.137 C 
ATOM     24  C   UNL     1       2.230  45.979  54.163  1.00  0.00     0.036 C 
ATOM     25  O   UNL     1       1.292  45.979  51.974  1.00  0.00    -0.376 OA
ATOM     26  C   UNL     1       1.488  44.688  53.922  1.00  0.00     0.031 C 
ATOM     27  C   UNL     1       0.558  45.067  52.795  1.00  0.00     0.160 C 
ENDBRANCH  22  23
ENDBRANCH  14  22
ENDBRANCH   1  14
TORSDOF 6
ENDMDL
MODEL 2
REMARK VINA RESULT:    -9.124      2.466      6.302
REMARK INTER + INTRA:         -13.637
REMARK INTER:                 -12.359
REMARK INTRA:                  -1.278
REMARK UNBOUND:                -1.313
REMARK SMILES Cc1[nH]nc2ncc(C(=O)N(Cc3ccccc3)CC3CCCO3)cc12
REMARK SMILES IDX 9 1 10 2 8 3 2 4 3 5 26 6 4 7 25 8 5 9 6 10 7 11 1 12 11 14
REMARK SMILES IDX 12 15 13 16 14 17 18 18 15 19 17 20 16 21 19 22 20 23 21 24
REMARK SMILES IDX 24 25 22 26 23 27
REMARK H PARENT 3 13
ROOT
ATOM      1  C   UNL     1       4.436  47.084  53.272  1.00  0.00     0.255 C 
ATOM      2  O   UNL     1       4.471  48.280  53.540  1.00  0.00    -0.269 OA
ENDROOT
BRANCH   1   3
ATOM      3  C   UNL     1       3.264  46.334  53.743  1.00  0.00     0.059 A 
ATOM      4  C   UNL     1       0.018  44.979  52.978  1.00  0.00     0.042 A 
ATOM      5  N   UNL     1      -0.580  44.260  53.985  1.00  0.00    -0.280 N 
ATOM      6  C   UNL     1       1.209  45.393  53.520  1.00  0.00     0.042 A 
ATOM      7  N   UNL     1       0.143  44.166  55.118  1.00  0.00    -0.155 NA
ATOM      8  C   UNL     1       2.176  46.155  52.878  1.00  0.00     0.029 A 
ATOM      9  C   UNL     1       1.246  44.868  54.852  1.00  0.00     0.181 A 
ATOM     10  N   UNL     1       2.303  45.083  55.680  1.00  0.00    -0.234 NA
ATOM     11  C   UNL     1       3.272  45.837  55.069  1.00  0.00     0.127 A 
ATOM     12  C   UNL     1      -0.613  45.174  51.654  1.00  0.00     0.067 C 
ATOM     13  H   UNL     1      -1.484  43.799  53.964  1.00  0.00     0.190 HD
ENDBRANCH   1   3
BRANCH   1  14
ATOM     14  N   UNL     1       5.415  46.400  52.545  1.00  0.00    -0.332 N 
BRANCH  14  15
ATOM     15  C   UNL     1       5.290  46.053  51.125  1.00  0.00     0.155 C 
BRANCH  15  16
ATOM     16  C   UNL     1       5.341  44.566  50.856  1.00  0.00    -0.029 A 
ATOM     17  C   UNL     1       4.347  43.700  51.334  1.00  0.00     0.005 A 
ATOM     18  C   UNL     1       6.384  44.031  50.084  1.00  0.00     0.005 A 
ATOM     19  C   UNL     1       4.408  42.331  51.066  1.00  0.00     0.000 A 
ATOM     20  C   UNL     1       6.444  42.663  49.818  1.00  0.00     0.000 A 
ATOM     21  C   UNL     1       5.457  41.812  50.311  1.00  0.00     0.000 A 
ENDBRANCH  15  16
ENDBRANCH  14  15
BRANCH  14  22
ATOM     22  C   UNL     1       6.651  46.027  53.244  1.00  0.00     0.152 C 
BRANCH  22  23
ATOM     23  C   UNL     1       7.696  47.157  53.384  1.00  0.00     0.137 C 
ATOM     24  C   UNL     1       8.690  47.284  52.235  1.00  0.00     0.036 C 
ATOM     25  O   UNL     1       8.469  47.010  54.590  1.00  0.00    -0.376 OA
ATOM     26  C   UNL     1       9.974  46.742  52.811  1.00  0.00     0.031 C 
ATOM     27  C   UNL     1       9.855  47.135  54.263  1.00  0.00     0.160 C 
ENDBRANCH  22  23
ENDBRANCH  14  22
ENDBRANCH   1  14
TORSDOF 6
ENDMDL
MODEL 3
REMARK VINA RESULT:    -8.981      2.190      5.397
REMARK INTER + INTRA:         -13.444
REMARK INTER:                 -12.290
REMARK INTRA:                  -1.154
REMARK UNBOUND:                -1.313
REMARK SMILES Cc1[nH]nc2ncc(C(=O)N(Cc3ccccc3)CC3CCCO3)cc12
REMARK SMILES IDX 9 1 10 2 8 3 2 4 3 5 26 6 4 7 25 8 5 9 6 10 7 11 1 12 11 14
REMARK SMILES IDX 12 15 13 16 14 17 18 18 15 19 17 20 16 21 19 22 20 23 21 24
REMARK SMILES IDX 24 25 22 26 23 27
REMARK H PARENT 3 13
ROOT
ATOM      1  C   UNL     1       4.659  45.803  51.794  1.00  0.00     0.255 C 
ATOM      2  O   UNL     1       4.436  46.412  50.752  1.00  0.00    -0.269 OA
ENDROOT
BRANCH   1   3
ATOM      3  C   UNL     1       5.831  46.230  52.572  1.00  0.00     0.059 A 
ATOM      4  C   UNL     1       9.412  46.554  52.736  1.00  0.00     0.042 A 
ATOM      5  N   UNL     1       9.905  47.155  53.868  1.00  0.00    -0.280 N 
ATOM      6  C   UNL     1       8.052  46.536  52.926  1.00  0.00     0.042 A 
ATOM      7  N   UNL     1       8.967  47.540  54.756  1.00  0.00    -0.155 NA
ATOM      8  C   UNL     1       7.112  46.026  52.041  1.00  0.00     0.029 A 
ATOM      9  C   UNL     1       7.819  47.157  54.196  1.00  0.00     0.181 A 
ATOM     10  N   UNL     1       6.566  47.314  54.698  1.00  0.00    -0.234 NA
ATOM     11  C   UNL     1       5.617  46.815  53.843  1.00  0.00     0.127 A 
ATOM     12  C   UNL     1      10.285  46.083  51.638  1.00  0.00     0.067 C 
ATOM     13  H   UNL     1      10.875  47.341  54.098  1.00  0.00     0.190 HD
ENDBRANCH   1   3
BRANCH   1  14
ATOM     14  N   UNL     1       3.876  44.758  52.289  1.00  0.00    -0.332 N 
BRANCH  14  15
ATOM     15  C   UNL     1       4.370  43.393  52.505  1.00  0.00     0.155 C 
BRANCH  15  16
ATOM     16  C   UNL     1       4.611  42.625  51.225  1.00  0.00    -0.029 A 
ATOM     17  C   UNL     1       5.769  42.822  50.458  1.00  0.00     0.005 A 
ATOM     18  C   UNL     1       3.679  41.664  50.801  1.00  0.00     0.005 A 
ATOM     19  C   UNL     1       5.977  42.095  49.285  1.00  0.00     0.000 A 
ATOM     20  C   UNL     1       3.888  40.939  49.627  1.00  0.00     0.000 A 
ATOM     21  C   UNL     1       5.037  41.156  48.868  1.00  0.00     0.000 A 
ENDBRANCH  15  16
ENDBRANCH  14  15
BRANCH  14  22
ATOM     22  C   UNL     1       2.479  45.051  52.633  1.00  0.00     0.152 C 
BRANCH  22  23
ATOM     23  C   UNL     1       1.994  44.460  53.977  1.00  0.00     0.137 C 
ATOM     24  C   UNL     1       0.868  43.437  53.879  1.00  0.00     0.036 C 
ATOM     25  O   UNL     1       1.541  45.494  54.871  1.00  0.00    -0.376 OA
ATOM     26  C   UNL     1      -0.342  44.188  54.375  1.00  0.00     0.031 C 
ATOM     27  C   UNL     1       0.264  45.121  55.395  1.00  0.00     0.160 C 
ENDBRANCH  22  23
ENDBRANCH  14  22
ENDBRANCH   1  14
TORSDOF 6
ENDMDL
MODEL 4
REMARK VINA RESULT:    -8.678      2.342      6.498
REMARK INTER + INTRA:         -13.035
REMARK INTER:                 -12.064
REMARK INTRA:                  -0.971
REMARK UNBOUND:                -1.313
REMARK SMILES Cc1[nH]nc2ncc(C(=O)N(Cc3ccccc3)CC3CCCO3)cc12
REMARK SMILES IDX 9 1 10 2 8 3 2 4 3 5 26 6 4 7 25 8 5 9 6 10 7 11 1 12 11 14
REMARK SMILES IDX 12 15 13 16 14 17 18 18 15 19 17 20 16 21 19 22 20 23 21 24
REMARK SMILES IDX 24 25 22 26 23 27
REMARK H PARENT 3 13
ROOT
ATOM      1  C   UNL     1       4.819  45.786  52.240  1.00  0.00     0.255 C 
ATOM      2  O   UNL     1       4.443  46.473  51.296  1.00  0.00    -0.269 OA
ENDROOT
BRANCH   1   3
ATOM      3  C   UNL     1       6.050  46.213  52.920  1.00  0.00     0.059 A 
ATOM      4  C   UNL     1       9.632  46.546  52.788  1.00  0.00     0.042 A 
ATOM      5  N   UNL     1      10.215  47.144  53.879  1.00  0.00    -0.280 N 
ATOM      6  C   UNL     1       8.292  46.523  53.090  1.00  0.00     0.042 A 
ATOM      7  N   UNL     1       9.353  47.523  54.843  1.00  0.00    -0.155 NA
ATOM      8  C   UNL     1       7.283  46.015  52.285  1.00  0.00     0.029 A 
ATOM      9  C   UNL     1       8.164  47.139  54.378  1.00  0.00     0.181 A 
ATOM     10  N   UNL     1       6.956  47.291  54.983  1.00  0.00    -0.234 NA
ATOM     11  C   UNL     1       5.941  46.792  54.208  1.00  0.00     0.127 A 
ATOM     12  C   UNL     1      10.412  46.081  51.620  1.00  0.00     0.067 C 
ATOM     13  H   UNL     1      11.200  47.332  54.028  1.00  0.00     0.190 HD
ENDBRANCH   1   3
BRANCH   1  14
ATOM     14  N   UNL     1       4.155  44.652  52.715  1.00  0.00    -0.332 N 
BRANCH  14  15
ATOM     15  C   UNL     1       2.956  44.696  53.559  1.00  0.00     0.155 C 
BRANCH  15  16
ATOM     16  C   UNL     1       1.749  44.034  52.935  1.00  0.00    -0.029 A 
ATOM     17  C   UNL     1       1.228  44.466  51.707  1.00  0.00     0.005 A 
ATOM     18  C   UNL     1       1.145  42.938  53.573  1.00  0.00     0.005 A 
ATOM     19  C   UNL     1       0.118  43.835  51.143  1.00  0.00     0.000 A 
ATOM     20  C   UNL     1       0.034  42.309  53.009  1.00  0.00     0.000 A 
ATOM     21  C   UNL     1      -0.480  42.759  51.794  1.00  0.00     0.000 A 
ENDBRANCH  15  16
ENDBRANCH  14  15
BRANCH  14  22
ATOM     22  C   UNL     1       4.682  43.337  52.327  1.00  0.00     0.152 C 
BRANCH  22  23
ATOM     23  C   UNL     1       4.711  43.062  50.806  1.00  0.00     0.137 C 
ATOM     24  C   UNL     1       4.703  41.592  50.401  1.00  0.00     0.036 C 
ATOM     25  O   UNL     1       5.866  43.659  50.188  1.00  0.00    -0.376 OA
ATOM     26  C   UNL     1       6.117  41.340  49.941  1.00  0.00     0.031 C 
ATOM     27  C   UNL     1       6.501  42.680  49.361  1.00  0.00     0.160 C 
ENDBRANCH  22  23
ENDBRANCH  14  22
ENDBRANCH   1  14
TORSDOF 6
ENDMDL
MODEL 5
REMARK VINA RESULT:    -8.578      2.346      5.400
REMARK INTER + INTRA:         -12.899
REMARK INTER:                 -12.044
REMARK INTRA:                  -0.856
REMARK UNBOUND:                -1.313
REMARK SMILES Cc1[nH]nc2ncc(C(=O)N(Cc3ccccc3)CC3CCCO3)cc12
REMARK SMILES IDX 9 1 10 2 8 3 2 4 3 5 26 6 4 7 25 8 5 9 6 10 7 11 1 12 11 14
REMARK SMILES IDX 12 15 13 16 14 17 18 18 15 19 17 20 16 21 19 22 20 23 21 24
REMARK SMILES IDX 24 25 22 26 23 27
REMARK H PARENT 3 13
ROOT
ATOM      1  C   UNL     1       4.859  44.712  53.462  1.00  0.00     0.255 C 
ATOM      2  O   UNL     1       5.658  44.219  54.252  1.00  0.00    -0.269 OA
ENDROOT
BRANCH   1   3
ATOM      3  C   UNL     1       3.433  44.564  53.783  1.00  0.00     0.059 A 
ATOM      4  C   UNL     1       0.741  45.296  56.059  1.00  0.00     0.042 A 
ATOM      5  N   UNL     1      -0.499  44.841  55.681  1.00  0.00    -0.280 N 
ATOM      6  C   UNL     1       1.576  44.879  55.052  1.00  0.00     0.042 A 
ATOM      7  N   UNL     1      -0.525  44.185  54.505  1.00  0.00    -0.155 NA
ATOM      8  C   UNL     1       2.944  45.107  54.979  1.00  0.00     0.029 A 
ATOM      9  C   UNL     1       0.748  44.190  54.107  1.00  0.00     0.181 A 
ATOM     10  N   UNL     1       1.257  43.648  52.969  1.00  0.00    -0.234 NA
ATOM     11  C   UNL     1       2.609  43.856  52.875  1.00  0.00     0.127 A 
ATOM     12  C   UNL     1       0.966  46.057  57.308  1.00  0.00     0.067 C 
ATOM     13  H   UNL     1      -1.376  44.949  56.179  1.00  0.00     0.190 HD
ENDBRANCH   1   3
BRANCH   1  14
ATOM     14  N   UNL     1       5.212  45.408  52.303  1.00  0.00    -0.332 N 
BRANCH  14  15
ATOM     15  C   UNL     1       5.746  46.775  52.297  1.00  0.00     0.155 C 
BRANCH  15  16
ATOM     16  C   UNL     1       7.227  46.849  52.592  1.00  0.00    -0.029 A 
ATOM     17  C   UNL     1       8.185  46.685  51.581  1.00  0.00     0.005 A 
ATOM     18  C   UNL     1       7.667  47.122  53.897  1.00  0.00     0.005 A 
ATOM     19  C   UNL     1       9.548  46.767  51.872  1.00  0.00     0.000 A 
ATOM     20  C   UNL     1       9.030  47.203  54.187  1.00  0.00     0.000 A 
ATOM     21  C   UNL     1       9.970  47.024  53.174  1.00  0.00     0.000 A 
ENDBRANCH  15  16
ENDBRANCH  14  15
BRANCH  14  22
ATOM     22  C   UNL     1       5.055  44.720  51.016  1.00  0.00     0.152 C 
BRANCH  22  23
ATOM     23  C   UNL     1       5.932  43.461  50.831  1.00  0.00     0.137 C 
ATOM     24  C   UNL     1       6.941  43.521  49.689  1.00  0.00     0.036 C 
ATOM     25  O   UNL     1       5.126  42.287  50.614  1.00  0.00    -0.376 OA
ATOM     26  C   UNL     1       6.346  42.617  48.639  1.00  0.00     0.031 C 
ATOM     27  C   UNL     1       5.637  41.584  49.479  1.00  0.00     0.160 C 
ENDBRANCH  22  23
ENDBRANCH  14  22
ENDBRANCH   1  14
TORSDOF 6
ENDMDL
MODEL 6
REMARK VINA RESULT:    -8.568      1.988      5.267
REMARK INTER + INTRA:         -12.886
REMARK INTER:                 -12.318
REMARK INTRA:                  -0.568
REMARK UNBOUND:                -1.313
REMARK SMILES Cc1[nH]nc2ncc(C(=O)N(Cc3ccccc3)CC3CCCO3)cc12
REMARK SMILES IDX 9 1 10 2 8 3 2 4 3 5 26 6 4 7 25 8 5 9 6 10 7 11 1 12 11 14
REMARK SMILES IDX 12 15 13 16 14 17 18 18 15 19 17 20 16 21 19 22 20 23 21 24
REMARK SMILES IDX 24 25 22 26 23 27
REMARK H PARENT 3 13
ROOT
ATOM      1  C   UNL     1       6.877  45.590  50.978  1.00  0.00     0.255 C 
ATOM      2  O   UNL     1       7.699  45.956  50.143  1.00  0.00    -0.269 OA
ENDROOT
BRANCH   1   3
ATOM      3  C   UNL     1       6.186  44.321  50.714  1.00  0.00     0.059 A 
ATOM      4  C   UNL     1       3.327  42.230  51.356  1.00  0.00     0.042 A 
ATOM      5  N   UNL     1       3.283  41.048  50.655  1.00  0.00    -0.280 N 
ATOM      6  C   UNL     1       4.500  42.819  50.953  1.00  0.00     0.042 A 
ATOM      7  N   UNL     1       4.324  40.847  49.824  1.00  0.00    -0.155 NA
ATOM      8  C   UNL     1       4.986  44.045  51.384  1.00  0.00     0.029 A 
ATOM      9  C   UNL     1       5.089  41.924  50.002  1.00  0.00     0.181 A 
ATOM     10  N   UNL     1       6.270  42.205  49.389  1.00  0.00    -0.234 NA
ATOM     11  C   UNL     1       6.774  43.412  49.801  1.00  0.00     0.127 A 
ATOM     12  C   UNL     1       2.263  42.637  52.301  1.00  0.00     0.067 C 
ATOM     13  H   UNL     1       2.565  40.333  50.693  1.00  0.00     0.190 HD
ENDBRANCH   1   3
BRANCH   1  14
ATOM     14  N   UNL     1       6.573  46.281  52.153  1.00  0.00    -0.332 N 
BRANCH  14  15
ATOM     15  C   UNL     1       5.373  47.106  52.332  1.00  0.00     0.155 C 
BRANCH  15  16
ATOM     16  C   UNL     1       4.345  46.493  53.255  1.00  0.00    -0.029 A 
ATOM     17  C   UNL     1       4.714  45.894  54.469  1.00  0.00     0.005 A 
ATOM     18  C   UNL     1       2.983  46.546  52.919  1.00  0.00     0.005 A 
ATOM     19  C   UNL     1       3.748  45.341  55.312  1.00  0.00     0.000 A 
ATOM     20  C   UNL     1       2.019  45.992  53.762  1.00  0.00     0.000 A 
ATOM     21  C   UNL     1       2.402  45.388  54.958  1.00  0.00     0.000 A 
ENDBRANCH  15  16
ENDBRANCH  14  15
BRANCH  14  22
ATOM     22  C   UNL     1       7.503  46.157  53.283  1.00  0.00     0.152 C 
BRANCH  22  23
ATOM     23  C   UNL     1       8.409  47.384  53.528  1.00  0.00     0.137 C 
ATOM     24  C   UNL     1       9.907  47.138  53.385  1.00  0.00     0.036 C 
ATOM     25  O   UNL     1       8.201  47.936  54.842  1.00  0.00    -0.376 OA
ATOM     26  C   UNL     1      10.408  47.144  54.808  1.00  0.00     0.031 C 
ATOM     27  C   UNL     1       9.473  48.130  55.464  1.00  0.00     0.160 C 
ENDBRANCH  22  23
ENDBRANCH  14  22
ENDBRANCH   1  14
TORSDOF 6
ENDMDL
MODEL 7
REMARK VINA RESULT:    -8.535      2.308      5.278
REMARK INTER + INTRA:         -12.841
REMARK INTER:                 -11.823
REMARK INTRA:                  -1.018
REMARK UNBOUND:                -1.313
REMARK SMILES Cc1[nH]nc2ncc(C(=O)N(Cc3ccccc3)CC3CCCO3)cc12
REMARK SMILES IDX 9 1 10 2 8 3 2 4 3 5 26 6 4 7 25 8 5 9 6 10 7 11 1 12 11 14
REMARK SMILES IDX 12 15 13 16 14 17 18 18 15 19 17 20 16 21 19 22 20 23 21 24
REMARK SMILES IDX 24 25 22 26 23 27
REMARK H PARENT 3 13
ROOT
ATOM      1  C   UNL     1       4.849  44.751  53.566  1.00  0.00     0.255 C 
ATOM      2  O   UNL     1       5.664  44.183  54.286  1.00  0.00    -0.269 OA
ENDROOT
BRANCH   1   3
ATOM      3  C   UNL     1       3.447  44.726  54.007  1.00  0.00     0.059 A 
ATOM      4  C   UNL     1       0.164  43.304  53.608  1.00  0.00     0.042 A 
ATOM      5  N   UNL     1      -0.791  43.754  54.487  1.00  0.00    -0.280 N 
ATOM      6  C   UNL     1       1.296  44.000  53.952  1.00  0.00     0.042 A 
ATOM      7  N   UNL     1      -0.354  44.666  55.376  1.00  0.00    -0.155 NA
ATOM      8  C   UNL     1       2.540  43.885  53.347  1.00  0.00     0.029 A 
ATOM      9  C   UNL     1       0.929  44.838  55.054  1.00  0.00     0.181 A 
ATOM     10  N   UNL     1       1.824  45.666  55.656  1.00  0.00    -0.234 NA
ATOM     11  C   UNL     1       3.062  45.574  55.074  1.00  0.00     0.127 A 
ATOM     12  C   UNL     1      -0.120  42.285  52.572  1.00  0.00     0.067 C 
ATOM     13  H   UNL     1      -1.765  43.474  54.539  1.00  0.00     0.190 HD
ENDBRANCH   1   3
BRANCH   1  14
ATOM     14  N   UNL     1       5.162  45.424  52.382  1.00  0.00    -0.332 N 
BRANCH  14  15
ATOM     15  C   UNL     1       5.690  46.792  52.332  1.00  0.00     0.155 C 
BRANCH  15  16
ATOM     16  C   UNL     1       7.163  46.889  52.657  1.00  0.00    -0.029 A 
ATOM     17  C   UNL     1       7.610  47.158  53.959  1.00  0.00     0.005 A 
ATOM     18  C   UNL     1       8.117  46.672  51.650  1.00  0.00     0.005 A 
ATOM     19  C   UNL     1       8.975  47.234  54.241  1.00  0.00     0.000 A 
ATOM     20  C   UNL     1       9.481  46.749  51.933  1.00  0.00     0.000 A 
ATOM     21  C   UNL     1       9.910  47.031  53.229  1.00  0.00     0.000 A 
ENDBRANCH  15  16
ENDBRANCH  14  15
BRANCH  14  22
ATOM     22  C   UNL     1       4.970  44.708  51.115  1.00  0.00     0.152 C 
BRANCH  22  23
ATOM     23  C   UNL     1       5.861  43.460  50.923  1.00  0.00     0.137 C 
ATOM     24  C   UNL     1       6.830  43.516  49.747  1.00  0.00     0.036 C 
ATOM     25  O   UNL     1       5.067  42.270  50.753  1.00  0.00    -0.376 OA
ATOM     26  C   UNL     1       6.215  42.584  48.732  1.00  0.00     0.031 C 
ATOM     27  C   UNL     1       5.551  41.555  49.614  1.00  0.00     0.160 C 
ENDBRANCH  22  23
ENDBRANCH  14  22
ENDBRANCH   1  14
TORSDOF 6
ENDMDL
MODEL 8
REMARK VINA RESULT:    -8.520      2.495      5.038
REMARK INTER + INTRA:         -12.821
REMARK INTER:                 -11.745
REMARK INTRA:                  -1.076
REMARK UNBOUND:                -1.313
REMARK SMILES Cc1[nH]nc2ncc(C(=O)N(Cc3ccccc3)CC3CCCO3)cc12
REMARK SMILES IDX 9 1 10 2 8 3 2 4 3 5 26 6 4 7 25 8 5 9 6 10 7 11 1 12 11 14
REMARK SMILES IDX 12 15 13 16 14 17 18 18 15 19 17 20 16 21 19 22 20 23 21 24
REMARK SMILES IDX 24 25 22 26 23 27
REMARK H PARENT 3 13
ROOT
ATOM      1  C   UNL     1       4.438  46.626  53.915  1.00  0.00     0.255 C 
ATOM      2  O   UNL     1       4.769  47.605  54.577  1.00  0.00    -0.269 OA
ENDROOT
BRANCH   1   3
ATOM      3  C   UNL     1       3.125  46.038  54.215  1.00  0.00     0.059 A 
ATOM      4  C   UNL     1      -0.068  44.943  52.966  1.00  0.00     0.042 A 
ATOM      5  N   UNL     1      -0.908  44.376  53.893  1.00  0.00    -0.280 N 
ATOM      6  C   UNL     1       1.050  45.285  53.686  1.00  0.00     0.042 A 
ATOM      7  N   UNL     1      -0.408  44.312  55.143  1.00  0.00    -0.155 NA
ATOM      8  C   UNL     1       2.192  45.890  53.180  1.00  0.00     0.029 A 
ATOM      9  C   UNL     1       0.795  44.877  55.035  1.00  0.00     0.181 A 
ATOM     10  N   UNL     1       1.709  45.060  56.025  1.00  0.00    -0.234 NA
ATOM     11  C   UNL     1       2.847  45.661  55.552  1.00  0.00     0.127 A 
ATOM     12  C   UNL     1      -0.432  45.081  51.538  1.00  0.00     0.067 C 
ATOM     13  H   UNL     1      -1.839  44.005  53.739  1.00  0.00     0.190 HD
ENDBRANCH   1   3
BRANCH   1  14
ATOM     14  N   UNL     1       5.208  46.053  52.900  1.00  0.00    -0.332 N 
BRANCH  14  15
ATOM     15  C   UNL     1       6.027  46.823  51.957  1.00  0.00     0.155 C 
BRANCH  15  16
ATOM     16  C   UNL     1       7.510  46.762  52.249  1.00  0.00    -0.029 A 
ATOM     17  C   UNL     1       8.405  46.137  51.368  1.00  0.00     0.005 A 
ATOM     18  C   UNL     1       8.020  47.369  53.407  1.00  0.00     0.005 A 
ATOM     19  C   UNL     1       9.771  46.099  51.651  1.00  0.00     0.000 A 
ATOM     20  C   UNL     1       9.386  47.330  53.689  1.00  0.00     0.000 A 
ATOM     21  C   UNL     1      10.262  46.694  52.811  1.00  0.00     0.000 A 
ENDBRANCH  15  16
ENDBRANCH  14  15
BRANCH  14  22
ATOM     22  C   UNL     1       5.211  44.589  52.786  1.00  0.00     0.152 C 
BRANCH  22  23
ATOM     23  C   UNL     1       4.797  44.036  51.404  1.00  0.00     0.137 C 
ATOM     24  C   UNL     1       3.678  43.000  51.416  1.00  0.00     0.036 C 
ATOM     25  O   UNL     1       5.914  43.434  50.723  1.00  0.00    -0.376 OA
ATOM     26  C   UNL     1       4.390  41.700  51.137  1.00  0.00     0.031 C 
ATOM     27  C   UNL     1       5.518  42.148  50.240  1.00  0.00     0.160 C 
ENDBRANCH  22  23
ENDBRANCH  14  22
ENDBRANCH   1  14
TORSDOF 6
ENDMDL
MODEL 9
REMARK VINA RESULT:    -8.340      2.219      5.246
REMARK INTER + INTRA:         -12.578
REMARK INTER:                 -11.978
REMARK INTRA:                  -0.599
REMARK UNBOUND:                -1.313
REMARK SMILES Cc1[nH]nc2ncc(C(=O)N(Cc3ccccc3)CC3CCCO3)cc12
REMARK SMILES IDX 9 1 10 2 8 3 2 4 3 5 26 6 4 7 25 8 5 9 6 10 7 11 1 12 11 14
REMARK SMILES IDX 12 15 13 16 14 17 18 18 15 19 17 20 16 21 19 22 20 23 21 24
REMARK SMILES IDX 24 25 22 26 23 27
REMARK H PARENT 3 13
ROOT
ATOM      1  C   UNL     1       4.636  46.336  52.279  1.00  0.00     0.255 C 
ATOM      2  O   UNL     1       4.101  47.354  52.706  1.00  0.00    -0.269 OA
ENDROOT
BRANCH   1   3
ATOM      3  C   UNL     1       6.098  46.366  52.136  1.00  0.00     0.059 A 
ATOM      4  C   UNL     1       9.275  47.210  53.603  1.00  0.00     0.042 A 
ATOM      5  N   UNL     1      10.382  46.887  52.855  1.00  0.00    -0.280 N 
ATOM      6  C   UNL     1       8.214  46.810  52.828  1.00  0.00     0.042 A 
ATOM      7  N   UNL     1      10.112  46.296  51.675  1.00  0.00    -0.155 NA
ATOM      8  C   UNL     1       6.872  46.923  53.163  1.00  0.00     0.029 A 
ATOM      9  C   UNL     1       8.779  46.250  51.637  1.00  0.00     0.181 A 
ATOM     10  N   UNL     1       8.002  45.742  50.644  1.00  0.00    -0.234 NA
ATOM     11  C   UNL     1       6.669  45.846  50.949  1.00  0.00     0.127 A 
ATOM     12  C   UNL     1       9.371  47.845  54.936  1.00  0.00     0.067 C 
ATOM     13  H   UNL     1      11.355  47.037  53.094  1.00  0.00     0.190 HD
ENDBRANCH   1   3
BRANCH   1  14
ATOM     14  N   UNL     1       3.958  45.162  51.939  1.00  0.00    -0.332 N 
BRANCH  14  15
ATOM     15  C   UNL     1       4.359  43.824  52.389  1.00  0.00     0.155 C 
BRANCH  15  16
ATOM     16  C   UNL     1       4.509  42.825  51.264  1.00  0.00    -0.029 A 
ATOM     17  C   UNL     1       3.495  41.904  50.961  1.00  0.00     0.005 A 
ATOM     18  C   UNL     1       5.671  42.829  50.476  1.00  0.00     0.005 A 
ATOM     19  C   UNL     1       3.650  40.995  49.913  1.00  0.00     0.000 A 
ATOM     20  C   UNL     1       5.825  41.919  49.429  1.00  0.00     0.000 A 
ATOM     21  C   UNL     1       4.814  41.001  49.149  1.00  0.00     0.000 A 
ENDBRANCH  15  16
ENDBRANCH  14  15
BRANCH  14  22
ATOM     22  C   UNL     1       2.761  45.281  51.097  1.00  0.00     0.152 C 
BRANCH  22  23
ATOM     23  C   UNL     1       1.415  45.129  51.841  1.00  0.00     0.137 C 
ATOM     24  C   UNL     1       1.502  45.102  53.363  1.00  0.00     0.036 C 
ATOM     25  O   UNL     1       0.727  43.929  51.441  1.00  0.00    -0.376 OA
ATOM     26  C   UNL     1       1.255  43.655  53.710  1.00  0.00     0.031 C 
ATOM     27  C   UNL     1       0.308  43.229  52.615  1.00  0.00     0.160 C 
ENDBRANCH  22  23
ENDBRANCH  14  22
ENDBRANCH   1  14
TORSDOF 6
ENDMDL
MODEL 10
REMARK VINA RESULT:    -8.337      2.429      6.310
REMARK INTER + INTRA:         -12.574
REMARK INTER:                 -11.342
REMARK INTRA:                  -1.232
REMARK UNBOUND:                -1.313
REMARK SMILES Cc1[nH]nc2ncc(C(=O)N(Cc3ccccc3)CC3CCCO3)cc12
REMARK SMILES IDX 9 1 10 2 8 3 2 4 3 5 26 6 4 7 25 8 5 9 6 10 7 11 1 12 11 14
REMARK SMILES IDX 12 15 13 16 14 17 18 18 15 19 17 20 16 21 19 22 20 23 21 24
REMARK SMILES IDX 24 25 22 26 23 27
REMARK H PARENT 3 13
ROOT
ATOM      1  C   UNL     1       3.371  45.687  51.393  1.00  0.00     0.255 C 
ATOM      2  O   UNL     1       3.137  46.451  50.462  1.00  0.00    -0.269 OA
ENDROOT
BRANCH   1   3
ATOM      3  C   UNL     1       2.219  44.995  51.987  1.00  0.00     0.059 A 
ATOM      4  C   UNL     1       0.114  44.526  54.869  1.00  0.00     0.042 A 
ATOM      5  N   UNL     1      -0.940  43.661  54.703  1.00  0.00    -0.280 N 
ATOM      6  C   UNL     1       0.757  44.513  53.656  1.00  0.00     0.042 A 
ATOM      7  N   UNL     1      -1.032  43.113  53.475  1.00  0.00    -0.155 NA
ATOM      8  C   UNL     1       1.891  45.243  53.326  1.00  0.00     0.029 A 
ATOM      9  C   UNL     1       0.012  43.620  52.820  1.00  0.00     0.181 A 
ATOM     10  N   UNL     1       0.371  43.377  51.531  1.00  0.00    -0.234 NA
ATOM     11  C   UNL     1       1.493  44.083  51.181  1.00  0.00     0.127 A 
ATOM     12  C   UNL     1       0.367  45.240  56.140  1.00  0.00     0.067 C 
ATOM     13  H   UNL     1      -1.642  43.402  55.388  1.00  0.00     0.190 HD
ENDBRANCH   1   3
BRANCH   1  14
ATOM     14  N   UNL     1       4.643  45.423  51.907  1.00  0.00    -0.332 N 
BRANCH  14  15
ATOM     15  C   UNL     1       5.146  44.076  52.201  1.00  0.00     0.155 C 
BRANCH  15  16
ATOM     16  C   UNL     1       5.336  43.216  50.972  1.00  0.00    -0.029 A 
ATOM     17  C   UNL     1       6.293  43.531  49.997  1.00  0.00     0.005 A 
ATOM     18  C   UNL     1       4.565  42.054  50.808  1.00  0.00     0.005 A 
ATOM     19  C   UNL     1       6.459  42.718  48.874  1.00  0.00     0.000 A 
ATOM     20  C   UNL     1       4.731  41.243  49.684  1.00  0.00     0.000 A 
ATOM     21  C   UNL     1       5.677  41.576  48.717  1.00  0.00     0.000 A 
ENDBRANCH  15  16
ENDBRANCH  14  15
BRANCH  14  22
ATOM     22  C   UNL     1       5.535  46.564  52.147  1.00  0.00     0.152 C 
BRANCH  22  23
ATOM     23  C   UNL     1       7.011  46.199  52.424  1.00  0.00     0.137 C 
ATOM     24  C   UNL     1       7.657  46.912  53.607  1.00  0.00     0.036 C 
ATOM     25  O   UNL     1       7.840  46.461  51.276  1.00  0.00    -0.376 OA
ATOM     26  C   UNL     1       8.576  47.918  52.960  1.00  0.00     0.031 C 
ATOM     27  C   UNL     1       8.990  47.198  51.699  1.00  0.00     0.160 C 
ENDBRANCH  22  23
ENDBRANCH  14  22
ENDBRANCH   1  14
TORSDOF 6
ENDMDL
