MODEL 1
REMARK VINA RESULT:    -9.338      0.000      0.000
REMARK INTER + INTRA:         -14.442
REMARK INTER:                 -13.432
REMARK INTRA:                  -1.010
REMARK UNBOUND:                -1.010
REMARK SMILES Nc1nc(CSc2nnc(-c3ccccc3F)n2C2CC2)nc(Nc2ccccc2)n1
REMARK SMILES IDX 5 1 4 2 2 3 3 4 31 5 23 6 22 7 1 8 24 11 25 13 26 14 30 15
REMARK SMILES IDX 27 16 29 17 28 18 6 19 7 20 8 21 18 22 9 23 10 24 19 25
REMARK SMILES IDX 20 26 21 27 11 28 12 29 16 30 13 31 15 32 14 33 17 34
REMARK H PARENT 1 9 1 10 24 12
ROOT
ATOM      1  C   UNL     1       1.703  44.328  54.989  1.00  0.00     0.155 C 
ENDROOT
BRANCH   1   2
ATOM      2  C   UNL     1       1.522  43.832  53.575  1.00  0.00     0.146 A 
ATOM      3  C   UNL     1       0.453  43.938  51.609  1.00  0.00     0.225 A 
ATOM      4  N   UNL     1       0.512  44.331  52.867  1.00  0.00    -0.197 NA
ATOM      5  N   UNL     1       1.314  43.119  51.030  1.00  0.00    -0.177 NA
ATOM      6  C   UNL     1       2.289  42.654  51.807  1.00  0.00     0.232 A 
ATOM      7  N   UNL     1       2.434  42.991  53.084  1.00  0.00    -0.197 NA
BRANCH   3   8
ATOM      8  N   UNL     1      -0.553  44.476  50.832  1.00  0.00    -0.368 N 
ATOM      9  H   UNL     1      -0.730  45.430  51.122  1.00  0.00     0.159 HD
ATOM     10  H   UNL     1      -0.359  44.333  49.852  1.00  0.00     0.159 HD
ENDBRANCH   3   8
BRANCH   6  11
ATOM     11  N   UNL     1       3.180  41.792  51.173  1.00  0.00    -0.324 N 
ATOM     12  H   UNL     1       2.868  40.840  51.304  1.00  0.00     0.170 HD
BRANCH  11  13
ATOM     13  C   UNL     1       4.325  41.975  50.390  1.00  0.00     0.041 A 
ATOM     14  C   UNL     1       4.670  41.163  49.305  1.00  0.00     0.026 A 
ATOM     15  C   UNL     1       5.179  43.048  50.695  1.00  0.00     0.026 A 
ATOM     16  C   UNL     1       5.827  41.406  48.556  1.00  0.00     0.002 A 
ATOM     17  C   UNL     1       6.337  43.295  49.950  1.00  0.00     0.002 A 
ATOM     18  C   UNL     1       6.661  42.472  48.878  1.00  0.00     0.000 A 
ENDBRANCH  11  13
ENDBRANCH   6  11
ENDBRANCH   1   2
BRANCH   1  19
ATOM     19  S   UNL     1       2.206  46.084  55.047  1.00  0.00    -0.078 SA
BRANCH  19  20
ATOM     20  C   UNL     1       3.915  45.885  54.897  1.00  0.00     0.192 A 
ATOM     21  N   UNL     1       4.677  45.200  55.718  1.00  0.00    -0.123 NA
ATOM     22  N   UNL     1       4.686  46.441  53.915  1.00  0.00    -0.299 N 
ATOM     23  N   UNL     1       5.973  45.292  55.260  1.00  0.00    -0.129 NA
ATOM     24  C   UNL     1       5.978  46.041  54.171  1.00  0.00     0.167 A 
BRANCH  22  25
ATOM     25  C   UNL     1       4.224  47.151  52.697  1.00  0.00     0.091 C 
ATOM     26  C   UNL     1       2.773  47.181  52.269  1.00  0.00     0.028 C 
ATOM     27  C   UNL     1       3.776  46.453  51.433  1.00  0.00     0.028 C 
ENDBRANCH  22  25
BRANCH  24  28
ATOM     28  C   UNL     1       7.142  46.355  53.362  1.00  0.00     0.055 A 
ATOM     29  C   UNL     1       7.257  45.845  52.064  1.00  0.00     0.015 A 
ATOM     30  C   UNL     1       8.178  47.139  53.875  1.00  0.00     0.134 A 
ATOM     31  C   UNL     1       8.384  46.139  51.289  1.00  0.00     0.001 A 
ATOM     32  C   UNL     1       9.302  47.436  53.107  1.00  0.00     0.040 A 
ATOM     33  C   UNL     1       9.403  46.936  51.810  1.00  0.00     0.003 A 
ATOM     34  F   UNL     1       8.102  47.634  55.121  1.00  0.00    -0.206 F 
ENDBRANCH  24  28
ENDBRANCH  19  20
ENDBRANCH   1  19
TORSDOF 8
ENDMDL
MODEL 2
REMARK VINA RESULT:    -9.234      2.597      6.139
REMARK INTER + INTRA:         -14.293
REMARK INTER:                 -12.909
REMARK INTRA:                  -1.384
REMARK UNBOUND:                -1.010
REMARK SMILES Nc1nc(CSc2nnc(-c3ccccc3F)n2C2CC2)nc(Nc2ccccc2)n1
REMARK SMILES IDX 5 1 4 2 2 3 3 4 31 5 23 6 22 7 1 8 24 11 25 13 26 14 30 15
REMARK SMILES IDX 27 16 29 17 28 18 6 19 7 20 8 21 18 22 9 23 10 24 19 25
REMARK SMILES IDX 20 26 21 27 11 28 12 29 16 30 13 31 15 32 14 33 17 34
REMARK H PARENT 1 9 1 10 24 12
ROOT
ATOM      1  C   UNL     1       6.185  46.721  54.584  1.00  0.00     0.155 C 
ENDROOT
BRANCH   1   2
ATOM      2  C   UNL     1       7.017  46.444  53.355  1.00  0.00     0.146 A 
ATOM      3  C   UNL     1       9.003  46.461  52.319  1.00  0.00     0.225 A 
ATOM      4  N   UNL     1       8.296  46.809  53.377  1.00  0.00    -0.197 NA
ATOM      5  N   UNL     1       8.534  45.784  51.284  1.00  0.00    -0.177 NA
ATOM      6  C   UNL     1       7.243  45.465  51.332  1.00  0.00     0.232 A 
ATOM      7  N   UNL     1       6.450  45.770  52.354  1.00  0.00    -0.197 NA
BRANCH   3   8
ATOM      8  N   UNL     1      10.346  46.779  52.330  1.00  0.00    -0.368 N 
ATOM      9  H   UNL     1      10.714  46.722  51.387  1.00  0.00     0.159 HD
ATOM     10  H   UNL     1      10.501  47.648  52.820  1.00  0.00     0.159 HD
ENDBRANCH   3   8
BRANCH   6  11
ATOM     11  N   UNL     1       6.775  44.755  50.229  1.00  0.00    -0.324 N 
ATOM     12  H   UNL     1       7.057  45.233  49.386  1.00  0.00     0.170 HD
BRANCH  11  13
ATOM     13  C   UNL     1       6.081  43.552  50.067  1.00  0.00     0.041 A 
ATOM     14  C   UNL     1       5.053  43.120  50.911  1.00  0.00     0.026 A 
ATOM     15  C   UNL     1       6.420  42.725  48.981  1.00  0.00     0.026 A 
ATOM     16  C   UNL     1       4.392  41.906  50.688  1.00  0.00     0.002 A 
ATOM     17  C   UNL     1       5.762  41.512  48.754  1.00  0.00     0.002 A 
ATOM     18  C   UNL     1       4.746  41.102  49.610  1.00  0.00     0.000 A 
ENDBRANCH  11  13
ENDBRANCH   6  11
ENDBRANCH   1   2
BRANCH   1  19
ATOM     19  S   UNL     1       4.668  47.663  54.195  1.00  0.00    -0.078 SA
BRANCH  19  20
ATOM     20  C   UNL     1       3.493  46.443  54.537  1.00  0.00     0.192 A 
ATOM     21  N   UNL     1       3.318  45.860  55.700  1.00  0.00    -0.123 NA
ATOM     22  N   UNL     1       2.619  45.920  53.626  1.00  0.00    -0.299 N 
ATOM     23  N   UNL     1       2.298  44.945  55.558  1.00  0.00    -0.129 NA
ATOM     24  C   UNL     1       1.876  44.982  54.305  1.00  0.00     0.167 A 
BRANCH  22  25
ATOM     25  C   UNL     1       2.360  46.396  52.245  1.00  0.00     0.091 C 
ATOM     26  C   UNL     1       2.386  45.475  51.045  1.00  0.00     0.028 C 
ATOM     27  C   UNL     1       3.430  46.536  51.187  1.00  0.00     0.028 C 
ENDBRANCH  22  25
BRANCH  24  28
ATOM     28  C   UNL     1       0.788  44.195  53.754  1.00  0.00     0.055 A 
ATOM     29  C   UNL     1      -0.531  44.659  53.836  1.00  0.00     0.015 A 
ATOM     30  C   UNL     1       1.031  42.952  53.165  1.00  0.00     0.134 A 
ATOM     31  C   UNL     1      -1.580  43.896  53.313  1.00  0.00     0.001 A 
ATOM     32  C   UNL     1      -0.009  42.188  52.641  1.00  0.00     0.040 A 
ATOM     33  C   UNL     1      -1.318  42.664  52.714  1.00  0.00     0.003 A 
ATOM     34  F   UNL     1       2.283  42.476  53.080  1.00  0.00    -0.206 F 
ENDBRANCH  24  28
ENDBRANCH  19  20
ENDBRANCH   1  19
TORSDOF 8
ENDMDL
MODEL 3
REMARK VINA RESULT:    -8.979      1.285      1.951
REMARK INTER + INTRA:         -13.926
REMARK INTER:                 -12.661
REMARK INTRA:                  -1.266
REMARK UNBOUND:                -1.010
REMARK SMILES Nc1nc(CSc2nnc(-c3ccccc3F)n2C2CC2)nc(Nc2ccccc2)n1
REMARK SMILES IDX 5 1 4 2 2 3 3 4 31 5 23 6 22 7 1 8 24 11 25 13 26 14 30 15
REMARK SMILES IDX 27 16 29 17 28 18 6 19 7 20 8 21 18 22 9 23 10 24 19 25
REMARK SMILES IDX 20 26 21 27 11 28 12 29 16 30 13 31 15 32 14 33 17 34
REMARK H PARENT 1 9 1 10 24 12
ROOT
ATOM      1  C   UNL     1       1.409  46.178  53.038  1.00  0.00     0.155 C 
ENDROOT
BRANCH   1   2
ATOM      2  C   UNL     1       1.339  44.894  52.246  1.00  0.00     0.146 A 
ATOM      3  C   UNL     1       0.238  43.553  50.830  1.00  0.00     0.225 A 
ATOM      4  N   UNL     1       0.216  44.637  51.582  1.00  0.00    -0.197 NA
ATOM      5  N   UNL     1       1.276  42.746  50.695  1.00  0.00    -0.177 NA
ATOM      6  C   UNL     1       2.358  43.065  51.400  1.00  0.00     0.232 A 
ATOM      7  N   UNL     1       2.434  44.136  52.184  1.00  0.00    -0.197 NA
BRANCH   3   8
ATOM      8  N   UNL     1      -0.894  43.282  50.087  1.00  0.00    -0.368 N 
ATOM      9  H   UNL     1      -1.680  43.136  50.710  1.00  0.00     0.159 HD
ATOM     10  H   UNL     1      -1.018  43.975  49.364  1.00  0.00     0.159 HD
ENDBRANCH   3   8
BRANCH   6  11
ATOM     11  N   UNL     1       3.436  42.197  51.241  1.00  0.00    -0.324 N 
ATOM     12  H   UNL     1       3.172  41.279  51.567  1.00  0.00     0.170 HD
BRANCH  11  13
ATOM     13  C   UNL     1       4.719  42.326  50.698  1.00  0.00     0.041 A 
ATOM     14  C   UNL     1       5.489  41.251  50.243  1.00  0.00     0.026 A 
ATOM     15  C   UNL     1       5.272  43.613  50.585  1.00  0.00     0.026 A 
ATOM     16  C   UNL     1       6.765  41.448  49.702  1.00  0.00     0.002 A 
ATOM     17  C   UNL     1       6.547  43.816  50.046  1.00  0.00     0.002 A 
ATOM     18  C   UNL     1       7.294  42.731  49.604  1.00  0.00     0.000 A 
ENDBRANCH  11  13
ENDBRANCH   6  11
ENDBRANCH   1   2
BRANCH   1  19
ATOM     19  S   UNL     1       2.467  46.019  54.520  1.00  0.00    -0.078 SA
BRANCH  19  20
ATOM     20  C   UNL     1       3.874  46.839  53.942  1.00  0.00     0.192 A 
ATOM     21  N   UNL     1       3.932  48.109  53.614  1.00  0.00    -0.123 NA
ATOM     22  N   UNL     1       5.091  46.255  53.733  1.00  0.00    -0.299 N 
ATOM     23  N   UNL     1       5.218  48.372  53.195  1.00  0.00    -0.129 NA
ATOM     24  C   UNL     1       5.918  47.253  53.266  1.00  0.00     0.167 A 
BRANCH  22  25
ATOM     25  C   UNL     1       5.517  44.888  54.121  1.00  0.00     0.091 C 
ATOM     26  C   UNL     1       5.107  44.245  55.428  1.00  0.00     0.028 C 
ATOM     27  C   UNL     1       6.541  44.598  55.193  1.00  0.00     0.028 C 
ENDBRANCH  22  25
BRANCH  24  28
ATOM     28  C   UNL     1       7.327  47.111  52.947  1.00  0.00     0.055 A 
ATOM     29  C   UNL     1       7.722  46.687  51.672  1.00  0.00     0.015 A 
ATOM     30  C   UNL     1       8.307  47.360  53.910  1.00  0.00     0.134 A 
ATOM     31  C   UNL     1       9.078  46.540  51.368  1.00  0.00     0.001 A 
ATOM     32  C   UNL     1       9.660  47.217  53.612  1.00  0.00     0.040 A 
ATOM     33  C   UNL     1      10.046  46.808  52.336  1.00  0.00     0.003 A 
ATOM     34  F   UNL     1       7.959  47.758  55.144  1.00  0.00    -0.206 F 
ENDBRANCH  24  28
ENDBRANCH  19  20
ENDBRANCH   1  19
TORSDOF 8
ENDMDL
MODEL 4
REMARK VINA RESULT:    -8.836      2.879      6.069
REMARK INTER + INTRA:         -13.720
REMARK INTER:                 -13.535
REMARK INTRA:                  -0.185
REMARK UNBOUND:                -1.010
REMARK SMILES Nc1nc(CSc2nnc(-c3ccccc3F)n2C2CC2)nc(Nc2ccccc2)n1
REMARK SMILES IDX 5 1 4 2 2 3 3 4 31 5 23 6 22 7 1 8 24 11 25 13 26 14 30 15
REMARK SMILES IDX 27 16 29 17 28 18 6 19 7 20 8 21 18 22 9 23 10 24 19 25
REMARK SMILES IDX 20 26 21 27 11 28 12 29 16 30 13 31 15 32 14 33 17 34
REMARK H PARENT 1 9 1 10 24 12
ROOT
ATOM      1  C   UNL     1       2.377  43.473  52.831  1.00  0.00     0.155 C 
ENDROOT
BRANCH   1   2
ATOM      2  C   UNL     1       1.361  43.987  53.823  1.00  0.00     0.146 A 
ATOM      3  C   UNL     1      -0.763  44.124  54.521  1.00  0.00     0.225 A 
ATOM      4  N   UNL     1       0.077  43.738  53.580  1.00  0.00    -0.197 NA
ATOM      5  N   UNL     1      -0.414  44.710  55.654  1.00  0.00    -0.177 NA
ATOM      6  C   UNL     1       0.887  44.935  55.818  1.00  0.00     0.232 A 
ATOM      7  N   UNL     1       1.810  44.583  54.928  1.00  0.00    -0.197 NA
BRANCH   3   8
ATOM      8  N   UNL     1      -2.099  43.836  54.326  1.00  0.00    -0.368 N 
ATOM      9  H   UNL     1      -2.294  42.898  54.658  1.00  0.00     0.159 HD
ATOM     10  H   UNL     1      -2.679  44.573  54.697  1.00  0.00     0.159 HD
ENDBRANCH   3   8
BRANCH   6  11
ATOM     11  N   UNL     1       1.227  45.555  57.017  1.00  0.00    -0.324 N 
ATOM     12  H   UNL     1       2.167  45.288  57.272  1.00  0.00     0.170 HD
BRANCH  11  13
ATOM     13  C   UNL     1       0.582  46.466  57.861  1.00  0.00     0.041 A 
ATOM     14  C   UNL     1       1.151  46.994  59.024  1.00  0.00     0.026 A 
ATOM     15  C   UNL     1      -0.712  46.895  57.519  1.00  0.00     0.026 A 
ATOM     16  C   UNL     1       0.454  47.910  59.822  1.00  0.00     0.002 A 
ATOM     17  C   UNL     1      -1.413  47.809  58.312  1.00  0.00     0.002 A 
ATOM     18  C   UNL     1      -0.828  48.317  59.466  1.00  0.00     0.000 A 
ENDBRANCH  11  13
ENDBRANCH   6  11
ENDBRANCH   1   2
BRANCH   1  19
ATOM     19  S   UNL     1       2.541  44.568  51.378  1.00  0.00    -0.078 SA
BRANCH  19  20
ATOM     20  C   UNL     1       3.727  45.664  51.992  1.00  0.00     0.192 A 
ATOM     21  N   UNL     1       3.473  46.826  52.550  1.00  0.00    -0.123 NA
ATOM     22  N   UNL     1       5.078  45.464  51.947  1.00  0.00    -0.299 N 
ATOM     23  N   UNL     1       4.679  47.395  52.895  1.00  0.00    -0.129 NA
ATOM     24  C   UNL     1       5.648  46.572  52.531  1.00  0.00     0.167 A 
BRANCH  22  25
ATOM     25  C   UNL     1       5.795  44.226  51.554  1.00  0.00     0.091 C 
ATOM     26  C   UNL     1       6.477  44.069  50.212  1.00  0.00     0.028 C 
ATOM     27  C   UNL     1       5.276  43.240  50.533  1.00  0.00     0.028 C 
ENDBRANCH  22  25
BRANCH  24  28
ATOM     28  C   UNL     1       7.068  46.786  52.747  1.00  0.00     0.055 A 
ATOM     29  C   UNL     1       7.921  47.011  51.660  1.00  0.00     0.015 A 
ATOM     30  C   UNL     1       7.610  46.736  54.033  1.00  0.00     0.134 A 
ATOM     31  C   UNL     1       9.290  47.206  51.867  1.00  0.00     0.001 A 
ATOM     32  C   UNL     1       8.973  46.931  54.246  1.00  0.00     0.040 A 
ATOM     33  C   UNL     1       9.814  47.169  53.159  1.00  0.00     0.003 A 
ATOM     34  F   UNL     1       6.820  46.511  55.094  1.00  0.00    -0.206 F 
ENDBRANCH  24  28
ENDBRANCH  19  20
ENDBRANCH   1  19
TORSDOF 8
ENDMDL
MODEL 5
REMARK VINA RESULT:    -8.695      3.007      6.976
REMARK INTER + INTRA:         -13.517
REMARK INTER:                 -13.263
REMARK INTRA:                  -0.254
REMARK UNBOUND:                -1.010
REMARK SMILES Nc1nc(CSc2nnc(-c3ccccc3F)n2C2CC2)nc(Nc2ccccc2)n1
REMARK SMILES IDX 5 1 4 2 2 3 3 4 31 5 23 6 22 7 1 8 24 11 25 13 26 14 30 15
REMARK SMILES IDX 27 16 29 17 28 18 6 19 7 20 8 21 18 22 9 23 10 24 19 25
REMARK SMILES IDX 20 26 21 27 11 28 12 29 16 30 13 31 15 32 14 33 17 34
REMARK H PARENT 1 9 1 10 24 12
ROOT
ATOM      1  C   UNL     1       3.378  42.580  52.081  1.00  0.00     0.155 C 
ENDROOT
BRANCH   1   2
ATOM      2  C   UNL     1       4.618  43.028  51.345  1.00  0.00     0.146 A 
ATOM      3  C   UNL     1       6.111  42.719  49.704  1.00  0.00     0.225 A 
ATOM      4  N   UNL     1       5.084  42.240  50.380  1.00  0.00    -0.197 NA
ATOM      5  N   UNL     1       6.673  43.897  49.914  1.00  0.00    -0.177 NA
ATOM      6  C   UNL     1       6.157  44.621  50.904  1.00  0.00     0.232 A 
ATOM      7  N   UNL     1       5.123  44.226  51.640  1.00  0.00    -0.197 NA
BRANCH   3   8
ATOM      8  N   UNL     1       6.589  41.949  48.662  1.00  0.00    -0.368 N 
ATOM      9  H   UNL     1       6.972  41.086  49.028  1.00  0.00     0.159 HD
ATOM     10  H   UNL     1       5.892  41.859  47.938  1.00  0.00     0.159 HD
ENDBRANCH   3   8
BRANCH   6  11
ATOM     11  N   UNL     1       6.769  45.856  51.105  1.00  0.00    -0.324 N 
ATOM     12  H   UNL     1       6.348  46.536  50.488  1.00  0.00     0.170 HD
BRANCH  11  13
ATOM     13  C   UNL     1       7.754  46.325  51.980  1.00  0.00     0.041 A 
ATOM     14  C   UNL     1       7.485  47.003  53.173  1.00  0.00     0.026 A 
ATOM     15  C   UNL     1       9.102  46.093  51.655  1.00  0.00     0.026 A 
ATOM     16  C   UNL     1       8.518  47.440  54.009  1.00  0.00     0.002 A 
ATOM     17  C   UNL     1      10.139  46.528  52.487  1.00  0.00     0.002 A 
ATOM     18  C   UNL     1       9.846  47.203  53.667  1.00  0.00     0.000 A 
ENDBRANCH  11  13
ENDBRANCH   6  11
ENDBRANCH   1   2
BRANCH   1  19
ATOM     19  S   UNL     1       1.846  43.015  51.185  1.00  0.00    -0.078 SA
BRANCH  19  20
ATOM     20  C   UNL     1       0.761  43.108  52.527  1.00  0.00     0.192 A 
ATOM     21  N   UNL     1       0.122  42.093  53.060  1.00  0.00    -0.123 NA
ATOM     22  N   UNL     1       0.417  44.259  53.178  1.00  0.00    -0.299 N 
ATOM     23  N   UNL     1      -0.646  42.581  54.094  1.00  0.00    -0.129 NA
ATOM     24  C   UNL     1      -0.468  43.889  54.166  1.00  0.00     0.167 A 
BRANCH  22  25
ATOM     25  C   UNL     1       1.019  45.605  53.015  1.00  0.00     0.091 C 
ATOM     26  C   UNL     1       2.096  45.900  51.994  1.00  0.00     0.028 C 
ATOM     27  C   UNL     1       2.423  45.958  53.452  1.00  0.00     0.028 C 
ENDBRANCH  22  25
BRANCH  24  28
ATOM     28  C   UNL     1      -1.072  44.775  55.144  1.00  0.00     0.055 A 
ATOM     29  C   UNL     1      -2.390  45.215  54.978  1.00  0.00     0.015 A 
ATOM     30  C   UNL     1      -0.341  45.229  56.244  1.00  0.00     0.134 A 
ATOM     31  C   UNL     1      -2.968  46.077  55.916  1.00  0.00     0.001 A 
ATOM     32  C   UNL     1      -0.911  46.087  57.182  1.00  0.00     0.040 A 
ATOM     33  C   UNL     1      -2.230  46.509  57.017  1.00  0.00     0.003 A 
ATOM     34  F   UNL     1       0.929  44.833  56.425  1.00  0.00    -0.206 F 
ENDBRANCH  24  28
ENDBRANCH  19  20
ENDBRANCH   1  19
TORSDOF 8
ENDMDL
MODEL 6
REMARK VINA RESULT:    -8.510      2.669      6.553
REMARK INTER + INTRA:         -13.251
REMARK INTER:                 -12.492
REMARK INTRA:                  -0.759
REMARK UNBOUND:                -1.010
REMARK SMILES Nc1nc(CSc2nnc(-c3ccccc3F)n2C2CC2)nc(Nc2ccccc2)n1
REMARK SMILES IDX 5 1 4 2 2 3 3 4 31 5 23 6 22 7 1 8 24 11 25 13 26 14 30 15
REMARK SMILES IDX 27 16 29 17 28 18 6 19 7 20 8 21 18 22 9 23 10 24 19 25
REMARK SMILES IDX 20 26 21 27 11 28 12 29 16 30 13 31 15 32 14 33 17 34
REMARK H PARENT 1 9 1 10 24 12
ROOT
ATOM      1  C   UNL     1       5.124  47.279  54.551  1.00  0.00     0.155 C 
ENDROOT
BRANCH   1   2
ATOM      2  C   UNL     1       6.482  47.180  53.899  1.00  0.00     0.146 A 
ATOM      3  C   UNL     1       8.714  47.291  54.050  1.00  0.00     0.225 A 
ATOM      4  N   UNL     1       7.547  47.484  54.635  1.00  0.00    -0.197 NA
ATOM      5  N   UNL     1       8.879  46.818  52.827  1.00  0.00    -0.177 NA
ATOM      6  C   UNL     1       7.765  46.548  52.151  1.00  0.00     0.232 A 
ATOM      7  N   UNL     1       6.545  46.708  52.653  1.00  0.00    -0.197 NA
BRANCH   3   8
ATOM      8  N   UNL     1       9.842  47.548  54.803  1.00  0.00    -0.368 N 
ATOM      9  H   UNL     1      10.183  48.479  54.593  1.00  0.00     0.159 HD
ATOM     10  H   UNL     1       9.674  47.341  55.777  1.00  0.00     0.159 HD
ENDBRANCH   3   8
BRANCH   6  11
ATOM     11  N   UNL     1       7.968  46.054  50.864  1.00  0.00    -0.324 N 
ATOM     12  H   UNL     1       8.607  46.663  50.374  1.00  0.00     0.170 HD
BRANCH  11  13
ATOM     13  C   UNL     1       7.531  44.917  50.176  1.00  0.00     0.041 A 
ATOM     14  C   UNL     1       8.295  44.235  49.225  1.00  0.00     0.026 A 
ATOM     15  C   UNL     1       6.250  44.413  50.463  1.00  0.00     0.026 A 
ATOM     16  C   UNL     1       7.801  43.096  48.577  1.00  0.00     0.002 A 
ATOM     17  C   UNL     1       5.751  43.276  49.819  1.00  0.00     0.002 A 
ATOM     18  C   UNL     1       6.529  42.617  48.873  1.00  0.00     0.000 A 
ENDBRANCH  11  13
ENDBRANCH   6  11
ENDBRANCH   1   2
BRANCH   1  19
ATOM     19  S   UNL     1       4.714  45.789  55.526  1.00  0.00    -0.078 SA
BRANCH  19  20
ATOM     20  C   UNL     1       3.876  44.889  54.312  1.00  0.00     0.192 A 
ATOM     21  N   UNL     1       4.439  44.100  53.426  1.00  0.00    -0.123 NA
ATOM     22  N   UNL     1       2.525  44.911  54.112  1.00  0.00    -0.299 N 
ATOM     23  N   UNL     1       3.438  43.579  52.636  1.00  0.00    -0.129 NA
ATOM     24  C   UNL     1       2.282  44.068  53.051  1.00  0.00     0.167 A 
BRANCH  22  25
ATOM     25  C   UNL     1       1.493  45.533  54.977  1.00  0.00     0.091 C 
ATOM     26  C   UNL     1       1.156  45.006  56.356  1.00  0.00     0.028 C 
ATOM     27  C   UNL     1       0.144  44.913  55.259  1.00  0.00     0.028 C 
ENDBRANCH  22  25
BRANCH  24  28
ATOM     28  C   UNL     1       0.977  43.741  52.505  1.00  0.00     0.055 A 
ATOM     29  C   UNL     1       0.368  44.592  51.575  1.00  0.00     0.015 A 
ATOM     30  C   UNL     1       0.296  42.595  52.921  1.00  0.00     0.134 A 
ATOM     31  C   UNL     1      -0.894  44.282  51.057  1.00  0.00     0.001 A 
ATOM     32  C   UNL     1      -0.961  42.280  52.407  1.00  0.00     0.040 A 
ATOM     33  C   UNL     1      -1.555  43.125  51.471  1.00  0.00     0.003 A 
ATOM     34  F   UNL     1       0.850  41.765  53.818  1.00  0.00    -0.206 F 
ENDBRANCH  24  28
ENDBRANCH  19  20
ENDBRANCH   1  19
TORSDOF 8
ENDMDL
MODEL 7
REMARK VINA RESULT:    -8.465      2.975      6.196
REMARK INTER + INTRA:         -13.187
REMARK INTER:                 -12.845
REMARK INTRA:                  -0.342
REMARK UNBOUND:                -1.010
REMARK SMILES Nc1nc(CSc2nnc(-c3ccccc3F)n2C2CC2)nc(Nc2ccccc2)n1
REMARK SMILES IDX 5 1 4 2 2 3 3 4 31 5 23 6 22 7 1 8 24 11 25 13 26 14 30 15
REMARK SMILES IDX 27 16 29 17 28 18 6 19 7 20 8 21 18 22 9 23 10 24 19 25
REMARK SMILES IDX 20 26 21 27 11 28 12 29 16 30 13 31 15 32 14 33 17 34
REMARK H PARENT 1 9 1 10 24 12
ROOT
ATOM      1  C   UNL     1       2.433  43.479  52.684  1.00  0.00     0.155 C 
ENDROOT
BRANCH   1   2
ATOM      2  C   UNL     1       1.738  44.032  53.905  1.00  0.00     0.146 A 
ATOM      3  C   UNL     1       1.790  45.292  55.756  1.00  0.00     0.225 A 
ATOM      4  N   UNL     1       2.462  44.753  54.757  1.00  0.00    -0.197 NA
ATOM      5  N   UNL     1       0.487  45.173  55.945  1.00  0.00    -0.177 NA
ATOM      6  C   UNL     1      -0.165  44.428  55.057  1.00  0.00     0.232 A 
ATOM      7  N   UNL     1       0.422  43.844  54.017  1.00  0.00    -0.197 NA
BRANCH   3   8
ATOM      8  N   UNL     1       2.502  46.089  56.631  1.00  0.00    -0.368 N 
ATOM      9  H   UNL     1       2.041  46.093  57.534  1.00  0.00     0.159 HD
ATOM     10  H   UNL     1       3.479  45.837  56.627  1.00  0.00     0.159 HD
ENDBRANCH   3   8
BRANCH   6  11
ATOM     11  N   UNL     1      -1.535  44.317  55.280  1.00  0.00    -0.324 N 
ATOM     12  H   UNL     1      -1.998  44.129  54.402  1.00  0.00     0.170 HD
BRANCH  11  13
ATOM     13  C   UNL     1      -2.344  44.356  56.421  1.00  0.00     0.041 A 
ATOM     14  C   UNL     1      -2.783  43.221  57.109  1.00  0.00     0.026 A 
ATOM     15  C   UNL     1      -2.732  45.610  56.923  1.00  0.00     0.026 A 
ATOM     16  C   UNL     1      -3.585  43.329  58.252  1.00  0.00     0.002 A 
ATOM     17  C   UNL     1      -3.533  45.724  58.063  1.00  0.00     0.002 A 
ATOM     18  C   UNL     1      -3.961  44.581  58.729  1.00  0.00     0.000 A 
ENDBRANCH  11  13
ENDBRANCH   6  11
ENDBRANCH   1   2
BRANCH   1  19
ATOM     19  S   UNL     1       2.476  44.681  51.309  1.00  0.00    -0.078 SA
BRANCH  19  20
ATOM     20  C   UNL     1       3.671  45.764  51.929  1.00  0.00     0.192 A 
ATOM     21  N   UNL     1       3.429  46.937  52.468  1.00  0.00    -0.123 NA
ATOM     22  N   UNL     1       5.019  45.540  51.909  1.00  0.00    -0.299 N 
ATOM     23  N   UNL     1       4.639  47.489  52.825  1.00  0.00    -0.129 NA
ATOM     24  C   UNL     1       5.599  46.646  52.487  1.00  0.00     0.167 A 
BRANCH  22  25
ATOM     25  C   UNL     1       5.721  44.285  51.543  1.00  0.00     0.091 C 
ATOM     26  C   UNL     1       6.473  44.120  50.240  1.00  0.00     0.028 C 
ATOM     27  C   UNL     1       5.231  43.324  50.483  1.00  0.00     0.028 C 
ENDBRANCH  22  25
BRANCH  24  28
ATOM     28  C   UNL     1       7.018  46.837  52.724  1.00  0.00     0.055 A 
ATOM     29  C   UNL     1       7.896  47.013  51.647  1.00  0.00     0.015 A 
ATOM     30  C   UNL     1       7.536  46.815  54.021  1.00  0.00     0.134 A 
ATOM     31  C   UNL     1       9.264  47.187  51.875  1.00  0.00     0.001 A 
ATOM     32  C   UNL     1       8.899  46.989  54.254  1.00  0.00     0.040 A 
ATOM     33  C   UNL     1       9.764  47.178  53.177  1.00  0.00     0.003 A 
ATOM     34  F   UNL     1       6.722  46.638  55.073  1.00  0.00    -0.206 F 
ENDBRANCH  24  28
ENDBRANCH  19  20
ENDBRANCH   1  19
TORSDOF 8
ENDMDL
MODEL 8
REMARK VINA RESULT:    -8.438      3.408      7.255
REMARK INTER + INTRA:         -13.147
REMARK INTER:                 -12.466
REMARK INTRA:                  -0.681
REMARK UNBOUND:                -1.010
REMARK SMILES Nc1nc(CSc2nnc(-c3ccccc3F)n2C2CC2)nc(Nc2ccccc2)n1
REMARK SMILES IDX 5 1 4 2 2 3 3 4 31 5 23 6 22 7 1 8 24 11 25 13 26 14 30 15
REMARK SMILES IDX 27 16 29 17 28 18 6 19 7 20 8 21 18 22 9 23 10 24 19 25
REMARK SMILES IDX 20 26 21 27 11 28 12 29 16 30 13 31 15 32 14 33 17 34
REMARK H PARENT 1 9 1 10 24 12
ROOT
ATOM      1  C   UNL     1       2.979  43.007  52.022  1.00  0.00     0.155 C 
ENDROOT
BRANCH   1   2
ATOM      2  C   UNL     1       4.335  43.216  51.393  1.00  0.00     0.146 A 
ATOM      3  C   UNL     1       5.972  42.500  50.041  1.00  0.00     0.225 A 
ATOM      4  N   UNL     1       4.830  42.233  50.645  1.00  0.00    -0.197 NA
ATOM      5  N   UNL     1       6.621  43.649  50.122  1.00  0.00    -0.177 NA
ATOM      6  C   UNL     1       6.068  44.578  50.898  1.00  0.00     0.232 A 
ATOM      7  N   UNL     1       4.920  44.405  51.546  1.00  0.00    -0.197 NA
BRANCH   3   8
ATOM      8  N   UNL     1       6.489  41.521  49.217  1.00  0.00    -0.368 N 
ATOM      9  H   UNL     1       5.972  40.660  49.351  1.00  0.00     0.159 HD
ATOM     10  H   UNL     1       6.562  41.857  48.268  1.00  0.00     0.159 HD
ENDBRANCH   3   8
BRANCH   6  11
ATOM     11  N   UNL     1       6.773  45.777  50.967  1.00  0.00    -0.324 N 
ATOM     12  H   UNL     1       6.427  46.404  50.255  1.00  0.00     0.170 HD
BRANCH  11  13
ATOM     13  C   UNL     1       7.768  46.276  51.815  1.00  0.00     0.041 A 
ATOM     14  C   UNL     1       7.512  47.014  52.975  1.00  0.00     0.026 A 
ATOM     15  C   UNL     1       9.111  46.012  51.497  1.00  0.00     0.026 A 
ATOM     16  C   UNL     1       8.554  47.478  53.786  1.00  0.00     0.002 A 
ATOM     17  C   UNL     1      10.157  46.473  52.303  1.00  0.00     0.002 A 
ATOM     18  C   UNL     1       9.877  47.208  53.450  1.00  0.00     0.000 A 
ENDBRANCH  11  13
ENDBRANCH   6  11
ENDBRANCH   1   2
BRANCH   1  19
ATOM     19  S   UNL     1       1.896  44.466  51.834  1.00  0.00    -0.078 SA
BRANCH  19  20
ATOM     20  C   UNL     1       1.423  44.672  53.483  1.00  0.00     0.192 A 
ATOM     21  N   UNL     1       2.234  44.655  54.515  1.00  0.00    -0.123 NA
ATOM     22  N   UNL     1       0.139  44.852  53.913  1.00  0.00    -0.299 N 
ATOM     23  N   UNL     1       1.472  44.844  55.647  1.00  0.00    -0.129 NA
ATOM     24  C   UNL     1       0.207  44.963  55.284  1.00  0.00     0.167 A 
BRANCH  22  25
ATOM     25  C   UNL     1      -1.067  45.096  53.084  1.00  0.00     0.091 C 
ATOM     26  C   UNL     1      -2.084  44.016  52.783  1.00  0.00     0.028 C 
ATOM     27  C   UNL     1      -1.243  44.569  51.678  1.00  0.00     0.028 C 
ENDBRANCH  22  25
BRANCH  24  28
ATOM     28  C   UNL     1      -0.912  45.208  56.175  1.00  0.00     0.055 A 
ATOM     29  C   UNL     1      -1.064  46.457  56.789  1.00  0.00     0.015 A 
ATOM     30  C   UNL     1      -1.833  44.198  56.461  1.00  0.00     0.134 A 
ATOM     31  C   UNL     1      -2.137  46.690  57.655  1.00  0.00     0.001 A 
ATOM     32  C   UNL     1      -2.904  44.425  57.322  1.00  0.00     0.040 A 
ATOM     33  C   UNL     1      -3.057  45.676  57.919  1.00  0.00     0.003 A 
ATOM     34  F   UNL     1      -1.708  42.987  55.896  1.00  0.00    -0.206 F 
ENDBRANCH  24  28
ENDBRANCH  19  20
ENDBRANCH   1  19
TORSDOF 8
ENDMDL
MODEL 9
REMARK VINA RESULT:    -8.330      4.557      8.795
REMARK INTER + INTRA:         -12.992
REMARK INTER:                 -12.774
REMARK INTRA:                  -0.218
REMARK UNBOUND:                -1.010
REMARK SMILES Nc1nc(CSc2nnc(-c3ccccc3F)n2C2CC2)nc(Nc2ccccc2)n1
REMARK SMILES IDX 5 1 4 2 2 3 3 4 31 5 23 6 22 7 1 8 24 11 25 13 26 14 30 15
REMARK SMILES IDX 27 16 29 17 28 18 6 19 7 20 8 21 18 22 9 23 10 24 19 25
REMARK SMILES IDX 20 26 21 27 11 28 12 29 16 30 13 31 15 32 14 33 17 34
REMARK H PARENT 1 9 1 10 24 12
ROOT
ATOM      1  C   UNL     1       4.810  41.486  50.647  1.00  0.00     0.155 C 
ENDROOT
BRANCH   1   2
ATOM      2  C   UNL     1       4.669  42.811  51.357  1.00  0.00     0.146 A 
ATOM      3  C   UNL     1       3.696  44.066  52.937  1.00  0.00     0.225 A 
ATOM      4  N   UNL     1       3.718  42.922  52.280  1.00  0.00    -0.197 NA
ATOM      5  N   UNL     1       4.541  45.064  52.748  1.00  0.00    -0.177 NA
ATOM      6  C   UNL     1       5.457  44.881  51.800  1.00  0.00     0.232 A 
ATOM      7  N   UNL     1       5.561  43.766  51.086  1.00  0.00    -0.197 NA
BRANCH   3   8
ATOM      8  N   UNL     1       2.753  44.196  53.937  1.00  0.00    -0.368 N 
ATOM      9  H   UNL     1       2.393  45.143  53.940  1.00  0.00     0.159 HD
ATOM     10  H   UNL     1       2.069  43.456  53.879  1.00  0.00     0.159 HD
ENDBRANCH   3   8
BRANCH   6  11
ATOM     11  N   UNL     1       6.333  45.949  51.620  1.00  0.00    -0.324 N 
ATOM     12  H   UNL     1       5.974  46.551  50.894  1.00  0.00     0.170 HD
BRANCH  11  13
ATOM     13  C   UNL     1       7.515  46.358  52.248  1.00  0.00     0.041 A 
ATOM     14  C   UNL     1       7.588  46.788  53.577  1.00  0.00     0.026 A 
ATOM     15  C   UNL     1       8.711  46.324  51.510  1.00  0.00     0.026 A 
ATOM     16  C   UNL     1       8.805  47.177  54.148  1.00  0.00     0.002 A 
ATOM     17  C   UNL     1       9.930  46.711  52.076  1.00  0.00     0.002 A 
ATOM     18  C   UNL     1       9.976  47.139  53.398  1.00  0.00     0.000 A 
ENDBRANCH  11  13
ENDBRANCH   6  11
ENDBRANCH   1   2
BRANCH   1  19
ATOM     19  S   UNL     1       5.615  41.657  49.016  1.00  0.00    -0.078 SA
BRANCH  19  20
ATOM     20  C   UNL     1       4.457  40.816  48.048  1.00  0.00     0.192 A 
ATOM     21  N   UNL     1       3.419  40.155  48.507  1.00  0.00    -0.123 NA
ATOM     22  N   UNL     1       4.499  40.715  46.687  1.00  0.00    -0.299 N 
ATOM     23  N   UNL     1       2.753  39.622  47.425  1.00  0.00    -0.129 NA
ATOM     24  C   UNL     1       3.405  39.960  46.326  1.00  0.00     0.167 A 
BRANCH  22  25
ATOM     25  C   UNL     1       5.398  41.437  45.754  1.00  0.00     0.091 C 
ATOM     26  C   UNL     1       4.914  42.546  44.845  1.00  0.00     0.028 C 
ATOM     27  C   UNL     1       5.378  41.254  44.253  1.00  0.00     0.028 C 
ENDBRANCH  22  25
BRANCH  24  28
ATOM     28  C   UNL     1       3.011  39.626  44.969  1.00  0.00     0.055 A 
ATOM     29  C   UNL     1       3.605  38.543  44.309  1.00  0.00     0.015 A 
ATOM     30  C   UNL     1       2.063  40.394  44.290  1.00  0.00     0.134 A 
ATOM     31  C   UNL     1       3.233  38.228  42.998  1.00  0.00     0.001 A 
ATOM     32  C   UNL     1       1.687  40.084  42.985  1.00  0.00     0.040 A 
ATOM     33  C   UNL     1       2.273  38.996  42.339  1.00  0.00     0.003 A 
ATOM     34  F   UNL     1       1.484  41.444  44.893  1.00  0.00    -0.206 F 
ENDBRANCH  24  28
ENDBRANCH  19  20
ENDBRANCH   1  19
TORSDOF 8
ENDMDL
MODEL 10
REMARK VINA RESULT:    -8.324      2.630      5.382
REMARK INTER + INTRA:         -12.984
REMARK INTER:                 -12.324
REMARK INTRA:                  -0.660
REMARK UNBOUND:                -1.010
REMARK SMILES Nc1nc(CSc2nnc(-c3ccccc3F)n2C2CC2)nc(Nc2ccccc2)n1
REMARK SMILES IDX 5 1 4 2 2 3 3 4 31 5 23 6 22 7 1 8 24 11 25 13 26 14 30 15
REMARK SMILES IDX 27 16 29 17 28 18 6 19 7 20 8 21 18 22 9 23 10 24 19 25
REMARK SMILES IDX 20 26 21 27 11 28 12 29 16 30 13 31 15 32 14 33 17 34
REMARK H PARENT 1 9 1 10 24 12
ROOT
ATOM      1  C   UNL     1       2.420  43.447  52.735  1.00  0.00     0.155 C 
ENDROOT
BRANCH   1   2
ATOM      2  C   UNL     1       1.314  43.947  53.633  1.00  0.00     0.146 A 
ATOM      3  C   UNL     1       0.653  44.813  55.590  1.00  0.00     0.225 A 
ATOM      4  N   UNL     1       1.634  44.295  54.876  1.00  0.00    -0.197 NA
ATOM      5  N   UNL     1      -0.579  45.011  55.154  1.00  0.00    -0.177 NA
ATOM      6  C   UNL     1      -0.823  44.627  53.903  1.00  0.00     0.232 A 
ATOM      7  N   UNL     1       0.098  44.096  53.105  1.00  0.00    -0.197 NA
BRANCH   3   8
ATOM      8  N   UNL     1       0.962  45.232  56.869  1.00  0.00    -0.368 N 
ATOM      9  H   UNL     1       1.380  44.465  57.383  1.00  0.00     0.159 HD
ATOM     10  H   UNL     1       1.486  46.094  56.843  1.00  0.00     0.159 HD
ENDBRANCH   3   8
BRANCH   6  11
ATOM     11  N   UNL     1      -2.129  44.845  53.469  1.00  0.00    -0.324 N 
ATOM     12  H   UNL     1      -2.765  44.355  54.081  1.00  0.00     0.170 HD
BRANCH  11  13
ATOM     13  C   UNL     1      -2.702  45.609  52.447  1.00  0.00     0.041 A 
ATOM     14  C   UNL     1      -3.352  46.830  52.652  1.00  0.00     0.026 A 
ATOM     15  C   UNL     1      -2.611  45.136  51.127  1.00  0.00     0.026 A 
ATOM     16  C   UNL     1      -3.899  47.550  51.583  1.00  0.00     0.002 A 
ATOM     17  C   UNL     1      -3.155  45.851  50.055  1.00  0.00     0.002 A 
ATOM     18  C   UNL     1      -3.801  47.061  50.285  1.00  0.00     0.000 A 
ENDBRANCH  11  13
ENDBRANCH   6  11
ENDBRANCH   1   2
BRANCH   1  19
ATOM     19  S   UNL     1       2.651  44.510  51.266  1.00  0.00    -0.078 SA
BRANCH  19  20
ATOM     20  C   UNL     1       3.824  45.607  51.904  1.00  0.00     0.192 A 
ATOM     21  N   UNL     1       3.556  46.761  52.471  1.00  0.00    -0.123 NA
ATOM     22  N   UNL     1       5.176  45.417  51.869  1.00  0.00    -0.299 N 
ATOM     23  N   UNL     1       4.755  47.335  52.833  1.00  0.00    -0.129 NA
ATOM     24  C   UNL     1       5.733  46.523  52.469  1.00  0.00     0.167 A 
BRANCH  22  25
ATOM     25  C   UNL     1       5.906  44.189  51.469  1.00  0.00     0.091 C 
ATOM     26  C   UNL     1       6.550  44.028  50.108  1.00  0.00     0.028 C 
ATOM     27  C   UNL     1       5.376  43.179  50.477  1.00  0.00     0.028 C 
ENDBRANCH  22  25
BRANCH  24  28
ATOM     28  C   UNL     1       7.149  46.745  52.700  1.00  0.00     0.055 A 
ATOM     29  C   UNL     1       8.020  46.932  51.620  1.00  0.00     0.015 A 
ATOM     30  C   UNL     1       7.671  46.741  53.996  1.00  0.00     0.134 A 
ATOM     31  C   UNL     1       9.385  47.135  51.843  1.00  0.00     0.001 A 
ATOM     32  C   UNL     1       9.030  46.943  54.224  1.00  0.00     0.040 A 
ATOM     33  C   UNL     1       9.888  47.143  53.144  1.00  0.00     0.003 A 
ATOM     34  F   UNL     1       6.863  46.553  55.052  1.00  0.00    -0.206 F 
ENDBRANCH  24  28
ENDBRANCH  19  20
ENDBRANCH   1  19
TORSDOF 8
ENDMDL
