MODEL 1
REMARK VINA RESULT:    -9.134      0.000      0.000
REMARK INTER + INTRA:         -13.981
REMARK INTER:                 -12.605
REMARK INTRA:                  -1.376
REMARK UNBOUND:                -1.376
REMARK SMILES Cc1ccc(Nc2nc(N)nc(COc3ccccc3C(N)=O)n2)cc1
REMARK SMILES IDX 13 1 12 2 7 3 8 4 24 5 9 6 11 7 6 8 5 10 2 11 3 12 26 13
REMARK SMILES IDX 4 14 25 15 1 16 10 17 14 20 15 21 16 22 20 23 17 24 19 25
REMARK SMILES IDX 18 26 21 27 22 28 23 29
REMARK H PARENT 6 9 10 18 10 19 22 30 22 31
ROOT
ATOM      1  C   UNL     1       2.711  43.110  51.436  1.00  0.00     0.307 C 
ENDROOT
BRANCH   1   2
ATOM      2  C   UNL     1       4.149  43.224  50.988  1.00  0.00     0.173 A 
ATOM      3  C   UNL     1       6.027  44.458  50.761  1.00  0.00     0.232 A 
ATOM      4  N   UNL     1       6.642  43.460  50.133  1.00  0.00    -0.177 NA
ATOM      5  N   UNL     1       4.779  44.379  51.210  1.00  0.00    -0.194 NA
ATOM      6  C   UNL     1       5.931  42.359  49.952  1.00  0.00     0.225 A 
ATOM      7  N   UNL     1       4.691  42.175  50.368  1.00  0.00    -0.194 NA
BRANCH   3   8
ATOM      8  N   UNL     1       6.791  45.612  50.917  1.00  0.00    -0.324 N 
ATOM      9  H   UNL     1       6.588  46.248  50.160  1.00  0.00     0.170 HD
BRANCH   8  10
ATOM     10  C   UNL     1       7.673  46.074  51.901  1.00  0.00     0.041 A 
ATOM     11  C   UNL     1       9.353  47.010  53.990  1.00  0.00    -0.051 A 
ATOM     12  C   UNL     1       9.863  46.780  52.710  1.00  0.00     0.005 A 
ATOM     13  C   UNL     1       7.993  46.792  54.218  1.00  0.00     0.005 A 
ATOM     14  C   UNL     1       9.032  46.315  51.683  1.00  0.00     0.026 A 
ATOM     15  C   UNL     1       7.169  46.328  53.186  1.00  0.00     0.026 A 
ATOM     16  C   UNL     1      10.238  47.536  55.081  1.00  0.00     0.044 C 
ENDBRANCH   8  10
ENDBRANCH   3   8
BRANCH   6  17
ATOM     17  N   UNL     1       6.545  41.304  49.309  1.00  0.00    -0.368 N 
ATOM     18  H   UNL     1       5.870  40.750  48.802  1.00  0.00     0.159 HD
ATOM     19  H   UNL     1       7.361  41.617  48.802  1.00  0.00     0.159 HD
ENDBRANCH   6  17
ENDBRANCH   1   2
BRANCH   1  20
ATOM     20  O   UNL     1       2.667  42.670  52.808  1.00  0.00    -0.485 OA
BRANCH  20  21
ATOM     21  C   UNL     1       1.676  43.303  53.513  1.00  0.00     0.132 A 
ATOM     22  C   UNL     1       0.386  42.756  53.489  1.00  0.00     0.047 A 
ATOM     23  C   UNL     1       1.922  44.506  54.190  1.00  0.00     0.081 A 
ATOM     24  C   UNL     1      -0.654  43.375  54.184  1.00  0.00     0.004 A 
ATOM     25  C   UNL     1       0.866  45.114  54.890  1.00  0.00     0.018 A 
ATOM     26  C   UNL     1      -0.412  44.549  54.890  1.00  0.00     0.001 A 
BRANCH  23  27
ATOM     27  C   UNL     1       3.245  45.197  54.231  1.00  0.00     0.252 C 
ATOM     28  N   UNL     1       4.352  44.456  54.528  1.00  0.00    -0.365 N 
ATOM     29  O   UNL     1       3.354  46.393  53.981  1.00  0.00    -0.269 OA
ATOM     30  H   UNL     1       4.309  43.444  54.556  1.00  0.00     0.159 HD
ATOM     31  H   UNL     1       5.251  44.902  54.418  1.00  0.00     0.159 HD
ENDBRANCH  23  27
ENDBRANCH  20  21
ENDBRANCH   1  20
TORSDOF 7
ENDMDL
MODEL 2
REMARK VINA RESULT:    -9.101      1.792      6.692
REMARK INTER + INTRA:         -13.935
REMARK INTER:                 -12.488
REMARK INTRA:                  -1.447
REMARK UNBOUND:                -1.376
REMARK SMILES Cc1ccc(Nc2nc(N)nc(COc3ccccc3C(N)=O)n2)cc1
REMARK SMILES IDX 13 1 12 2 7 3 8 4 24 5 9 6 11 7 6 8 5 10 2 11 3 12 26 13
REMARK SMILES IDX 4 14 25 15 1 16 10 17 14 20 15 21 16 22 20 23 17 24 19 25
REMARK SMILES IDX 18 26 21 27 22 28 23 29
REMARK H PARENT 6 9 10 18 10 19 22 30 22 31
ROOT
ATOM      1  C   UNL     1       7.481  45.062  50.254  1.00  0.00     0.307 C 
ENDROOT
BRANCH   1   2
ATOM      2  C   UNL     1       6.492  43.923  50.179  1.00  0.00     0.173 A 
ATOM      3  C   UNL     1       4.751  42.794  51.069  1.00  0.00     0.232 A 
ATOM      4  N   UNL     1       4.810  41.882  50.102  1.00  0.00    -0.177 NA
ATOM      5  N   UNL     1       5.572  43.835  51.141  1.00  0.00    -0.194 NA
ATOM      6  C   UNL     1       5.762  42.051  49.200  1.00  0.00     0.225 A 
ATOM      7  N   UNL     1       6.621  43.054  49.176  1.00  0.00    -0.194 NA
BRANCH   3   8
ATOM      8  N   UNL     1       3.753  42.579  52.016  1.00  0.00    -0.324 N 
ATOM      9  H   UNL     1       4.092  41.930  52.713  1.00  0.00     0.170 HD
BRANCH   8  10
ATOM     10  C   UNL     1       2.477  43.113  52.231  1.00  0.00     0.041 A 
ATOM     11  C   UNL     1      -0.090  44.283  52.553  1.00  0.00    -0.051 A 
ATOM     12  C   UNL     1       0.341  43.259  53.400  1.00  0.00     0.005 A 
ATOM     13  C   UNL     1       0.776  44.738  51.558  1.00  0.00     0.005 A 
ATOM     14  C   UNL     1       1.606  42.681  53.235  1.00  0.00     0.026 A 
ATOM     15  C   UNL     1       2.039  44.156  51.400  1.00  0.00     0.026 A 
ATOM     16  C   UNL     1      -1.434  44.920  52.751  1.00  0.00     0.044 C 
ENDBRANCH   8  10
ENDBRANCH   3   8
BRANCH   6  17
ATOM     17  N   UNL     1       5.845  41.124  48.181  1.00  0.00    -0.368 N 
ATOM     18  H   UNL     1       6.765  41.127  47.765  1.00  0.00     0.159 HD
ATOM     19  H   UNL     1       5.473  40.232  48.475  1.00  0.00     0.159 HD
ENDBRANCH   6  17
ENDBRANCH   1   2
BRANCH   1  20
ATOM     20  O   UNL     1       6.951  46.104  51.098  1.00  0.00    -0.485 OA
BRANCH  20  21
ATOM     21  C   UNL     1       7.840  46.466  52.077  1.00  0.00     0.132 A 
ATOM     22  C   UNL     1       9.208  46.464  51.771  1.00  0.00     0.047 A 
ATOM     23  C   UNL     1       7.406  46.768  53.376  1.00  0.00     0.081 A 
ATOM     24  C   UNL     1      10.147  46.815  52.742  1.00  0.00     0.004 A 
ATOM     25  C   UNL     1       8.363  47.125  54.341  1.00  0.00     0.018 A 
ATOM     26  C   UNL     1       9.724  47.152  54.024  1.00  0.00     0.001 A 
BRANCH  23  27
ATOM     27  C   UNL     1       5.979  46.746  53.816  1.00  0.00     0.252 C 
ATOM     28  N   UNL     1       5.166  45.767  53.321  1.00  0.00    -0.365 N 
ATOM     29  O   UNL     1       5.541  47.562  54.620  1.00  0.00    -0.269 OA
ATOM     30  H   UNL     1       5.549  44.983  52.806  1.00  0.00     0.159 HD
ATOM     31  H   UNL     1       4.247  45.679  53.729  1.00  0.00     0.159 HD
ENDBRANCH  23  27
ENDBRANCH  20  21
ENDBRANCH   1  20
TORSDOF 7
ENDMDL
MODEL 3
REMARK VINA RESULT:    -8.912      3.058      7.595
REMARK INTER + INTRA:         -13.675
REMARK INTER:                 -12.442
REMARK INTRA:                  -1.233
REMARK UNBOUND:                -1.376
REMARK SMILES Cc1ccc(Nc2nc(N)nc(COc3ccccc3C(N)=O)n2)cc1
REMARK SMILES IDX 13 1 12 2 7 3 8 4 24 5 9 6 11 7 6 8 5 10 2 11 3 12 26 13
REMARK SMILES IDX 4 14 25 15 1 16 10 17 14 20 15 21 16 22 20 23 17 24 19 25
REMARK SMILES IDX 18 26 21 27 22 28 23 29
REMARK H PARENT 6 9 10 18 10 19 22 30 22 31
ROOT
ATOM      1  C   UNL     1       5.326  45.769  52.049  1.00  0.00     0.307 C 
ENDROOT
BRANCH   1   2
ATOM      2  C   UNL     1       4.786  44.373  51.852  1.00  0.00     0.173 A 
ATOM      3  C   UNL     1       4.809  42.417  50.723  1.00  0.00     0.232 A 
ATOM      4  N   UNL     1       3.791  41.955  51.444  1.00  0.00    -0.177 NA
ATOM      5  N   UNL     1       5.341  43.621  50.899  1.00  0.00    -0.194 NA
ATOM      6  C   UNL     1       3.303  42.779  52.357  1.00  0.00     0.225 A 
ATOM      7  N   UNL     1       3.765  43.988  52.617  1.00  0.00    -0.194 NA
BRANCH   3   8
ATOM      8  N   UNL     1       5.288  41.537  49.755  1.00  0.00    -0.324 N 
ATOM      9  H   UNL     1       5.963  40.915  50.178  1.00  0.00     0.170 HD
BRANCH   8  10
ATOM     10  C   UNL     1       4.979  41.301  48.410  1.00  0.00     0.041 A 
ATOM     11  C   UNL     1       4.237  40.744  45.727  1.00  0.00    -0.051 A 
ATOM     12  C   UNL     1       5.349  41.542  46.011  1.00  0.00     0.005 A 
ATOM     13  C   UNL     1       3.510  40.206  46.789  1.00  0.00     0.005 A 
ATOM     14  C   UNL     1       5.709  41.817  47.337  1.00  0.00     0.026 A 
ATOM     15  C   UNL     1       3.876  40.485  48.111  1.00  0.00     0.026 A 
ATOM     16  C   UNL     1       3.872  40.426  44.307  1.00  0.00     0.044 C 
ENDBRANCH   8  10
ENDBRANCH   3   8
BRANCH   6  17
ATOM     17  N   UNL     1       2.249  42.325  53.124  1.00  0.00    -0.368 N 
ATOM     18  H   UNL     1       1.602  41.789  52.564  1.00  0.00     0.159 HD
ATOM     19  H   UNL     1       2.582  41.905  53.979  1.00  0.00     0.159 HD
ENDBRANCH   6  17
ENDBRANCH   1   2
BRANCH   1  20
ATOM     20  O   UNL     1       6.363  46.025  51.081  1.00  0.00    -0.485 OA
BRANCH  20  21
ATOM     21  C   UNL     1       7.546  46.370  51.682  1.00  0.00     0.132 A 
ATOM     22  C   UNL     1       7.530  47.371  52.663  1.00  0.00     0.047 A 
ATOM     23  C   UNL     1       8.759  45.789  51.284  1.00  0.00     0.081 A 
ATOM     24  C   UNL     1       8.713  47.760  53.292  1.00  0.00     0.004 A 
ATOM     25  C   UNL     1       9.941  46.187  51.931  1.00  0.00     0.018 A 
ATOM     26  C   UNL     1       9.918  47.163  52.931  1.00  0.00     0.001 A 
BRANCH  23  27
ATOM     27  C   UNL     1       8.890  44.757  50.213  1.00  0.00     0.252 C 
ATOM     28  N   UNL     1       7.787  44.459  49.466  1.00  0.00    -0.365 N 
ATOM     29  O   UNL     1       9.958  44.201  49.983  1.00  0.00    -0.269 OA
ATOM     30  H   UNL     1       6.952  45.032  49.517  1.00  0.00     0.159 HD
ATOM     31  H   UNL     1       7.920  43.865  48.660  1.00  0.00     0.159 HD
ENDBRANCH  23  27
ENDBRANCH  20  21
ENDBRANCH   1  20
TORSDOF 7
ENDMDL
MODEL 4
REMARK VINA RESULT:    -8.827      1.446      2.163
REMARK INTER + INTRA:         -13.558
REMARK INTER:                 -12.734
REMARK INTRA:                  -0.823
REMARK UNBOUND:                -1.376
REMARK SMILES Cc1ccc(Nc2nc(N)nc(COc3ccccc3C(N)=O)n2)cc1
REMARK SMILES IDX 13 1 12 2 7 3 8 4 24 5 9 6 11 7 6 8 5 10 2 11 3 12 26 13
REMARK SMILES IDX 4 14 25 15 1 16 10 17 14 20 15 21 16 22 20 23 17 24 19 25
REMARK SMILES IDX 18 26 21 27 22 28 23 29
REMARK H PARENT 6 9 10 18 10 19 22 30 22 31
ROOT
ATOM      1  C   UNL     1       3.517  42.483  52.006  1.00  0.00     0.307 C 
ENDROOT
BRANCH   1   2
ATOM      2  C   UNL     1       4.672  42.787  51.083  1.00  0.00     0.173 A 
ATOM      3  C   UNL     1       6.347  44.162  50.447  1.00  0.00     0.232 A 
ATOM      4  N   UNL     1       6.646  43.371  49.420  1.00  0.00    -0.177 NA
ATOM      5  N   UNL     1       5.369  43.903  51.307  1.00  0.00    -0.194 NA
ATOM      6  C   UNL     1       5.893  42.294  49.277  1.00  0.00     0.225 A 
ATOM      7  N   UNL     1       4.906  41.941  50.080  1.00  0.00    -0.194 NA
BRANCH   3   8
ATOM      8  N   UNL     1       7.143  45.300  50.561  1.00  0.00    -0.324 N 
ATOM      9  H   UNL     1       7.092  45.826  49.700  1.00  0.00     0.170 HD
BRANCH   8  10
ATOM     10  C   UNL     1       7.890  45.871  51.597  1.00  0.00     0.041 A 
ATOM     11  C   UNL     1       9.286  47.028  53.782  1.00  0.00    -0.051 A 
ATOM     12  C   UNL     1       9.946  46.732  52.587  1.00  0.00     0.005 A 
ATOM     13  C   UNL     1       7.919  46.765  53.875  1.00  0.00     0.005 A 
ATOM     14  C   UNL     1       9.255  46.158  51.513  1.00  0.00     0.026 A 
ATOM     15  C   UNL     1       7.234  46.192  52.797  1.00  0.00     0.026 A 
ATOM     16  C   UNL     1      10.022  47.671  54.920  1.00  0.00     0.044 C 
ENDBRANCH   8  10
ENDBRANCH   3   8
BRANCH   6  17
ATOM     17  N   UNL     1       6.183  41.451  48.223  1.00  0.00    -0.368 N 
ATOM     18  H   UNL     1       6.343  41.976  47.376  1.00  0.00     0.159 HD
ATOM     19  H   UNL     1       6.882  40.772  48.487  1.00  0.00     0.159 HD
ENDBRANCH   6  17
ENDBRANCH   1   2
BRANCH   1  20
ATOM     20  O   UNL     1       2.545  43.545  51.927  1.00  0.00    -0.485 OA
BRANCH  20  21
ATOM     21  C   UNL     1       2.320  44.121  53.151  1.00  0.00     0.132 A 
ATOM     22  C   UNL     1       3.332  44.911  53.713  1.00  0.00     0.047 A 
ATOM     23  C   UNL     1       1.137  43.875  53.863  1.00  0.00     0.081 A 
ATOM     24  C   UNL     1       3.149  45.506  54.962  1.00  0.00     0.004 A 
ATOM     25  C   UNL     1       0.965  44.486  55.116  1.00  0.00     0.018 A 
ATOM     26  C   UNL     1       1.962  45.299  55.660  1.00  0.00     0.001 A 
BRANCH  23  27
ATOM     27  C   UNL     1       0.025  43.005  53.376  1.00  0.00     0.252 C 
ATOM     28  N   UNL     1       0.286  41.683  53.162  1.00  0.00    -0.365 N 
ATOM     29  O   UNL     1      -1.105  43.448  53.193  1.00  0.00    -0.269 OA
ATOM     30  H   UNL     1       1.152  41.264  53.479  1.00  0.00     0.159 HD
ATOM     31  H   UNL     1      -0.502  41.081  52.967  1.00  0.00     0.159 HD
ENDBRANCH  23  27
ENDBRANCH  20  21
ENDBRANCH   1  20
TORSDOF 7
ENDMDL
MODEL 5
REMARK VINA RESULT:    -8.633      1.742      6.795
REMARK INTER + INTRA:         -13.290
REMARK INTER:                 -11.868
REMARK INTRA:                  -1.422
REMARK UNBOUND:                -1.376
REMARK SMILES Cc1ccc(Nc2nc(N)nc(COc3ccccc3C(N)=O)n2)cc1
REMARK SMILES IDX 13 1 12 2 7 3 8 4 24 5 9 6 11 7 6 8 5 10 2 11 3 12 26 13
REMARK SMILES IDX 4 14 25 15 1 16 10 17 14 20 15 21 16 22 20 23 17 24 19 25
REMARK SMILES IDX 18 26 21 27 22 28 23 29
REMARK H PARENT 6 9 10 18 10 19 22 30 22 31
ROOT
ATOM      1  C   UNL     1       6.571  44.646  50.976  1.00  0.00     0.307 C 
ENDROOT
BRANCH   1   2
ATOM      2  C   UNL     1       5.189  44.045  51.081  1.00  0.00     0.173 A 
ATOM      3  C   UNL     1       3.019  44.244  51.675  1.00  0.00     0.232 A 
ATOM      4  N   UNL     1       2.783  42.976  51.349  1.00  0.00    -0.177 NA
ATOM      5  N   UNL     1       4.210  44.820  51.551  1.00  0.00    -0.194 NA
ATOM      6  C   UNL     1       3.820  42.287  50.901  1.00  0.00     0.225 A 
ATOM      7  N   UNL     1       5.039  42.768  50.732  1.00  0.00    -0.194 NA
BRANCH   3   8
ATOM      8  N   UNL     1       1.915  44.938  52.163  1.00  0.00    -0.324 N 
ATOM      9  H   UNL     1       1.565  45.553  51.443  1.00  0.00     0.170 HD
BRANCH   8  10
ATOM     10  C   UNL     1       1.183  44.896  53.356  1.00  0.00     0.041 A 
ATOM     11  C   UNL     1      -0.406  44.741  55.704  1.00  0.00    -0.051 A 
ATOM     12  C   UNL     1       0.858  45.335  55.734  1.00  0.00     0.005 A 
ATOM     13  C   UNL     1      -0.884  44.245  54.491  1.00  0.00     0.005 A 
ATOM     14  C   UNL     1       1.641  45.406  54.574  1.00  0.00     0.026 A 
ATOM     15  C   UNL     1      -0.097  44.320  53.336  1.00  0.00     0.026 A 
ATOM     16  C   UNL     1      -1.254  44.694  56.940  1.00  0.00     0.044 C 
ENDBRANCH   8  10
ENDBRANCH   3   8
BRANCH   6  17
ATOM     17  N   UNL     1       3.605  40.970  50.550  1.00  0.00    -0.368 N 
ATOM     18  H   UNL     1       4.081  40.746  49.688  1.00  0.00     0.159 HD
ATOM     19  H   UNL     1       3.759  40.358  51.338  1.00  0.00     0.159 HD
ENDBRANCH   6  17
ENDBRANCH   1   2
BRANCH   1  20
ATOM     20  O   UNL     1       6.518  46.040  51.337  1.00  0.00    -0.485 OA
BRANCH  20  21
ATOM     21  C   UNL     1       7.578  46.401  52.129  1.00  0.00     0.132 A 
ATOM     22  C   UNL     1       8.861  46.412  51.563  1.00  0.00     0.047 A 
ATOM     23  C   UNL     1       7.403  46.687  53.491  1.00  0.00     0.081 A 
ATOM     24  C   UNL     1       9.968  46.761  52.337  1.00  0.00     0.004 A 
ATOM     25  C   UNL     1       8.527  47.043  54.255  1.00  0.00     0.018 A 
ATOM     26  C   UNL     1       9.800  47.083  53.681  1.00  0.00     0.001 A 
BRANCH  23  27
ATOM     27  C   UNL     1       6.089  46.649  54.199  1.00  0.00     0.252 C 
ATOM     28  N   UNL     1       5.479  45.438  54.364  1.00  0.00    -0.365 N 
ATOM     29  O   UNL     1       5.571  47.665  54.648  1.00  0.00    -0.269 OA
ATOM     30  H   UNL     1       5.972  44.575  54.166  1.00  0.00     0.159 HD
ATOM     31  H   UNL     1       4.665  45.408  54.961  1.00  0.00     0.159 HD
ENDBRANCH  23  27
ENDBRANCH  20  21
ENDBRANCH   1  20
TORSDOF 7
ENDMDL
MODEL 6
REMARK VINA RESULT:    -8.593      2.272      7.106
REMARK INTER + INTRA:         -13.234
REMARK INTER:                 -11.996
REMARK INTRA:                  -1.238
REMARK UNBOUND:                -1.376
REMARK SMILES Cc1ccc(Nc2nc(N)nc(COc3ccccc3C(N)=O)n2)cc1
REMARK SMILES IDX 13 1 12 2 7 3 8 4 24 5 9 6 11 7 6 8 5 10 2 11 3 12 26 13
REMARK SMILES IDX 4 14 25 15 1 16 10 17 14 20 15 21 16 22 20 23 17 24 19 25
REMARK SMILES IDX 18 26 21 27 22 28 23 29
REMARK H PARENT 6 9 10 18 10 19 22 30 22 31
ROOT
ATOM      1  C   UNL     1       5.658  46.510  54.584  1.00  0.00     0.307 C 
ENDROOT
BRANCH   1   2
ATOM      2  C   UNL     1       4.506  45.638  54.145  1.00  0.00     0.173 A 
ATOM      3  C   UNL     1       3.757  43.779  53.104  1.00  0.00     0.232 A 
ATOM      4  N   UNL     1       2.492  44.144  53.297  1.00  0.00    -0.177 NA
ATOM      5  N   UNL     1       4.795  44.496  53.518  1.00  0.00    -0.194 NA
ATOM      6  C   UNL     1       2.308  45.297  53.920  1.00  0.00     0.225 A 
ATOM      7  N   UNL     1       3.269  46.078  54.379  1.00  0.00    -0.194 NA
BRANCH   3   8
ATOM      8  N   UNL     1       3.921  42.573  52.427  1.00  0.00    -0.324 N 
ATOM      9  H   UNL     1       3.619  41.815  53.023  1.00  0.00     0.170 HD
BRANCH   8  10
ATOM     10  C   UNL     1       4.319  42.226  51.130  1.00  0.00     0.041 A 
ATOM     11  C   UNL     1       5.006  41.441  48.489  1.00  0.00    -0.051 A 
ATOM     12  C   UNL     1       5.822  42.316  49.211  1.00  0.00     0.005 A 
ATOM     13  C   UNL     1       3.855  40.940  49.101  1.00  0.00     0.005 A 
ATOM     14  C   UNL     1       5.477  42.704  50.513  1.00  0.00     0.026 A 
ATOM     15  C   UNL     1       3.518  41.331  50.401  1.00  0.00     0.026 A 
ATOM     16  C   UNL     1       5.392  41.005  47.107  1.00  0.00     0.044 C 
ENDBRANCH   8  10
ENDBRANCH   3   8
BRANCH   6  17
ATOM     17  N   UNL     1       1.007  45.700  54.139  1.00  0.00    -0.368 N 
ATOM     18  H   UNL     1       0.390  45.325  53.433  1.00  0.00     0.159 HD
ATOM     19  H   UNL     1       0.745  45.561  55.104  1.00  0.00     0.159 HD
ENDBRANCH   6  17
ENDBRANCH   1   2
BRANCH   1  20
ATOM     20  O   UNL     1       6.173  47.234  53.449  1.00  0.00    -0.485 OA
BRANCH  20  21
ATOM     21  C   UNL     1       7.521  47.038  53.290  1.00  0.00     0.132 A 
ATOM     22  C   UNL     1       8.389  47.542  54.268  1.00  0.00     0.047 A 
ATOM     23  C   UNL     1       8.033  46.410  52.145  1.00  0.00     0.081 A 
ATOM     24  C   UNL     1       9.768  47.374  54.139  1.00  0.00     0.004 A 
ATOM     25  C   UNL     1       9.423  46.243  52.033  1.00  0.00     0.018 A 
ATOM     26  C   UNL     1      10.285  46.718  53.025  1.00  0.00     0.001 A 
BRANCH  23  27
ATOM     27  C   UNL     1       7.197  45.889  51.023  1.00  0.00     0.252 C 
ATOM     28  N   UNL     1       5.852  46.118  51.060  1.00  0.00    -0.365 N 
ATOM     29  O   UNL     1       7.695  45.290  50.075  1.00  0.00    -0.269 OA
ATOM     30  H   UNL     1       5.451  46.762  51.732  1.00  0.00     0.159 HD
ATOM     31  H   UNL     1       5.320  45.884  50.234  1.00  0.00     0.159 HD
ENDBRANCH  23  27
ENDBRANCH  20  21
ENDBRANCH   1  20
TORSDOF 7
ENDMDL
MODEL 7
REMARK VINA RESULT:    -8.469      2.720      7.170
REMARK INTER + INTRA:         -13.063
REMARK INTER:                 -12.525
REMARK INTRA:                  -0.538
REMARK UNBOUND:                -1.376
REMARK SMILES Cc1ccc(Nc2nc(N)nc(COc3ccccc3C(N)=O)n2)cc1
REMARK SMILES IDX 13 1 12 2 7 3 8 4 24 5 9 6 11 7 6 8 5 10 2 11 3 12 26 13
REMARK SMILES IDX 4 14 25 15 1 16 10 17 14 20 15 21 16 22 20 23 17 24 19 25
REMARK SMILES IDX 18 26 21 27 22 28 23 29
REMARK H PARENT 6 9 10 18 10 19 22 30 22 31
ROOT
ATOM      1  C   UNL     1       5.684  47.276  54.547  1.00  0.00     0.307 C 
ENDROOT
BRANCH   1   2
ATOM      2  C   UNL     1       4.539  46.298  54.664  1.00  0.00     0.173 A 
ATOM      3  C   UNL     1       3.383  44.544  53.834  1.00  0.00     0.232 A 
ATOM      4  N   UNL     1       2.488  44.633  54.814  1.00  0.00    -0.177 NA
ATOM      5  N   UNL     1       4.429  45.356  53.726  1.00  0.00    -0.194 NA
ATOM      6  C   UNL     1       2.678  45.606  55.690  1.00  0.00     0.225 A 
ATOM      7  N   UNL     1       3.688  46.457  55.677  1.00  0.00    -0.194 NA
BRANCH   3   8
ATOM      8  N   UNL     1       3.146  43.526  52.914  1.00  0.00    -0.324 N 
ATOM      9  H   UNL     1       2.213  43.164  53.055  1.00  0.00     0.170 HD
BRANCH   8  10
ATOM     10  C   UNL     1       3.867  42.989  51.842  1.00  0.00     0.041 A 
ATOM     11  C   UNL     1       5.418  42.016  49.671  1.00  0.00    -0.051 A 
ATOM     12  C   UNL     1       4.340  41.279  50.167  1.00  0.00     0.005 A 
ATOM     13  C   UNL     1       5.705  43.254  50.248  1.00  0.00     0.005 A 
ATOM     14  C   UNL     1       3.579  41.760  51.241  1.00  0.00     0.026 A 
ATOM     15  C   UNL     1       4.941  43.729  51.320  1.00  0.00     0.026 A 
ATOM     16  C   UNL     1       6.211  41.512  48.502  1.00  0.00     0.044 C 
ENDBRANCH   8  10
ENDBRANCH   3   8
BRANCH   6  17
ATOM     17  N   UNL     1       1.768  45.719  56.721  1.00  0.00    -0.368 N 
ATOM     18  H   UNL     1       1.318  44.834  56.903  1.00  0.00     0.159 HD
ATOM     19  H   UNL     1       2.176  46.203  57.509  1.00  0.00     0.159 HD
ENDBRANCH   6  17
ENDBRANCH   1   2
BRANCH   1  20
ATOM     20  O   UNL     1       6.924  46.603  54.844  1.00  0.00    -0.485 OA
BRANCH  20  21
ATOM     21  C   UNL     1       7.778  46.614  53.772  1.00  0.00     0.132 A 
ATOM     22  C   UNL     1       7.339  46.058  52.562  1.00  0.00     0.047 A 
ATOM     23  C   UNL     1       9.086  47.107  53.890  1.00  0.00     0.081 A 
ATOM     24  C   UNL     1       8.181  46.039  51.449  1.00  0.00     0.004 A 
ATOM     25  C   UNL     1       9.919  47.086  52.759  1.00  0.00     0.018 A 
ATOM     26  C   UNL     1       9.469  46.559  51.546  1.00  0.00     0.001 A 
BRANCH  23  27
ATOM     27  C   UNL     1       9.666  47.668  55.147  1.00  0.00     0.252 C 
ATOM     28  N   UNL     1       9.095  48.790  55.676  1.00  0.00    -0.365 N 
ATOM     29  O   UNL     1      10.613  47.133  55.713  1.00  0.00    -0.269 OA
ATOM     30  H   UNL     1       8.208  49.137  55.330  1.00  0.00     0.159 HD
ATOM     31  H   UNL     1       9.406  49.078  56.593  1.00  0.00     0.159 HD
ENDBRANCH  23  27
ENDBRANCH  20  21
ENDBRANCH   1  20
TORSDOF 7
ENDMDL
MODEL 8
REMARK VINA RESULT:    -8.468      2.281      7.530
REMARK INTER + INTRA:         -13.062
REMARK INTER:                 -12.006
REMARK INTRA:                  -1.055
REMARK UNBOUND:                -1.376
REMARK SMILES Cc1ccc(Nc2nc(N)nc(COc3ccccc3C(N)=O)n2)cc1
REMARK SMILES IDX 13 1 12 2 7 3 8 4 24 5 9 6 11 7 6 8 5 10 2 11 3 12 26 13
REMARK SMILES IDX 4 14 25 15 1 16 10 17 14 20 15 21 16 22 20 23 17 24 19 25
REMARK SMILES IDX 18 26 21 27 22 28 23 29
REMARK H PARENT 6 9 10 18 10 19 22 30 22 31
ROOT
ATOM      1  C   UNL     1       5.380  45.929  51.588  1.00  0.00     0.307 C 
ENDROOT
BRANCH   1   2
ATOM      2  C   UNL     1       4.864  44.512  51.516  1.00  0.00     0.173 A 
ATOM      3  C   UNL     1       3.429  42.922  52.233  1.00  0.00     0.232 A 
ATOM      4  N   UNL     1       4.007  42.009  51.457  1.00  0.00    -0.177 NA
ATOM      5  N   UNL     1       3.825  44.189  52.287  1.00  0.00    -0.194 NA
ATOM      6  C   UNL     1       5.036  42.424  50.737  1.00  0.00     0.225 A 
ATOM      7  N   UNL     1       5.500  43.660  50.711  1.00  0.00    -0.194 NA
BRANCH   3   8
ATOM      8  N   UNL     1       2.363  42.452  52.996  1.00  0.00    -0.324 N 
ATOM      9  H   UNL     1       2.579  41.523  53.329  1.00  0.00     0.170 HD
BRANCH   8  10
ATOM     10  C   UNL     1       1.157  43.009  53.439  1.00  0.00     0.041 A 
ATOM     11  C   UNL     1      -1.358  44.055  54.239  1.00  0.00    -0.051 A 
ATOM     12  C   UNL     1      -0.181  44.454  54.877  1.00  0.00     0.005 A 
ATOM     13  C   UNL     1      -1.272  43.148  53.182  1.00  0.00     0.005 A 
ATOM     14  C   UNL     1       1.058  43.932  54.483  1.00  0.00     0.026 A 
ATOM     15  C   UNL     1      -0.031  42.631  52.792  1.00  0.00     0.026 A 
ATOM     16  C   UNL     1      -2.679  44.638  54.644  1.00  0.00     0.044 C 
ENDBRANCH   8  10
ENDBRANCH   3   8
BRANCH   6  17
ATOM     17  N   UNL     1       5.653  41.500  49.918  1.00  0.00    -0.368 N 
ATOM     18  H   UNL     1       6.271  41.955  49.263  1.00  0.00     0.159 HD
ATOM     19  H   UNL     1       6.033  40.737  50.460  1.00  0.00     0.159 HD
ENDBRANCH   6  17
ENDBRANCH   1   2
BRANCH   1  20
ATOM     20  O   UNL     1       6.562  46.054  50.771  1.00  0.00    -0.485 OA
BRANCH  20  21
ATOM     21  C   UNL     1       7.663  46.385  51.517  1.00  0.00     0.132 A 
ATOM     22  C   UNL     1       7.541  47.406  52.470  1.00  0.00     0.047 A 
ATOM     23  C   UNL     1       8.904  45.771  51.293  1.00  0.00     0.081 A 
ATOM     24  C   UNL     1       8.641  47.783  53.242  1.00  0.00     0.004 A 
ATOM     25  C   UNL     1      10.000  46.157  52.083  1.00  0.00     0.018 A 
ATOM     26  C   UNL     1       9.868  47.154  53.053  1.00  0.00     0.001 A 
BRANCH  23  27
ATOM     27  C   UNL     1       9.150  44.715  50.267  1.00  0.00     0.252 C 
ATOM     28  N   UNL     1       8.117  44.356  49.449  1.00  0.00    -0.365 N 
ATOM     29  O   UNL     1      10.251  44.192  50.133  1.00  0.00    -0.269 OA
ATOM     30  H   UNL     1       7.262  44.900  49.420  1.00  0.00     0.159 HD
ATOM     31  H   UNL     1       8.331  43.745  48.674  1.00  0.00     0.159 HD
ENDBRANCH  23  27
ENDBRANCH  20  21
ENDBRANCH   1  20
TORSDOF 7
ENDMDL
MODEL 9
REMARK VINA RESULT:    -8.350      2.943      8.020
REMARK INTER + INTRA:         -12.899
REMARK INTER:                 -11.824
REMARK INTRA:                  -1.076
REMARK UNBOUND:                -1.376
REMARK SMILES Cc1ccc(Nc2nc(N)nc(COc3ccccc3C(N)=O)n2)cc1
REMARK SMILES IDX 13 1 12 2 7 3 8 4 24 5 9 6 11 7 6 8 5 10 2 11 3 12 26 13
REMARK SMILES IDX 4 14 25 15 1 16 10 17 14 20 15 21 16 22 20 23 17 24 19 25
REMARK SMILES IDX 18 26 21 27 22 28 23 29
REMARK H PARENT 6 9 10 18 10 19 22 30 22 31
ROOT
ATOM      1  C   UNL     1       5.486  47.071  54.370  1.00  0.00     0.307 C 
ENDROOT
BRANCH   1   2
ATOM      2  C   UNL     1       4.271  46.175  54.379  1.00  0.00     0.173 A 
ATOM      3  C   UNL     1       2.503  45.301  55.481  1.00  0.00     0.232 A 
ATOM      4  N   UNL     1       2.187  44.544  54.433  1.00  0.00    -0.177 NA
ATOM      5  N   UNL     1       3.537  46.135  55.493  1.00  0.00    -0.194 NA
ATOM      6  C   UNL     1       2.980  44.648  53.379  1.00  0.00     0.225 A 
ATOM      7  N   UNL     1       4.024  45.452  53.287  1.00  0.00    -0.194 NA
BRANCH   3   8
ATOM      8  N   UNL     1       1.664  45.155  56.582  1.00  0.00    -0.324 N 
ATOM      9  H   UNL     1       1.772  44.224  56.960  1.00  0.00     0.170 HD
BRANCH   8  10
ATOM     10  C   UNL     1       0.811  46.016  57.282  1.00  0.00     0.041 A 
ATOM     11  C   UNL     1      -0.809  47.795  58.790  1.00  0.00    -0.051 A 
ATOM     12  C   UNL     1      -1.326  47.123  57.679  1.00  0.00     0.005 A 
ATOM     13  C   UNL     1       0.516  47.558  59.159  1.00  0.00     0.005 A 
ATOM     14  C   UNL     1      -0.523  46.249  56.936  1.00  0.00     0.026 A 
ATOM     15  C   UNL     1       1.312  46.683  58.412  1.00  0.00     0.026 A 
ATOM     16  C   UNL     1      -1.680  48.707  59.602  1.00  0.00     0.044 C 
ENDBRANCH   8  10
ENDBRANCH   3   8
BRANCH   6  17
ATOM     17  N   UNL     1       2.674  43.879  52.275  1.00  0.00    -0.368 N 
ATOM     18  H   UNL     1       2.844  44.392  51.422  1.00  0.00     0.159 HD
ATOM     19  H   UNL     1       3.082  42.959  52.352  1.00  0.00     0.159 HD
ENDBRANCH   6  17
ENDBRANCH   1   2
BRANCH   1  20
ATOM     20  O   UNL     1       5.977  47.202  53.021  1.00  0.00    -0.485 OA
BRANCH  20  21
ATOM     21  C   UNL     1       7.335  47.023  52.954  1.00  0.00     0.132 A 
ATOM     22  C   UNL     1       8.139  47.650  53.916  1.00  0.00     0.047 A 
ATOM     23  C   UNL     1       7.920  46.287  51.913  1.00  0.00     0.081 A 
ATOM     24  C   UNL     1       9.526  47.504  53.877  1.00  0.00     0.004 A 
ATOM     25  C   UNL     1       9.317  46.144  51.892  1.00  0.00     0.018 A 
ATOM     26  C   UNL     1      10.115  46.745  52.870  1.00  0.00     0.001 A 
BRANCH  23  27
ATOM     27  C   UNL     1       7.156  45.628  50.813  1.00  0.00     0.252 C 
ATOM     28  N   UNL     1       5.805  45.492  50.956  1.00  0.00    -0.365 N 
ATOM     29  O   UNL     1       7.710  45.236  49.791  1.00  0.00    -0.269 OA
ATOM     30  H   UNL     1       5.309  45.968  51.700  1.00  0.00     0.159 HD
ATOM     31  H   UNL     1       5.285  45.172  50.152  1.00  0.00     0.159 HD
ENDBRANCH  23  27
ENDBRANCH  20  21
ENDBRANCH   1  20
TORSDOF 7
ENDMDL
MODEL 10
REMARK VINA RESULT:    -8.166      2.452      5.107
REMARK INTER + INTRA:         -12.645
REMARK INTER:                 -11.166
REMARK INTRA:                  -1.479
REMARK UNBOUND:                -1.376
REMARK SMILES Cc1ccc(Nc2nc(N)nc(COc3ccccc3C(N)=O)n2)cc1
REMARK SMILES IDX 13 1 12 2 7 3 8 4 24 5 9 6 11 7 6 8 5 10 2 11 3 12 26 13
REMARK SMILES IDX 4 14 25 15 1 16 10 17 14 20 15 21 16 22 20 23 17 24 19 25
REMARK SMILES IDX 18 26 21 27 22 28 23 29
REMARK H PARENT 6 9 10 18 10 19 22 30 22 31
ROOT
ATOM      1  C   UNL     1       3.492  42.245  51.833  1.00  0.00     0.307 C 
ENDROOT
BRANCH   1   2
ATOM      2  C   UNL     1       3.157  43.704  52.033  1.00  0.00     0.173 A 
ATOM      3  C   UNL     1       3.836  45.846  52.259  1.00  0.00     0.232 A 
ATOM      4  N   UNL     1       2.586  46.252  52.466  1.00  0.00    -0.177 NA
ATOM      5  N   UNL     1       4.164  44.579  52.033  1.00  0.00    -0.194 NA
ATOM      6  C   UNL     1       1.659  45.308  52.456  1.00  0.00     0.225 A 
ATOM      7  N   UNL     1       1.878  44.026  52.231  1.00  0.00    -0.194 NA
BRANCH   3   8
ATOM      8  N   UNL     1       4.794  46.856  52.297  1.00  0.00    -0.324 N 
ATOM      9  H   UNL     1       4.395  47.705  51.921  1.00  0.00     0.170 HD
BRANCH   8  10
ATOM     10  C   UNL     1       6.097  46.950  52.799  1.00  0.00     0.041 A 
ATOM     11  C   UNL     1       8.786  47.172  53.684  1.00  0.00    -0.051 A 
ATOM     12  C   UNL     1       7.757  46.891  54.586  1.00  0.00     0.005 A 
ATOM     13  C   UNL     1       8.470  47.320  52.332  1.00  0.00     0.005 A 
ATOM     14  C   UNL     1       6.431  46.786  54.146  1.00  0.00     0.026 A 
ATOM     15  C   UNL     1       7.143  47.213  51.900  1.00  0.00     0.026 A 
ATOM     16  C   UNL     1      10.208  47.254  54.153  1.00  0.00     0.044 C 
ENDBRANCH   8  10
ENDBRANCH   3   8
BRANCH   6  17
ATOM     17  N   UNL     1       0.352  45.700  52.663  1.00  0.00    -0.368 N 
ATOM     18  H   UNL     1      -0.266  45.256  51.999  1.00  0.00     0.159 HD
ATOM     19  H   UNL     1       0.107  45.634  53.640  1.00  0.00     0.159 HD
ENDBRANCH   6  17
ENDBRANCH   1   2
BRANCH   1  20
ATOM     20  O   UNL     1       4.832  42.126  51.313  1.00  0.00    -0.485 OA
BRANCH  20  21
ATOM     21  C   UNL     1       4.834  41.757  49.993  1.00  0.00     0.132 A 
ATOM     22  C   UNL     1       3.871  40.838  49.555  1.00  0.00     0.047 A 
ATOM     23  C   UNL     1       5.815  42.229  49.108  1.00  0.00     0.081 A 
ATOM     24  C   UNL     1       3.845  40.426  48.222  1.00  0.00     0.004 A 
ATOM     25  C   UNL     1       5.772  41.811  47.768  1.00  0.00     0.018 A 
ATOM     26  C   UNL     1       4.791  40.918  47.327  1.00  0.00     0.001 A 
BRANCH  23  27
ATOM     27  C   UNL     1       6.914  43.166  49.489  1.00  0.00     0.252 C 
ATOM     28  N   UNL     1       6.647  44.131  50.417  1.00  0.00    -0.365 N 
ATOM     29  O   UNL     1       8.038  43.067  49.008  1.00  0.00    -0.269 OA
ATOM     30  H   UNL     1       5.789  44.114  50.955  1.00  0.00     0.159 HD
ATOM     31  H   UNL     1       7.430  44.666  50.765  1.00  0.00     0.159 HD
ENDBRANCH  23  27
ENDBRANCH  20  21
ENDBRANCH   1  20
TORSDOF 7
ENDMDL
