MODEL 1
REMARK VINA RESULT:    -9.478      0.000      0.000
REMARK INTER + INTRA:         -14.532
REMARK INTER:                 -13.633
REMARK INTRA:                  -0.899
REMARK UNBOUND:                -0.899
REMARK SMILES CCOc1ccc(C2CCC[NH+]2Cc2nc(N)nc(Nc3ccccc3C)n2)cc1
REMARK SMILES IDX 8 1 9 2 10 3 11 4 12 5 7 7 4 8 5 9 30 10 6 11 29 12 3 13
REMARK SMILES IDX 2 14 1 15 13 16 14 17 15 18 28 19 16 20 19 21 18 22 17 23
REMARK SMILES IDX 20 26 21 28 22 29 26 30 23 31 25 32 24 33 27 34
REMARK H PARENT 12 6 17 24 17 25 20 27
ROOT
ATOM      1  C   UNL     1       7.583  46.538  51.926  1.00  0.00     0.215 C 
ATOM      2  C   UNL     1       8.760  47.470  51.635  1.00  0.00     0.076 C 
ATOM      3  C   UNL     1       9.954  46.815  52.307  1.00  0.00     0.068 C 
ATOM      4  C   UNL     1       9.395  46.126  53.537  1.00  0.00     0.263 C 
ATOM      5  N   UNL     1       7.904  46.049  53.336  1.00  0.00    -0.322 N 
ATOM      6  H   UNL     1       7.597  45.064  53.389  1.00  0.00     0.349 HD
ENDROOT
BRANCH   1   7
ATOM      7  C   UNL     1       7.354  45.373  50.980  1.00  0.00     0.010 A 
ATOM      8  C   UNL     1       6.828  43.118  49.339  1.00  0.00     0.119 A 
ATOM      9  C   UNL     1       5.885  43.546  50.264  1.00  0.00     0.047 A 
ATOM     10  C   UNL     1       8.030  43.815  49.233  1.00  0.00     0.047 A 
ATOM     11  C   UNL     1       6.142  44.665  51.065  1.00  0.00     0.014 A 
ATOM     12  C   UNL     1       8.289  44.934  50.035  1.00  0.00     0.014 A 
BRANCH   8  13
ATOM     13  O   UNL     1       6.715  42.039  48.513  1.00  0.00    -0.494 OA
BRANCH  13  14
ATOM     14  C   UNL     1       5.418  41.672  48.048  1.00  0.00     0.226 C 
ATOM     15  C   UNL     1       5.399  41.581  46.534  1.00  0.00     0.049 C 
ENDBRANCH  13  14
ENDBRANCH   8  13
ENDBRANCH   1   7
BRANCH   5  16
ATOM     16  C   UNL     1       7.119  46.763  54.435  1.00  0.00     0.341 C 
BRANCH  16  17
ATOM     17  C   UNL     1       5.618  46.732  54.247  1.00  0.00     0.190 A 
ATOM     18  N   UNL     1       5.072  47.556  53.363  1.00  0.00    -0.192 NA
ATOM     19  N   UNL     1       4.949  45.848  54.989  1.00  0.00    -0.191 NA
ATOM     20  C   UNL     1       3.759  47.445  53.238  1.00  0.00     0.225 A 
ATOM     21  C   UNL     1       3.632  45.817  54.798  1.00  0.00     0.232 A 
ATOM     22  N   UNL     1       3.007  46.601  53.927  1.00  0.00    -0.177 NA
BRANCH  20  23
ATOM     23  N   UNL     1       3.130  48.265  52.332  1.00  0.00    -0.368 N 
ATOM     24  H   UNL     1       2.963  49.197  52.684  1.00  0.00     0.159 HD
ATOM     25  H   UNL     1       2.356  47.802  51.871  1.00  0.00     0.159 HD
ENDBRANCH  20  23
BRANCH  21  26
ATOM     26  N   UNL     1       2.826  44.892  55.448  1.00  0.00    -0.324 N 
ATOM     27  H   UNL     1       3.404  44.141  55.802  1.00  0.00     0.170 HD
BRANCH  26  28
ATOM     28  C   UNL     1       1.439  44.720  55.576  1.00  0.00     0.044 A 
ATOM     29  C   UNL     1       0.721  45.212  56.677  1.00  0.00     0.026 A 
ATOM     30  C   UNL     1       0.730  43.970  54.607  1.00  0.00    -0.027 A 
ATOM     31  C   UNL     1      -0.652  44.989  56.816  1.00  0.00     0.002 A 
ATOM     32  C   UNL     1      -0.651  43.752  54.758  1.00  0.00     0.005 A 
ATOM     33  C   UNL     1      -1.338  44.257  55.857  1.00  0.00     0.000 A 
ATOM     34  C   UNL     1       1.416  43.366  53.407  1.00  0.00     0.046 C 
ENDBRANCH  26  28
ENDBRANCH  21  26
ENDBRANCH  16  17
ENDBRANCH   5  16
TORSDOF 8
ENDMDL
MODEL 2
REMARK VINA RESULT:    -9.252      2.008      6.400
REMARK INTER + INTRA:         -14.207
REMARK INTER:                 -12.855
REMARK INTRA:                  -1.353
REMARK UNBOUND:                -0.899
REMARK SMILES CCOc1ccc(C2CCC[NH+]2Cc2nc(N)nc(Nc3ccccc3C)n2)cc1
REMARK SMILES IDX 8 1 9 2 10 3 11 4 12 5 7 7 4 8 5 9 30 10 6 11 29 12 3 13
REMARK SMILES IDX 2 14 1 15 13 16 14 17 15 18 28 19 16 20 19 21 18 22 17 23
REMARK SMILES IDX 20 26 21 28 22 29 26 30 23 31 25 32 24 33 27 34
REMARK H PARENT 12 6 17 24 17 25 20 27
ROOT
ATOM      1  C   UNL     1       2.414  43.595  52.376  1.00  0.00     0.215 C 
ATOM      2  C   UNL     1       1.274  42.789  53.001  1.00  0.00     0.076 C 
ATOM      3  C   UNL     1       0.127  42.902  52.011  1.00  0.00     0.068 C 
ATOM      4  C   UNL     1       0.269  44.276  51.386  1.00  0.00     0.263 C 
ATOM      5  N   UNL     1       1.665  44.743  51.707  1.00  0.00    -0.322 N 
ATOM      6  H   UNL     1       2.168  44.960  50.830  1.00  0.00     0.349 HD
ENDROOT
BRANCH   1   7
ATOM      7  C   UNL     1       3.323  42.883  51.390  1.00  0.00     0.010 A 
ATOM      8  C   UNL     1       5.094  41.712  49.507  1.00  0.00     0.119 A 
ATOM      9  C   UNL     1       5.480  42.836  50.225  1.00  0.00     0.047 A 
ATOM     10  C   UNL     1       3.829  41.174  49.730  1.00  0.00     0.047 A 
ATOM     11  C   UNL     1       4.609  43.406  51.161  1.00  0.00     0.014 A 
ATOM     12  C   UNL     1       2.956  41.743  50.665  1.00  0.00     0.014 A 
BRANCH   8  13
ATOM     13  O   UNL     1       5.833  41.070  48.558  1.00  0.00    -0.494 OA
BRANCH  13  14
ATOM     14  C   UNL     1       6.225  41.796  47.395  1.00  0.00     0.226 C 
ATOM     15  C   UNL     1       5.261  41.538  46.253  1.00  0.00     0.049 C 
ENDBRANCH  13  14
ENDBRANCH   8  13
ENDBRANCH   1   7
BRANCH   5  16
ATOM     16  C   UNL     1       1.687  46.047  52.502  1.00  0.00     0.341 C 
BRANCH  16  17
ATOM     17  C   UNL     1       2.968  46.283  53.273  1.00  0.00     0.190 A 
ATOM     18  N   UNL     1       3.024  45.898  54.542  1.00  0.00    -0.192 NA
ATOM     19  N   UNL     1       3.966  46.856  52.599  1.00  0.00    -0.191 NA
ATOM     20  C   UNL     1       4.187  46.114  55.135  1.00  0.00     0.225 A 
ATOM     21  C   UNL     1       5.093  47.038  53.285  1.00  0.00     0.232 A 
ATOM     22  N   UNL     1       5.235  46.674  54.554  1.00  0.00    -0.177 NA
BRANCH  20  23
ATOM     23  N   UNL     1       4.315  45.731  56.449  1.00  0.00    -0.368 N 
ATOM     24  H   UNL     1       4.414  46.510  57.085  1.00  0.00     0.159 HD
ATOM     25  H   UNL     1       4.964  44.961  56.561  1.00  0.00     0.159 HD
ENDBRANCH  20  23
BRANCH  21  26
ATOM     26  N   UNL     1       6.233  47.553  52.683  1.00  0.00    -0.324 N 
ATOM     27  H   UNL     1       5.963  48.266  52.018  1.00  0.00     0.170 HD
BRANCH  26  28
ATOM     28  C   UNL     1       7.592  47.202  52.697  1.00  0.00     0.044 A 
ATOM     29  C   UNL     1       8.473  47.657  53.690  1.00  0.00     0.026 A 
ATOM     30  C   UNL     1       8.127  46.418  51.647  1.00  0.00    -0.027 A 
ATOM     31  C   UNL     1       9.834  47.341  53.663  1.00  0.00     0.002 A 
ATOM     32  C   UNL     1       9.499  46.107  51.630  1.00  0.00     0.005 A 
ATOM     33  C   UNL     1      10.348  46.567  52.631  1.00  0.00     0.000 A 
ATOM     34  C   UNL     1       7.272  45.913  50.512  1.00  0.00     0.046 C 
ENDBRANCH  26  28
ENDBRANCH  21  26
ENDBRANCH  16  17
ENDBRANCH   5  16
TORSDOF 8
ENDMDL
MODEL 3
REMARK VINA RESULT:    -9.207      3.748      8.001
REMARK INTER + INTRA:         -14.143
REMARK INTER:                 -13.345
REMARK INTRA:                  -0.798
REMARK UNBOUND:                -0.899
REMARK SMILES CCOc1ccc(C2CCC[NH+]2Cc2nc(N)nc(Nc3ccccc3C)n2)cc1
REMARK SMILES IDX 8 1 9 2 10 3 11 4 12 5 7 7 4 8 5 9 30 10 6 11 29 12 3 13
REMARK SMILES IDX 2 14 1 15 13 16 14 17 15 18 28 19 16 20 19 21 18 22 17 23
REMARK SMILES IDX 20 26 21 28 22 29 26 30 23 31 25 32 24 33 27 34
REMARK H PARENT 12 6 17 24 17 25 20 27
ROOT
ATOM      1  C   UNL     1       3.963  44.927  51.285  1.00  0.00     0.215 C 
ATOM      2  C   UNL     1       2.718  45.811  51.216  1.00  0.00     0.076 C 
ATOM      3  C   UNL     1       2.338  46.068  52.664  1.00  0.00     0.068 C 
ATOM      4  C   UNL     1       2.735  44.811  53.413  1.00  0.00     0.263 C 
ATOM      5  N   UNL     1       3.668  44.055  52.503  1.00  0.00    -0.322 N 
ATOM      6  H   UNL     1       4.569  43.897  52.984  1.00  0.00     0.349 HD
ENDROOT
BRANCH   1   7
ATOM      7  C   UNL     1       5.310  45.614  51.415  1.00  0.00     0.010 A 
ATOM      8  C   UNL     1       7.907  46.742  51.619  1.00  0.00     0.119 A 
ATOM      9  C   UNL     1       7.663  45.703  50.731  1.00  0.00     0.047 A 
ATOM     10  C   UNL     1       6.856  47.217  52.401  1.00  0.00     0.047 A 
ATOM     11  C   UNL     1       6.379  45.155  50.624  1.00  0.00     0.014 A 
ATOM     12  C   UNL     1       5.572  46.669  52.297  1.00  0.00     0.014 A 
BRANCH   8  13
ATOM     13  O   UNL     1       9.106  47.353  51.836  1.00  0.00    -0.494 OA
BRANCH  13  14
ATOM     14  C   UNL     1      10.066  46.694  52.658  1.00  0.00     0.226 C 
ATOM     15  C   UNL     1       9.960  47.173  54.093  1.00  0.00     0.049 C 
ENDBRANCH  13  14
ENDBRANCH   8  13
ENDBRANCH   1   7
BRANCH   5  16
ATOM     16  C   UNL     1       3.159  42.657  52.158  1.00  0.00     0.341 C 
BRANCH  16  17
ATOM     17  C   UNL     1       3.899  41.989  51.020  1.00  0.00     0.190 A 
ATOM     18  N   UNL     1       5.223  41.914  51.082  1.00  0.00    -0.192 NA
ATOM     19  N   UNL     1       3.147  41.503  50.032  1.00  0.00    -0.191 NA
ATOM     20  C   UNL     1       5.790  41.290  50.063  1.00  0.00     0.225 A 
ATOM     21  C   UNL     1       3.811  40.899  49.048  1.00  0.00     0.232 A 
ATOM     22  N   UNL     1       5.134  40.774  49.036  1.00  0.00    -0.177 NA
BRANCH  20  23
ATOM     23  N   UNL     1       7.160  41.170  50.068  1.00  0.00    -0.368 N 
ATOM     24  H   UNL     1       7.478  40.219  50.194  1.00  0.00     0.159 HD
ATOM     25  H   UNL     1       7.603  41.882  50.635  1.00  0.00     0.159 HD
ENDBRANCH  20  23
BRANCH  21  26
ATOM     26  N   UNL     1       3.147  40.282  47.996  1.00  0.00    -0.324 N 
ATOM     27  H   UNL     1       2.302  39.851  48.347  1.00  0.00     0.170 HD
BRANCH  26  28
ATOM     28  C   UNL     1       3.466  40.020  46.655  1.00  0.00     0.044 A 
ATOM     29  C   UNL     1       4.107  40.965  45.839  1.00  0.00     0.026 A 
ATOM     30  C   UNL     1       3.077  38.793  46.066  1.00  0.00    -0.027 A 
ATOM     31  C   UNL     1       4.373  40.709  44.491  1.00  0.00     0.002 A 
ATOM     32  C   UNL     1       3.349  38.548  44.707  1.00  0.00     0.005 A 
ATOM     33  C   UNL     1       3.992  39.501  43.924  1.00  0.00     0.000 A 
ATOM     34  C   UNL     1       2.348  37.729  46.846  1.00  0.00     0.046 C 
ENDBRANCH  26  28
ENDBRANCH  21  26
ENDBRANCH  16  17
ENDBRANCH   5  16
TORSDOF 8
ENDMDL
MODEL 4
REMARK VINA RESULT:    -9.043      3.441      8.553
REMARK INTER + INTRA:         -13.906
REMARK INTER:                 -13.177
REMARK INTRA:                  -0.729
REMARK UNBOUND:                -0.899
REMARK SMILES CCOc1ccc(C2CCC[NH+]2Cc2nc(N)nc(Nc3ccccc3C)n2)cc1
REMARK SMILES IDX 8 1 9 2 10 3 11 4 12 5 7 7 4 8 5 9 30 10 6 11 29 12 3 13
REMARK SMILES IDX 2 14 1 15 13 16 14 17 15 18 28 19 16 20 19 21 18 22 17 23
REMARK SMILES IDX 20 26 21 28 22 29 26 30 23 31 25 32 24 33 27 34
REMARK H PARENT 12 6 17 24 17 25 20 27
ROOT
ATOM      1  C   UNL     1       2.667  44.347  53.464  1.00  0.00     0.215 C 
ATOM      2  C   UNL     1       3.078  45.568  52.642  1.00  0.00     0.076 C 
ATOM      3  C   UNL     1       2.352  45.412  51.317  1.00  0.00     0.068 C 
ATOM      4  C   UNL     1       2.276  43.916  51.075  1.00  0.00     0.263 C 
ATOM      5  N   UNL     1       2.575  43.259  52.397  1.00  0.00    -0.322 N 
ATOM      6  H   UNL     1       1.790  42.643  52.664  1.00  0.00     0.349 HD
ENDROOT
BRANCH   1   7
ATOM      7  C   UNL     1       1.383  44.437  54.268  1.00  0.00     0.010 A 
ATOM      8  C   UNL     1      -0.918  44.624  55.919  1.00  0.00     0.119 A 
ATOM      9  C   UNL     1       0.240  45.312  56.253  1.00  0.00     0.047 A 
ATOM     10  C   UNL     1      -0.928  43.846  54.763  1.00  0.00     0.047 A 
ATOM     11  C   UNL     1       1.371  45.227  55.432  1.00  0.00     0.014 A 
ATOM     12  C   UNL     1       0.203  43.758  53.941  1.00  0.00     0.014 A 
BRANCH   8  13
ATOM     13  O   UNL     1      -2.079  44.605  56.634  1.00  0.00    -0.494 OA
BRANCH  13  14
ATOM     14  C   UNL     1      -2.846  43.403  56.653  1.00  0.00     0.226 C 
ATOM     15  C   UNL     1      -3.244  43.046  58.072  1.00  0.00     0.049 C 
ENDBRANCH  13  14
ENDBRANCH   8  13
ENDBRANCH   1   7
BRANCH   5  16
ATOM     16  C   UNL     1       3.793  42.339  52.342  1.00  0.00     0.341 C 
BRANCH  16  17
ATOM     17  C   UNL     1       4.812  42.717  51.290  1.00  0.00     0.190 A 
ATOM     18  N   UNL     1       4.997  41.898  50.262  1.00  0.00    -0.192 NA
ATOM     19  N   UNL     1       5.445  43.877  51.471  1.00  0.00    -0.191 NA
ATOM     20  C   UNL     1       5.883  42.316  49.373  1.00  0.00     0.225 A 
ATOM     21  C   UNL     1       6.324  44.206  50.526  1.00  0.00     0.232 A 
ATOM     22  N   UNL     1       6.563  43.447  49.463  1.00  0.00    -0.177 NA
BRANCH  20  23
ATOM     23  N   UNL     1       6.117  41.517  48.279  1.00  0.00    -0.368 N 
ATOM     24  H   UNL     1       6.871  41.850  47.694  1.00  0.00     0.159 HD
ATOM     25  H   UNL     1       5.259  41.247  47.813  1.00  0.00     0.159 HD
ENDBRANCH  20  23
BRANCH  21  26
ATOM     26  N   UNL     1       6.996  45.421  50.553  1.00  0.00    -0.324 N 
ATOM     27  H   UNL     1       6.753  45.951  49.726  1.00  0.00     0.170 HD
BRANCH  26  28
ATOM     28  C   UNL     1       8.000  45.967  51.367  1.00  0.00     0.044 A 
ATOM     29  C   UNL     1       9.357  45.652  51.198  1.00  0.00     0.026 A 
ATOM     30  C   UNL     1       7.648  46.816  52.444  1.00  0.00    -0.027 A 
ATOM     31  C   UNL     1      10.340  46.165  52.049  1.00  0.00     0.002 A 
ATOM     32  C   UNL     1       8.646  47.324  53.295  1.00  0.00     0.005 A 
ATOM     33  C   UNL     1       9.985  47.000  53.099  1.00  0.00     0.000 A 
ATOM     34  C   UNL     1       6.215  47.183  52.735  1.00  0.00     0.046 C 
ENDBRANCH  26  28
ENDBRANCH  21  26
ENDBRANCH  16  17
ENDBRANCH   5  16
TORSDOF 8
ENDMDL
MODEL 5
REMARK VINA RESULT:    -8.945      3.208      8.334
REMARK INTER + INTRA:         -13.765
REMARK INTER:                 -13.174
REMARK INTRA:                  -0.591
REMARK UNBOUND:                -0.899
REMARK SMILES CCOc1ccc(C2CCC[NH+]2Cc2nc(N)nc(Nc3ccccc3C)n2)cc1
REMARK SMILES IDX 8 1 9 2 10 3 11 4 12 5 7 7 4 8 5 9 30 10 6 11 29 12 3 13
REMARK SMILES IDX 2 14 1 15 13 16 14 17 15 18 28 19 16 20 19 21 18 22 17 23
REMARK SMILES IDX 20 26 21 28 22 29 26 30 23 31 25 32 24 33 27 34
REMARK H PARENT 12 6 17 24 17 25 20 27
ROOT
ATOM      1  C   UNL     1       2.887  44.708  53.777  1.00  0.00     0.215 C 
ATOM      2  C   UNL     1       3.425  46.018  53.199  1.00  0.00     0.076 C 
ATOM      3  C   UNL     1       2.748  46.157  51.847  1.00  0.00     0.068 C 
ATOM      4  C   UNL     1       2.570  44.739  51.339  1.00  0.00     0.263 C 
ATOM      5  N   UNL     1       2.760  43.837  52.530  1.00  0.00    -0.322 N 
ATOM      6  H   UNL     1       1.920  43.250  52.659  1.00  0.00     0.349 HD
ENDROOT
BRANCH   1   7
ATOM      7  C   UNL     1       1.580  44.760  54.546  1.00  0.00     0.010 A 
ATOM      8  C   UNL     1      -0.771  44.845  56.135  1.00  0.00     0.119 A 
ATOM      9  C   UNL     1       0.417  45.381  56.613  1.00  0.00     0.047 A 
ATOM     10  C   UNL     1      -0.785  44.270  54.866  1.00  0.00     0.047 A 
ATOM     11  C   UNL     1       1.573  45.349  55.824  1.00  0.00     0.014 A 
ATOM     12  C   UNL     1       0.370  44.234  54.076  1.00  0.00     0.014 A 
BRANCH   8  13
ATOM     13  O   UNL     1      -1.959  44.795  56.802  1.00  0.00    -0.494 OA
BRANCH  13  14
ATOM     14  C   UNL     1      -2.960  43.890  56.340  1.00  0.00     0.226 C 
ATOM     15  C   UNL     1      -3.202  42.795  57.362  1.00  0.00     0.049 C 
ENDBRANCH  13  14
ENDBRANCH   8  13
ENDBRANCH   1   7
BRANCH   5  16
ATOM     16  C   UNL     1       3.906  42.844  52.347  1.00  0.00     0.341 C 
BRANCH  16  17
ATOM     17  C   UNL     1       5.023  43.340  51.455  1.00  0.00     0.190 A 
ATOM     18  N   UNL     1       5.273  42.683  50.329  1.00  0.00    -0.192 NA
ATOM     19  N   UNL     1       5.669  44.430  51.868  1.00  0.00    -0.191 NA
ATOM     20  C   UNL     1       6.244  43.197  49.592  1.00  0.00     0.225 A 
ATOM     21  C   UNL     1       6.635  44.866  51.062  1.00  0.00     0.232 A 
ATOM     22  N   UNL     1       6.944  44.273  49.915  1.00  0.00    -0.177 NA
BRANCH  20  23
ATOM     23  N   UNL     1       6.550  42.570  48.407  1.00  0.00    -0.368 N 
ATOM     24  H   UNL     1       5.890  42.767  47.668  1.00  0.00     0.159 HD
ATOM     25  H   UNL     1       6.809  41.601  48.545  1.00  0.00     0.159 HD
ENDBRANCH  20  23
BRANCH  21  26
ATOM     26  N   UNL     1       7.336  46.033  51.335  1.00  0.00    -0.324 N 
ATOM     27  H   UNL     1       7.386  46.593  50.493  1.00  0.00     0.170 HD
BRANCH  26  28
ATOM     28  C   UNL     1       8.075  46.498  52.433  1.00  0.00     0.044 A 
ATOM     29  C   UNL     1       7.474  47.156  53.517  1.00  0.00     0.026 A 
ATOM     30  C   UNL     1       9.485  46.368  52.438  1.00  0.00    -0.027 A 
ATOM     31  C   UNL     1       8.229  47.658  54.581  1.00  0.00     0.002 A 
ATOM     32  C   UNL     1      10.234  46.879  53.514  1.00  0.00     0.005 A 
ATOM     33  C   UNL     1       9.610  47.522  54.578  1.00  0.00     0.000 A 
ATOM     34  C   UNL     1      10.230  45.712  51.304  1.00  0.00     0.046 C 
ENDBRANCH  26  28
ENDBRANCH  21  26
ENDBRANCH  16  17
ENDBRANCH   5  16
TORSDOF 8
ENDMDL
MODEL 6
REMARK VINA RESULT:    -8.939      1.763      2.743
REMARK INTER + INTRA:         -13.757
REMARK INTER:                 -12.256
REMARK INTRA:                  -1.502
REMARK UNBOUND:                -0.899
REMARK SMILES CCOc1ccc(C2CCC[NH+]2Cc2nc(N)nc(Nc3ccccc3C)n2)cc1
REMARK SMILES IDX 8 1 9 2 10 3 11 4 12 5 7 7 4 8 5 9 30 10 6 11 29 12 3 13
REMARK SMILES IDX 2 14 1 15 13 16 14 17 15 18 28 19 16 20 19 21 18 22 17 23
REMARK SMILES IDX 20 26 21 28 22 29 26 30 23 31 25 32 24 33 27 34
REMARK H PARENT 12 6 17 24 17 25 20 27
ROOT
ATOM      1  C   UNL     1       6.663  46.384  51.676  1.00  0.00     0.215 C 
ATOM      2  C   UNL     1       7.971  47.172  51.604  1.00  0.00     0.076 C 
ATOM      3  C   UNL     1       8.823  46.624  52.735  1.00  0.00     0.068 C 
ATOM      4  C   UNL     1       7.843  46.247  53.830  1.00  0.00     0.263 C 
ATOM      5  N   UNL     1       6.484  46.200  53.181  1.00  0.00    -0.322 N 
ATOM      6  H   UNL     1       6.064  45.266  53.321  1.00  0.00     0.349 HD
ENDROOT
BRANCH   1   7
ATOM      7  C   UNL     1       6.600  45.053  50.949  1.00  0.00     0.010 A 
ATOM      8  C   UNL     1       6.560  42.643  49.449  1.00  0.00     0.119 A 
ATOM      9  C   UNL     1       7.586  43.562  49.271  1.00  0.00     0.047 A 
ATOM     10  C   UNL     1       5.559  42.927  50.375  1.00  0.00     0.047 A 
ATOM     11  C   UNL     1       7.610  44.745  50.019  1.00  0.00     0.014 A 
ATOM     12  C   UNL     1       5.580  44.110  51.123  1.00  0.00     0.014 A 
BRANCH   8  13
ATOM     13  O   UNL     1       6.407  41.466  48.779  1.00  0.00    -0.494 OA
BRANCH  13  14
ATOM     14  C   UNL     1       5.232  41.281  47.992  1.00  0.00     0.226 C 
ATOM     15  C   UNL     1       5.482  41.694  46.554  1.00  0.00     0.049 C 
ENDBRANCH  13  14
ENDBRANCH   8  13
ENDBRANCH   1   7
BRANCH   5  16
ATOM     16  C   UNL     1       5.490  47.173  53.811  1.00  0.00     0.341 C 
BRANCH  16  17
ATOM     17  C   UNL     1       4.108  46.597  54.029  1.00  0.00     0.190 A 
ATOM     18  N   UNL     1       3.724  46.320  55.268  1.00  0.00    -0.192 NA
ATOM     19  N   UNL     1       3.361  46.425  52.937  1.00  0.00    -0.191 NA
ATOM     20  C   UNL     1       2.493  45.849  55.375  1.00  0.00     0.225 A 
ATOM     21  C   UNL     1       2.140  45.938  53.146  1.00  0.00     0.232 A 
ATOM     22  N   UNL     1       1.675  45.642  54.355  1.00  0.00    -0.177 NA
BRANCH  20  23
ATOM     23  N   UNL     1       2.029  45.548  56.634  1.00  0.00    -0.368 N 
ATOM     24  H   UNL     1       2.364  46.181  57.346  1.00  0.00     0.159 HD
ATOM     25  H   UNL     1       2.087  44.557  56.835  1.00  0.00     0.159 HD
ENDBRANCH  20  23
BRANCH  21  26
ATOM     26  N   UNL     1       1.233  45.782  52.107  1.00  0.00    -0.324 N 
ATOM     27  H   UNL     1       1.386  46.510  51.422  1.00  0.00     0.170 HD
BRANCH  26  28
ATOM     28  C   UNL     1       0.115  44.959  51.897  1.00  0.00     0.044 A 
ATOM     29  C   UNL     1      -1.184  45.358  52.244  1.00  0.00     0.026 A 
ATOM     30  C   UNL     1       0.290  43.653  51.380  1.00  0.00    -0.027 A 
ATOM     31  C   UNL     1      -2.282  44.509  52.076  1.00  0.00     0.002 A 
ATOM     32  C   UNL     1      -0.822  42.806  51.217  1.00  0.00     0.005 A 
ATOM     33  C   UNL     1      -2.100  43.231  51.565  1.00  0.00     0.000 A 
ATOM     34  C   UNL     1       1.650  43.115  51.013  1.00  0.00     0.046 C 
ENDBRANCH  26  28
ENDBRANCH  21  26
ENDBRANCH  16  17
ENDBRANCH   5  16
TORSDOF 8
ENDMDL
MODEL 7
REMARK VINA RESULT:    -8.589      3.335      9.065
REMARK INTER + INTRA:         -13.253
REMARK INTER:                 -12.346
REMARK INTRA:                  -0.907
REMARK UNBOUND:                -0.899
REMARK SMILES CCOc1ccc(C2CCC[NH+]2Cc2nc(N)nc(Nc3ccccc3C)n2)cc1
REMARK SMILES IDX 8 1 9 2 10 3 11 4 12 5 7 7 4 8 5 9 30 10 6 11 29 12 3 13
REMARK SMILES IDX 2 14 1 15 13 16 14 17 15 18 28 19 16 20 19 21 18 22 17 23
REMARK SMILES IDX 20 26 21 28 22 29 26 30 23 31 25 32 24 33 27 34
REMARK H PARENT 12 6 17 24 17 25 20 27
ROOT
ATOM      1  C   UNL     1      -0.130  44.339  53.383  1.00  0.00     0.215 C 
ATOM      2  C   UNL     1      -0.804  42.992  53.123  1.00  0.00     0.076 C 
ATOM      3  C   UNL     1       0.202  41.954  53.587  1.00  0.00     0.068 C 
ATOM      4  C   UNL     1       1.564  42.559  53.303  1.00  0.00     0.263 C 
ATOM      5  N   UNL     1       1.332  44.030  53.075  1.00  0.00    -0.322 N 
ATOM      6  H   UNL     1       1.901  44.578  53.741  1.00  0.00     0.349 HD
ENDROOT
BRANCH   1   7
ATOM      7  C   UNL     1      -0.283  44.950  54.764  1.00  0.00     0.010 A 
ATOM      8  C   UNL     1      -0.717  46.174  57.288  1.00  0.00     0.119 A 
ATOM      9  C   UNL     1      -1.795  45.825  56.485  1.00  0.00     0.047 A 
ATOM     10  C   UNL     1       0.573  45.911  56.833  1.00  0.00     0.047 A 
ATOM     11  C   UNL     1      -1.579  45.212  55.245  1.00  0.00     0.014 A 
ATOM     12  C   UNL     1       0.791  45.299  55.592  1.00  0.00     0.014 A 
BRANCH   8  13
ATOM     13  O   UNL     1      -0.783  46.789  58.503  1.00  0.00    -0.494 OA
BRANCH  13  14
ATOM     14  C   UNL     1       0.342  47.545  58.945  1.00  0.00     0.226 C 
ATOM     15  C   UNL     1       0.144  48.013  60.373  1.00  0.00     0.049 C 
ENDBRANCH  13  14
ENDBRANCH   8  13
ENDBRANCH   1   7
BRANCH   5  16
ATOM     16  C   UNL     1       1.789  44.497  51.695  1.00  0.00     0.341 C 
BRANCH  16  17
ATOM     17  C   UNL     1       3.278  44.377  51.458  1.00  0.00     0.190 A 
ATOM     18  N   UNL     1       3.759  43.219  51.022  1.00  0.00    -0.192 NA
ATOM     19  N   UNL     1       4.004  45.470  51.693  1.00  0.00    -0.191 NA
ATOM     20  C   UNL     1       5.065  43.205  50.812  1.00  0.00     0.225 A 
ATOM     21  C   UNL     1       5.310  45.355  51.460  1.00  0.00     0.232 A 
ATOM     22  N   UNL     1       5.870  44.235  51.016  1.00  0.00    -0.177 NA
BRANCH  20  23
ATOM     23  N   UNL     1       5.628  42.038  50.353  1.00  0.00    -0.368 N 
ATOM     24  H   UNL     1       6.626  41.989  50.501  1.00  0.00     0.159 HD
ATOM     25  H   UNL     1       5.286  41.786  49.434  1.00  0.00     0.159 HD
ENDBRANCH  20  23
BRANCH  21  26
ATOM     26  N   UNL     1       6.169  46.438  51.590  1.00  0.00    -0.324 N 
ATOM     27  H   UNL     1       5.851  47.186  50.988  1.00  0.00     0.170 HD
BRANCH  26  28
ATOM     28  C   UNL     1       7.399  46.640  52.235  1.00  0.00     0.044 A 
ATOM     29  C   UNL     1       8.619  46.624  51.543  1.00  0.00     0.026 A 
ATOM     30  C   UNL     1       7.438  46.802  53.641  1.00  0.00    -0.027 A 
ATOM     31  C   UNL     1       9.840  46.777  52.206  1.00  0.00     0.002 A 
ATOM     32  C   UNL     1       8.673  46.953  54.297  1.00  0.00     0.005 A 
ATOM     33  C   UNL     1       9.868  46.939  53.584  1.00  0.00     0.000 A 
ATOM     34  C   UNL     1       6.186  46.794  54.480  1.00  0.00     0.046 C 
ENDBRANCH  26  28
ENDBRANCH  21  26
ENDBRANCH  16  17
ENDBRANCH   5  16
TORSDOF 8
ENDMDL
MODEL 8
REMARK VINA RESULT:    -8.493      2.749      7.911
REMARK INTER + INTRA:         -13.115
REMARK INTER:                 -12.315
REMARK INTRA:                  -0.800
REMARK UNBOUND:                -0.899
REMARK SMILES CCOc1ccc(C2CCC[NH+]2Cc2nc(N)nc(Nc3ccccc3C)n2)cc1
REMARK SMILES IDX 8 1 9 2 10 3 11 4 12 5 7 7 4 8 5 9 30 10 6 11 29 12 3 13
REMARK SMILES IDX 2 14 1 15 13 16 14 17 15 18 28 19 16 20 19 21 18 22 17 23
REMARK SMILES IDX 20 26 21 28 22 29 26 30 23 31 25 32 24 33 27 34
REMARK H PARENT 12 6 17 24 17 25 20 27
ROOT
ATOM      1  C   UNL     1       2.654  45.794  54.105  1.00  0.00     0.215 C 
ATOM      2  C   UNL     1       3.229  44.637  53.287  1.00  0.00     0.076 C 
ATOM      3  C   UNL     1       4.219  43.955  54.214  1.00  0.00     0.068 C 
ATOM      4  C   UNL     1       4.792  45.064  55.076  1.00  0.00     0.263 C 
ATOM      5  N   UNL     1       3.865  46.241  54.920  1.00  0.00    -0.322 N 
ATOM      6  H   UNL     1       3.512  46.530  55.848  1.00  0.00     0.349 HD
ENDROOT
BRANCH   1   7
ATOM      7  C   UNL     1       1.465  45.502  55.002  1.00  0.00     0.010 A 
ATOM      8  C   UNL     1      -0.643  44.926  56.813  1.00  0.00     0.119 A 
ATOM      9  C   UNL     1       0.531  45.509  57.269  1.00  0.00     0.047 A 
ATOM     10  C   UNL     1      -0.765  44.633  55.456  1.00  0.00     0.047 A 
ATOM     11  C   UNL     1       1.566  45.803  56.373  1.00  0.00     0.014 A 
ATOM     12  C   UNL     1       0.270  44.924  54.558  1.00  0.00     0.014 A 
BRANCH   8  13
ATOM     13  O   UNL     1      -1.717  44.573  57.575  1.00  0.00    -0.494 OA
BRANCH  13  14
ATOM     14  C   UNL     1      -2.523  43.477  57.148  1.00  0.00     0.226 C 
ATOM     15  C   UNL     1      -3.403  42.988  58.283  1.00  0.00     0.049 C 
ENDBRANCH  13  14
ENDBRANCH   8  13
ENDBRANCH   1   7
BRANCH   5  16
ATOM     16  C   UNL     1       4.564  47.480  54.366  1.00  0.00     0.341 C 
BRANCH  16  17
ATOM     17  C   UNL     1       5.845  47.189  53.616  1.00  0.00     0.190 A 
ATOM     18  N   UNL     1       6.997  47.566  54.157  1.00  0.00    -0.192 NA
ATOM     19  N   UNL     1       5.716  46.546  52.454  1.00  0.00    -0.191 NA
ATOM     20  C   UNL     1       8.070  47.248  53.452  1.00  0.00     0.225 A 
ATOM     21  C   UNL     1       6.854  46.278  51.816  1.00  0.00     0.232 A 
ATOM     22  N   UNL     1       8.048  46.614  52.291  1.00  0.00    -0.177 NA
BRANCH  20  23
ATOM     23  N   UNL     1       9.298  47.604  53.960  1.00  0.00    -0.368 N 
ATOM     24  H   UNL     1      10.072  47.291  53.391  1.00  0.00     0.159 HD
ATOM     25  H   UNL     1       9.361  47.435  54.957  1.00  0.00     0.159 HD
ENDBRANCH  20  23
BRANCH  21  26
ATOM     26  N   UNL     1       6.868  45.548  50.635  1.00  0.00    -0.324 N 
ATOM     27  H   UNL     1       7.098  46.165  49.868  1.00  0.00     0.170 HD
BRANCH  26  28
ATOM     28  C   UNL     1       6.503  44.238  50.289  1.00  0.00     0.044 A 
ATOM     29  C   UNL     1       5.342  43.627  50.786  1.00  0.00     0.026 A 
ATOM     30  C   UNL     1       7.356  43.465  49.464  1.00  0.00    -0.027 A 
ATOM     31  C   UNL     1       5.018  42.304  50.472  1.00  0.00     0.002 A 
ATOM     32  C   UNL     1       7.020  42.134  49.157  1.00  0.00     0.005 A 
ATOM     33  C   UNL     1       5.858  41.556  49.659  1.00  0.00     0.000 A 
ATOM     34  C   UNL     1       8.646  44.016  48.912  1.00  0.00     0.046 C 
ENDBRANCH  26  28
ENDBRANCH  21  26
ENDBRANCH  16  17
ENDBRANCH   5  16
TORSDOF 8
ENDMDL
MODEL 9
REMARK VINA RESULT:    -8.369      3.191      9.052
REMARK INTER + INTRA:         -12.937
REMARK INTER:                 -11.769
REMARK INTRA:                  -1.168
REMARK UNBOUND:                -0.899
REMARK SMILES CCOc1ccc(C2CCC[NH+]2Cc2nc(N)nc(Nc3ccccc3C)n2)cc1
REMARK SMILES IDX 8 1 9 2 10 3 11 4 12 5 7 7 4 8 5 9 30 10 6 11 29 12 3 13
REMARK SMILES IDX 2 14 1 15 13 16 14 17 15 18 28 19 16 20 19 21 18 22 17 23
REMARK SMILES IDX 20 26 21 28 22 29 26 30 23 31 25 32 24 33 27 34
REMARK H PARENT 12 6 17 24 17 25 20 27
ROOT
ATOM      1  C   UNL     1      -0.361  44.863  52.653  1.00  0.00     0.215 C 
ATOM      2  C   UNL     1      -1.209  44.227  51.552  1.00  0.00     0.076 C 
ATOM      3  C   UNL     1      -0.831  42.756  51.565  1.00  0.00     0.068 C 
ATOM      4  C   UNL     1       0.632  42.720  51.964  1.00  0.00     0.263 C 
ATOM      5  N   UNL     1       0.942  44.074  52.548  1.00  0.00    -0.322 N 
ATOM      6  H   UNL     1       1.304  43.963  53.510  1.00  0.00     0.349 HD
ENDROOT
BRANCH   1   7
ATOM      7  C   UNL     1      -0.907  44.835  54.070  1.00  0.00     0.010 A 
ATOM      8  C   UNL     1      -2.069  44.875  56.659  1.00  0.00     0.119 A 
ATOM      9  C   UNL     1      -2.876  44.842  55.529  1.00  0.00     0.047 A 
ATOM     10  C   UNL     1      -0.685  44.885  56.495  1.00  0.00     0.047 A 
ATOM     11  C   UNL     1      -2.301  44.812  54.254  1.00  0.00     0.014 A 
ATOM     12  C   UNL     1      -0.108  44.856  55.219  1.00  0.00     0.014 A 
BRANCH   8  13
ATOM     13  O   UNL     1      -2.494  44.924  57.953  1.00  0.00    -0.494 OA
BRANCH  13  14
ATOM     14  C   UNL     1      -3.317  46.015  58.357  1.00  0.00     0.226 C 
ATOM     15  C   UNL     1      -2.556  47.324  58.257  1.00  0.00     0.049 C 
ENDBRANCH  13  14
ENDBRANCH   8  13
ENDBRANCH   1   7
BRANCH   5  16
ATOM     16  C   UNL     1       2.052  44.806  51.796  1.00  0.00     0.341 C 
BRANCH  16  17
ATOM     17  C   UNL     1       3.056  45.501  52.690  1.00  0.00     0.190 A 
ATOM     18  N   UNL     1       2.873  45.457  54.003  1.00  0.00    -0.192 NA
ATOM     19  N   UNL     1       4.077  46.100  52.076  1.00  0.00    -0.191 NA
ATOM     20  C   UNL     1       3.810  46.062  54.714  1.00  0.00     0.225 A 
ATOM     21  C   UNL     1       4.963  46.689  52.877  1.00  0.00     0.232 A 
ATOM     22  N   UNL     1       4.859  46.685  54.201  1.00  0.00    -0.177 NA
BRANCH  20  23
ATOM     23  N   UNL     1       3.685  46.048  56.083  1.00  0.00    -0.368 N 
ATOM     24  H   UNL     1       3.230  45.217  56.435  1.00  0.00     0.159 HD
ATOM     25  H   UNL     1       3.364  46.937  56.446  1.00  0.00     0.159 HD
ENDBRANCH  20  23
BRANCH  21  26
ATOM     26  N   UNL     1       6.112  47.284  52.373  1.00  0.00    -0.324 N 
ATOM     27  H   UNL     1       5.850  48.003  51.712  1.00  0.00     0.170 HD
BRANCH  26  28
ATOM     28  C   UNL     1       7.484  47.006  52.475  1.00  0.00     0.044 A 
ATOM     29  C   UNL     1       8.295  47.582  53.464  1.00  0.00     0.026 A 
ATOM     30  C   UNL     1       8.105  46.170  51.515  1.00  0.00    -0.027 A 
ATOM     31  C   UNL     1       9.670  47.335  53.522  1.00  0.00     0.002 A 
ATOM     32  C   UNL     1       9.490  45.930  51.583  1.00  0.00     0.005 A 
ATOM     33  C   UNL     1      10.268  46.510  52.579  1.00  0.00     0.000 A 
ATOM     34  C   UNL     1       7.330  45.534  50.390  1.00  0.00     0.046 C 
ENDBRANCH  26  28
ENDBRANCH  21  26
ENDBRANCH  16  17
ENDBRANCH   5  16
TORSDOF 8
ENDMDL
MODEL 10
REMARK VINA RESULT:    -8.360      3.290      8.758
REMARK INTER + INTRA:         -12.924
REMARK INTER:                 -12.343
REMARK INTRA:                  -0.581
REMARK UNBOUND:                -0.899
REMARK SMILES CCOc1ccc(C2CCC[NH+]2Cc2nc(N)nc(Nc3ccccc3C)n2)cc1
REMARK SMILES IDX 8 1 9 2 10 3 11 4 12 5 7 7 4 8 5 9 30 10 6 11 29 12 3 13
REMARK SMILES IDX 2 14 1 15 13 16 14 17 15 18 28 19 16 20 19 21 18 22 17 23
REMARK SMILES IDX 20 26 21 28 22 29 26 30 23 31 25 32 24 33 27 34
REMARK H PARENT 12 6 17 24 17 25 20 27
ROOT
ATOM      1  C   UNL     1       2.119  44.639  53.971  1.00  0.00     0.215 C 
ATOM      2  C   UNL     1       3.541  44.962  54.432  1.00  0.00     0.076 C 
ATOM      3  C   UNL     1       3.672  46.467  54.275  1.00  0.00     0.068 C 
ATOM      4  C   UNL     1       2.814  46.822  53.076  1.00  0.00     0.263 C 
ATOM      5  N   UNL     1       1.920  45.635  52.831  1.00  0.00    -0.322 N 
ATOM      6  H   UNL     1       0.930  45.933  52.863  1.00  0.00     0.349 HD
ENDROOT
BRANCH   1   7
ATOM      7  C   UNL     1       1.004  44.746  54.995  1.00  0.00     0.010 A 
ATOM      8  C   UNL     1      -1.197  44.965  56.774  1.00  0.00     0.119 A 
ATOM      9  C   UNL     1      -1.364  44.389  55.521  1.00  0.00     0.047 A 
ATOM     10  C   UNL     1       0.066  45.428  57.137  1.00  0.00     0.047 A 
ATOM     11  C   UNL     1      -0.275  44.272  54.649  1.00  0.00     0.014 A 
ATOM     12  C   UNL     1       1.156  45.314  56.266  1.00  0.00     0.014 A 
BRANCH   8  13
ATOM     13  O   UNL     1      -2.170  45.156  57.709  1.00  0.00    -0.494 OA
BRANCH  13  14
ATOM     14  C   UNL     1      -2.930  46.361  57.664  1.00  0.00     0.226 C 
ATOM     15  C   UNL     1      -2.672  47.203  58.899  1.00  0.00     0.049 C 
ENDBRANCH  13  14
ENDBRANCH   8  13
ENDBRANCH   1   7
BRANCH   5  16
ATOM     16  C   UNL     1       2.101  45.031  51.440  1.00  0.00     0.341 C 
BRANCH  16  17
ATOM     17  C   UNL     1       3.483  44.474  51.179  1.00  0.00     0.190 A 
ATOM     18  N   UNL     1       3.636  43.157  51.122  1.00  0.00    -0.192 NA
ATOM     19  N   UNL     1       4.457  45.368  51.005  1.00  0.00    -0.191 NA
ATOM     20  C   UNL     1       4.868  42.753  50.860  1.00  0.00     0.225 A 
ATOM     21  C   UNL     1       5.663  44.864  50.755  1.00  0.00     0.232 A 
ATOM     22  N   UNL     1       5.901  43.560  50.673  1.00  0.00    -0.177 NA
BRANCH  20  23
ATOM     23  N   UNL     1       5.095  41.399  50.779  1.00  0.00    -0.368 N 
ATOM     24  H   UNL     1       5.673  41.045  51.528  1.00  0.00     0.159 HD
ATOM     25  H   UNL     1       5.331  41.108  49.839  1.00  0.00     0.159 HD
ENDBRANCH  20  23
BRANCH  21  26
ATOM     26  N   UNL     1       6.750  45.684  50.480  1.00  0.00    -0.324 N 
ATOM     27  H   UNL     1       6.684  46.010  49.524  1.00  0.00     0.170 HD
BRANCH  26  28
ATOM     28  C   UNL     1       7.929  46.011  51.167  1.00  0.00     0.044 A 
ATOM     29  C   UNL     1       9.165  45.425  50.855  1.00  0.00     0.026 A 
ATOM     30  C   UNL     1       7.880  46.911  52.259  1.00  0.00    -0.027 A 
ATOM     31  C   UNL     1      10.322  45.723  51.582  1.00  0.00     0.002 A 
ATOM     32  C   UNL     1       9.050  47.202  52.983  1.00  0.00     0.005 A 
ATOM     33  C   UNL     1      10.264  46.611  52.647  1.00  0.00     0.000 A 
ATOM     34  C   UNL     1       6.594  47.563  52.698  1.00  0.00     0.046 C 
ENDBRANCH  26  28
ENDBRANCH  21  26
ENDBRANCH  16  17
ENDBRANCH   5  16
TORSDOF 8
ENDMDL
