MODEL 1
REMARK VINA RESULT:    -9.761      0.000      0.000
REMARK INTER + INTRA:         -13.783
REMARK INTER:                 -12.614
REMARK INTRA:                  -1.169
REMARK UNBOUND:                -1.169
REMARK SMILES c1ccc(-c2noc(NCC3CCN(c4ccccc4)C3)n2)cc1
REMARK SMILES IDX 9 1 8 3 5 4 6 5 22 6 7 7 4 8 1 9 2 10 24 11 3 12 23 13 10 14
REMARK SMILES IDX 11 15 12 16 21 17 13 18 14 19 15 20 16 21 20 22 17 23 19 24
REMARK SMILES IDX 18 25
REMARK H PARENT 9 2
ROOT
ATOM      1  N   UNL     1       3.272  44.914  54.919  1.00  0.00    -0.337 N 
ATOM      2  H   UNL     1       3.425  43.935  55.131  1.00  0.00     0.165 HD
ENDROOT
BRANCH   1   3
ATOM      3  C   UNL     1       4.344  45.672  54.640  1.00  0.00     0.321 A 
ATOM      4  C   UNL     1       6.176  46.541  54.090  1.00  0.00     0.204 A 
ATOM      5  N   UNL     1       5.481  47.571  54.602  1.00  0.00    -0.055 NA
ATOM      6  N   UNL     1       5.493  45.343  54.109  1.00  0.00    -0.171 NA
ATOM      7  O   UNL     1       4.263  46.995  54.963  1.00  0.00    -0.315 OA
BRANCH   4   8
ATOM      8  C   UNL     1       7.534  46.653  53.566  1.00  0.00     0.023 A 
ATOM      9  C   UNL     1      10.141  46.860  52.537  1.00  0.00     0.000 A 
ATOM     10  C   UNL     1       9.881  47.220  53.858  1.00  0.00     0.001 A 
ATOM     11  C   UNL     1       9.106  46.398  51.726  1.00  0.00     0.001 A 
ATOM     12  C   UNL     1       8.585  47.118  54.371  1.00  0.00     0.012 A 
ATOM     13  C   UNL     1       7.809  46.295  52.238  1.00  0.00     0.012 A 
ENDBRANCH   4   8
ENDBRANCH   1   3
BRANCH   1  14
ATOM     14  C   UNL     1       1.965  45.282  54.401  1.00  0.00     0.123 C 
BRANCH  14  15
ATOM     15  C   UNL     1       1.378  44.179  53.508  1.00  0.00     0.029 C 
ATOM     16  C   UNL     1       0.859  44.699  52.167  1.00  0.00     0.028 C 
ATOM     17  C   UNL     1       2.471  43.199  53.067  1.00  0.00     0.122 C 
ATOM     18  C   UNL     1       2.109  44.801  51.294  1.00  0.00     0.117 C 
ATOM     19  N   UNL     1       3.019  43.804  51.855  1.00  0.00    -0.371 N 
BRANCH  19  20
ATOM     20  C   UNL     1       4.131  43.333  51.191  1.00  0.00     0.037 A 
ATOM     21  C   UNL     1       4.284  41.972  50.879  1.00  0.00     0.026 A 
ATOM     22  C   UNL     1       5.162  44.188  50.770  1.00  0.00     0.026 A 
ATOM     23  C   UNL     1       5.407  41.487  50.196  1.00  0.00     0.002 A 
ATOM     24  C   UNL     1       6.290  43.713  50.087  1.00  0.00     0.002 A 
ATOM     25  C   UNL     1       6.413  42.359  49.800  1.00  0.00     0.000 A 
ENDBRANCH  19  20
ENDBRANCH  14  15
ENDBRANCH   1  14
TORSDOF 5
ENDMDL
MODEL 2
REMARK VINA RESULT:    -8.478      3.693      8.135
REMARK INTER + INTRA:         -12.125
REMARK INTER:                 -11.517
REMARK INTRA:                  -0.609
REMARK UNBOUND:                -1.169
REMARK SMILES c1ccc(-c2noc(NCC3CCN(c4ccccc4)C3)n2)cc1
REMARK SMILES IDX 9 1 8 3 5 4 6 5 22 6 7 7 4 8 1 9 2 10 24 11 3 12 23 13 10 14
REMARK SMILES IDX 11 15 12 16 21 17 13 18 14 19 15 20 16 21 20 22 17 23 19 24
REMARK SMILES IDX 18 25
REMARK H PARENT 9 2
ROOT
ATOM      1  N   UNL     1       5.587  42.251  50.591  1.00  0.00    -0.337 N 
ATOM      2  H   UNL     1       6.412  41.854  51.024  1.00  0.00     0.165 HD
ENDROOT
BRANCH   1   3
ATOM      3  C   UNL     1       4.830  41.448  49.827  1.00  0.00     0.321 A 
ATOM      4  C   UNL     1       3.835  40.338  48.347  1.00  0.00     0.204 A 
ATOM      5  N   UNL     1       3.209  39.980  49.481  1.00  0.00    -0.055 NA
ATOM      6  N   UNL     1       4.845  41.258  48.533  1.00  0.00    -0.171 NA
ATOM      7  O   UNL     1       3.873  40.715  50.464  1.00  0.00    -0.315 OA
BRANCH   4   8
ATOM      8  C   UNL     1       3.489  39.820  47.026  1.00  0.00     0.023 A 
ATOM      9  C   UNL     1       2.815  38.804  44.493  1.00  0.00     0.000 A 
ATOM     10  C   UNL     1       3.411  40.059  44.607  1.00  0.00     0.001 A 
ATOM     11  C   UNL     1       2.554  38.053  45.638  1.00  0.00     0.001 A 
ATOM     12  C   UNL     1       3.745  40.566  45.866  1.00  0.00     0.012 A 
ATOM     13  C   UNL     1       2.889  38.559  46.898  1.00  0.00     0.012 A 
ENDBRANCH   4   8
ENDBRANCH   1   3
BRANCH   1  14
ATOM     14  C   UNL     1       4.997  43.413  51.233  1.00  0.00     0.123 C 
BRANCH  14  15
ATOM     15  C   UNL     1       5.337  44.709  50.483  1.00  0.00     0.029 C 
ATOM     16  C   UNL     1       4.560  45.925  50.991  1.00  0.00     0.028 C 
ATOM     17  C   UNL     1       6.788  45.126  50.753  1.00  0.00     0.122 C 
ATOM     18  C   UNL     1       5.339  46.380  52.225  1.00  0.00     0.117 C 
ATOM     19  N   UNL     1       6.705  45.926  51.973  1.00  0.00    -0.371 N 
BRANCH  19  20
ATOM     20  C   UNL     1       7.800  46.394  52.666  1.00  0.00     0.037 A 
ATOM     21  C   UNL     1       9.100  46.306  52.142  1.00  0.00     0.026 A 
ATOM     22  C   UNL     1       7.677  47.004  53.925  1.00  0.00     0.026 A 
ATOM     23  C   UNL     1      10.217  46.787  52.836  1.00  0.00     0.002 A 
ATOM     24  C   UNL     1       8.788  47.488  54.629  1.00  0.00     0.002 A 
ATOM     25  C   UNL     1      10.061  47.378  54.083  1.00  0.00     0.000 A 
ENDBRANCH  19  20
ENDBRANCH  14  15
ENDBRANCH   1  14
TORSDOF 5
ENDMDL
MODEL 3
REMARK VINA RESULT:    -8.416      2.242      6.675
REMARK INTER + INTRA:         -12.045
REMARK INTER:                 -11.270
REMARK INTRA:                  -0.775
REMARK UNBOUND:                -1.169
REMARK SMILES c1ccc(-c2noc(NCC3CCN(c4ccccc4)C3)n2)cc1
REMARK SMILES IDX 9 1 8 3 5 4 6 5 22 6 7 7 4 8 1 9 2 10 24 11 3 12 23 13 10 14
REMARK SMILES IDX 11 15 12 16 21 17 13 18 14 19 15 20 16 21 20 22 17 23 19 24
REMARK SMILES IDX 18 25
REMARK H PARENT 9 2
ROOT
ATOM      1  N   UNL     1       3.184  43.132  51.210  1.00  0.00    -0.337 N 
ATOM      2  H   UNL     1       3.004  42.448  50.486  1.00  0.00     0.165 HD
ENDROOT
BRANCH   1   3
ATOM      3  C   UNL     1       2.265  43.279  52.178  1.00  0.00     0.321 A 
ATOM      4  C   UNL     1       1.038  43.795  53.804  1.00  0.00     0.204 A 
ATOM      5  N   UNL     1       0.447  42.698  53.300  1.00  0.00    -0.055 NA
ATOM      6  N   UNL     1       2.179  44.174  53.128  1.00  0.00    -0.171 NA
ATOM      7  O   UNL     1       1.259  42.359  52.218  1.00  0.00    -0.315 OA
BRANCH   4   8
ATOM      8  C   UNL     1       0.543  44.527  54.966  1.00  0.00     0.023 A 
ATOM      9  C   UNL     1      -0.431  45.936  57.194  1.00  0.00     0.000 A 
ATOM     10  C   UNL     1       0.941  45.754  57.028  1.00  0.00     0.001 A 
ATOM     11  C   UNL     1      -1.320  45.418  56.254  1.00  0.00     0.001 A 
ATOM     12  C   UNL     1       1.426  45.053  55.921  1.00  0.00     0.012 A 
ATOM     13  C   UNL     1      -0.835  44.717  55.145  1.00  0.00     0.012 A 
ENDBRANCH   4   8
ENDBRANCH   1   3
BRANCH   1  14
ATOM     14  C   UNL     1       4.572  43.476  51.466  1.00  0.00     0.123 C 
BRANCH  14  15
ATOM     15  C   UNL     1       5.058  44.598  50.536  1.00  0.00     0.029 C 
ATOM     16  C   UNL     1       4.408  45.951  50.829  1.00  0.00     0.028 C 
ATOM     17  C   UNL     1       6.542  44.899  50.781  1.00  0.00     0.122 C 
ATOM     18  C   UNL     1       5.216  46.510  52.000  1.00  0.00     0.117 C 
ATOM     19  N   UNL     1       6.529  45.883  51.861  1.00  0.00    -0.371 N 
BRANCH  19  20
ATOM     20  C   UNL     1       7.658  46.337  52.506  1.00  0.00     0.037 A 
ATOM     21  C   UNL     1       7.604  46.875  53.803  1.00  0.00     0.026 A 
ATOM     22  C   UNL     1       8.930  46.268  51.915  1.00  0.00     0.026 A 
ATOM     23  C   UNL     1       8.748  47.330  54.469  1.00  0.00     0.002 A 
ATOM     24  C   UNL     1      10.082  46.721  52.573  1.00  0.00     0.002 A 
ATOM     25  C   UNL     1       9.990  47.255  53.853  1.00  0.00     0.000 A 
ENDBRANCH  19  20
ENDBRANCH  14  15
ENDBRANCH   1  14
TORSDOF 5
ENDMDL
MODEL 4
REMARK VINA RESULT:    -8.337      1.532      5.673
REMARK INTER + INTRA:         -11.943
REMARK INTER:                 -11.228
REMARK INTRA:                  -0.715
REMARK UNBOUND:                -1.169
REMARK SMILES c1ccc(-c2noc(NCC3CCN(c4ccccc4)C3)n2)cc1
REMARK SMILES IDX 9 1 8 3 5 4 6 5 22 6 7 7 4 8 1 9 2 10 24 11 3 12 23 13 10 14
REMARK SMILES IDX 11 15 12 16 21 17 13 18 14 19 15 20 16 21 20 22 17 23 19 24
REMARK SMILES IDX 18 25
REMARK H PARENT 9 2
ROOT
ATOM      1  N   UNL     1       2.428  45.258  54.067  1.00  0.00    -0.337 N 
ATOM      2  H   UNL     1       1.525  45.325  54.520  1.00  0.00     0.165 HD
ENDROOT
BRANCH   1   3
ATOM      3  C   UNL     1       2.634  44.235  53.222  1.00  0.00     0.321 A 
ATOM      4  C   UNL     1       3.236  42.842  51.769  1.00  0.00     0.204 A 
ATOM      5  N   UNL     1       2.148  42.273  52.318  1.00  0.00    -0.055 NA
ATOM      6  N   UNL     1       3.556  44.070  52.309  1.00  0.00    -0.171 NA
ATOM      7  O   UNL     1       1.752  43.197  53.285  1.00  0.00    -0.315 OA
BRANCH   4   8
ATOM      8  C   UNL     1       4.016  42.239  50.693  1.00  0.00     0.023 A 
ATOM      9  C   UNL     1       5.536  41.092  48.625  1.00  0.00     0.000 A 
ATOM     10  C   UNL     1       4.230  40.662  48.852  1.00  0.00     0.001 A 
ATOM     11  C   UNL     1       6.088  42.091  49.425  1.00  0.00     0.001 A 
ATOM     12  C   UNL     1       3.473  41.231  49.881  1.00  0.00     0.012 A 
ATOM     13  C   UNL     1       5.332  42.662  50.453  1.00  0.00     0.012 A 
ENDBRANCH   4   8
ENDBRANCH   1   3
BRANCH   1  14
ATOM     14  C   UNL     1       3.187  46.488  53.919  1.00  0.00     0.123 C 
BRANCH  14  15
ATOM     15  C   UNL     1       4.206  46.666  55.054  1.00  0.00     0.029 C 
ATOM     16  C   UNL     1       4.752  45.341  55.590  1.00  0.00     0.028 C 
ATOM     17  C   UNL     1       5.478  47.348  54.538  1.00  0.00     0.122 C 
ATOM     18  C   UNL     1       5.853  44.961  54.601  1.00  0.00     0.117 C 
ATOM     19  N   UNL     1       6.301  46.241  54.055  1.00  0.00    -0.371 N 
BRANCH  19  20
ATOM     20  C   UNL     1       7.486  46.400  53.371  1.00  0.00     0.037 A 
ATOM     21  C   UNL     1       7.574  46.190  51.985  1.00  0.00     0.026 A 
ATOM     22  C   UNL     1       8.668  46.802  54.014  1.00  0.00     0.026 A 
ATOM     23  C   UNL     1       8.772  46.359  51.280  1.00  0.00     0.002 A 
ATOM     24  C   UNL     1       9.873  46.974  53.319  1.00  0.00     0.002 A 
ATOM     25  C   UNL     1       9.925  46.750  51.949  1.00  0.00     0.000 A 
ENDBRANCH  19  20
ENDBRANCH  14  15
ENDBRANCH   1  14
TORSDOF 5
ENDMDL
MODEL 5
REMARK VINA RESULT:    -8.311      2.194      4.576
REMARK INTER + INTRA:         -11.909
REMARK INTER:                 -11.176
REMARK INTRA:                  -0.733
REMARK UNBOUND:                -1.169
REMARK SMILES c1ccc(-c2noc(NCC3CCN(c4ccccc4)C3)n2)cc1
REMARK SMILES IDX 9 1 8 3 5 4 6 5 22 6 7 7 4 8 1 9 2 10 24 11 3 12 23 13 10 14
REMARK SMILES IDX 11 15 12 16 21 17 13 18 14 19 15 20 16 21 20 22 17 23 19 24
REMARK SMILES IDX 18 25
REMARK H PARENT 9 2
ROOT
ATOM      1  N   UNL     1       2.911  46.313  51.687  1.00  0.00    -0.337 N 
ATOM      2  H   UNL     1       2.046  46.736  52.000  1.00  0.00     0.165 HD
ENDROOT
BRANCH   1   3
ATOM      3  C   UNL     1       4.048  46.679  52.301  1.00  0.00     0.321 A 
ATOM      4  C   UNL     1       5.995  47.052  52.996  1.00  0.00     0.204 A 
ATOM      5  N   UNL     1       5.215  47.667  53.901  1.00  0.00    -0.055 NA
ATOM      6  N   UNL     1       5.292  46.421  51.991  1.00  0.00    -0.171 NA
ATOM      7  O   UNL     1       3.923  47.423  53.437  1.00  0.00    -0.315 OA
BRANCH   4   8
ATOM      8  C   UNL     1       7.453  47.031  53.056  1.00  0.00     0.023 A 
ATOM      9  C   UNL     1      10.261  46.998  53.193  1.00  0.00     0.000 A 
ATOM     10  C   UNL     1       9.617  46.751  51.981  1.00  0.00     0.001 A 
ATOM     11  C   UNL     1       9.510  47.261  54.337  1.00  0.00     0.001 A 
ATOM     12  C   UNL     1       8.222  46.767  51.912  1.00  0.00     0.012 A 
ATOM     13  C   UNL     1       8.113  47.277  54.269  1.00  0.00     0.012 A 
ENDBRANCH   4   8
ENDBRANCH   1   3
BRANCH   1  14
ATOM     14  C   UNL     1       2.818  45.014  51.044  1.00  0.00     0.123 C 
BRANCH  14  15
ATOM     15  C   UNL     1       1.400  44.432  51.144  1.00  0.00     0.029 C 
ATOM     16  C   UNL     1       1.374  42.987  51.647  1.00  0.00     0.028 C 
ATOM     17  C   UNL     1       0.592  45.158  52.226  1.00  0.00     0.122 C 
ATOM     18  C   UNL     1       1.478  43.116  53.166  1.00  0.00     0.117 C 
ATOM     19  N   UNL     1       0.911  44.433  53.453  1.00  0.00    -0.371 N 
BRANCH  19  20
ATOM     20  C   UNL     1       0.514  44.830  54.711  1.00  0.00     0.037 A 
ATOM     21  C   UNL     1      -0.825  44.742  55.126  1.00  0.00     0.026 A 
ATOM     22  C   UNL     1       1.427  45.325  55.657  1.00  0.00     0.026 A 
ATOM     23  C   UNL     1      -1.235  45.134  56.406  1.00  0.00     0.002 A 
ATOM     24  C   UNL     1       1.027  45.721  56.941  1.00  0.00     0.002 A 
ATOM     25  C   UNL     1      -0.308  45.627  57.315  1.00  0.00     0.000 A 
ENDBRANCH  19  20
ENDBRANCH  14  15
ENDBRANCH   1  14
TORSDOF 5
ENDMDL
MODEL 6
REMARK VINA RESULT:    -8.063      2.781      4.733
REMARK INTER + INTRA:         -11.589
REMARK INTER:                 -10.678
REMARK INTRA:                  -0.911
REMARK UNBOUND:                -1.169
REMARK SMILES c1ccc(-c2noc(NCC3CCN(c4ccccc4)C3)n2)cc1
REMARK SMILES IDX 9 1 8 3 5 4 6 5 22 6 7 7 4 8 1 9 2 10 24 11 3 12 23 13 10 14
REMARK SMILES IDX 11 15 12 16 21 17 13 18 14 19 15 20 16 21 20 22 17 23 19 24
REMARK SMILES IDX 18 25
REMARK H PARENT 9 2
ROOT
ATOM      1  N   UNL     1       6.707  42.658  48.895  1.00  0.00    -0.337 N 
ATOM      2  H   UNL     1       6.340  42.877  47.976  1.00  0.00     0.165 HD
ENDROOT
BRANCH   1   3
ATOM      3  C   UNL     1       7.534  43.545  49.470  1.00  0.00     0.321 A 
ATOM      4  C   UNL     1       8.532  45.030  50.571  1.00  0.00     0.204 A 
ATOM      5  N   UNL     1       9.469  44.594  49.711  1.00  0.00    -0.055 NA
ATOM      6  N   UNL     1       7.314  44.398  50.437  1.00  0.00    -0.171 NA
ATOM      7  O   UNL     1       8.807  43.606  48.983  1.00  0.00    -0.315 OA
BRANCH   4   8
ATOM      8  C   UNL     1       8.758  46.081  51.558  1.00  0.00     0.023 A 
ATOM      9  C   UNL     1       9.207  48.093  53.470  1.00  0.00     0.000 A 
ATOM     10  C   UNL     1       8.216  48.256  52.503  1.00  0.00     0.001 A 
ATOM     11  C   UNL     1       9.976  46.930  53.487  1.00  0.00     0.001 A 
ATOM     12  C   UNL     1       7.992  47.257  51.552  1.00  0.00     0.012 A 
ATOM     13  C   UNL     1       9.752  45.930  52.536  1.00  0.00     0.012 A 
ENDBRANCH   4   8
ENDBRANCH   1   3
BRANCH   1  14
ATOM     14  C   UNL     1       5.927  41.750  49.718  1.00  0.00     0.123 C 
BRANCH  14  15
ATOM     15  C   UNL     1       4.492  42.258  49.920  1.00  0.00     0.029 C 
ATOM     16  C   UNL     1       3.778  41.601  51.103  1.00  0.00     0.028 C 
ATOM     17  C   UNL     1       4.493  43.735  50.331  1.00  0.00     0.122 C 
ATOM     18  C   UNL     1       4.274  42.381  52.321  1.00  0.00     0.117 C 
ATOM     19  N   UNL     1       4.619  43.697  51.787  1.00  0.00    -0.371 N 
BRANCH  19  20
ATOM     20  C   UNL     1       4.805  44.811  52.576  1.00  0.00     0.037 A 
ATOM     21  C   UNL     1       5.692  44.806  53.665  1.00  0.00     0.026 A 
ATOM     22  C   UNL     1       4.136  46.020  52.325  1.00  0.00     0.026 A 
ATOM     23  C   UNL     1       5.894  45.937  54.466  1.00  0.00     0.002 A 
ATOM     24  C   UNL     1       4.330  47.157  53.121  1.00  0.00     0.002 A 
ATOM     25  C   UNL     1       5.210  47.114  54.195  1.00  0.00     0.000 A 
ENDBRANCH  19  20
ENDBRANCH  14  15
ENDBRANCH   1  14
TORSDOF 5
ENDMDL
MODEL 7
REMARK VINA RESULT:    -8.002      2.347      7.046
REMARK INTER + INTRA:         -11.509
REMARK INTER:                 -10.843
REMARK INTRA:                  -0.666
REMARK UNBOUND:                -1.169
REMARK SMILES c1ccc(-c2noc(NCC3CCN(c4ccccc4)C3)n2)cc1
REMARK SMILES IDX 9 1 8 3 5 4 6 5 22 6 7 7 4 8 1 9 2 10 24 11 3 12 23 13 10 14
REMARK SMILES IDX 11 15 12 16 21 17 13 18 14 19 15 20 16 21 20 22 17 23 19 24
REMARK SMILES IDX 18 25
REMARK H PARENT 9 2
ROOT
ATOM      1  N   UNL     1       3.432  46.511  51.711  1.00  0.00    -0.337 N 
ATOM      2  H   UNL     1       3.514  47.518  51.779  1.00  0.00     0.165 HD
ENDROOT
BRANCH   1   3
ATOM      3  C   UNL     1       2.352  45.929  52.257  1.00  0.00     0.321 A 
ATOM      4  C   UNL     1       0.784  45.167  53.429  1.00  0.00     0.204 A 
ATOM      5  N   UNL     1       0.540  44.658  52.209  1.00  0.00    -0.055 NA
ATOM      6  N   UNL     1       1.913  45.957  53.488  1.00  0.00    -0.171 NA
ATOM      7  O   UNL     1       1.579  45.168  51.430  1.00  0.00    -0.315 OA
BRANCH   4   8
ATOM      8  C   UNL     1      -0.049  44.912  54.600  1.00  0.00     0.023 A 
ATOM      9  C   UNL     1      -1.636  44.431  56.870  1.00  0.00     0.000 A 
ATOM     10  C   UNL     1      -2.077  44.028  55.610  1.00  0.00     0.001 A 
ATOM     11  C   UNL     1      -0.407  45.074  57.002  1.00  0.00     0.001 A 
ATOM     12  C   UNL     1      -1.289  44.267  54.481  1.00  0.00     0.012 A 
ATOM     13  C   UNL     1       0.383  45.313  55.873  1.00  0.00     0.012 A 
ENDBRANCH   4   8
ENDBRANCH   1   3
BRANCH   1  14
ATOM     14  C   UNL     1       4.132  45.862  50.615  1.00  0.00     0.123 C 
BRANCH  14  15
ATOM     15  C   UNL     1       4.980  44.679  51.105  1.00  0.00     0.029 C 
ATOM     16  C   UNL     1       6.106  44.302  50.141  1.00  0.00     0.028 C 
ATOM     17  C   UNL     1       5.758  45.058  52.370  1.00  0.00     0.122 C 
ATOM     18  C   UNL     1       7.223  45.293  50.462  1.00  0.00     0.117 C 
ATOM     19  N   UNL     1       6.992  45.652  51.860  1.00  0.00    -0.371 N 
BRANCH  19  20
ATOM     20  C   UNL     1       7.937  46.268  52.651  1.00  0.00     0.037 A 
ATOM     21  C   UNL     1       9.303  46.248  52.324  1.00  0.00     0.026 A 
ATOM     22  C   UNL     1       7.588  46.970  53.816  1.00  0.00     0.026 A 
ATOM     23  C   UNL     1      10.268  46.881  53.117  1.00  0.00     0.002 A 
ATOM     24  C   UNL     1       8.546  47.606  54.618  1.00  0.00     0.002 A 
ATOM     25  C   UNL     1       9.889  47.559  54.268  1.00  0.00     0.000 A 
ENDBRANCH  19  20
ENDBRANCH  14  15
ENDBRANCH   1  14
TORSDOF 5
ENDMDL
MODEL 8
REMARK VINA RESULT:    -7.867      2.592      5.238
REMARK INTER + INTRA:         -11.336
REMARK INTER:                 -10.719
REMARK INTRA:                  -0.616
REMARK UNBOUND:                -1.169
REMARK SMILES c1ccc(-c2noc(NCC3CCN(c4ccccc4)C3)n2)cc1
REMARK SMILES IDX 9 1 8 3 5 4 6 5 22 6 7 7 4 8 1 9 2 10 24 11 3 12 23 13 10 14
REMARK SMILES IDX 11 15 12 16 21 17 13 18 14 19 15 20 16 21 20 22 17 23 19 24
REMARK SMILES IDX 18 25
REMARK H PARENT 9 2
ROOT
ATOM      1  N   UNL     1       3.277  46.006  50.830  1.00  0.00    -0.337 N 
ATOM      2  H   UNL     1       2.981  46.516  50.006  1.00  0.00     0.165 HD
ENDROOT
BRANCH   1   3
ATOM      3  C   UNL     1       4.594  45.899  51.064  1.00  0.00     0.321 A 
ATOM      4  C   UNL     1       6.603  46.011  51.668  1.00  0.00     0.204 A 
ATOM      5  N   UNL     1       6.612  45.054  50.724  1.00  0.00    -0.055 NA
ATOM      6  N   UNL     1       5.358  46.560  51.894  1.00  0.00    -0.171 NA
ATOM      7  O   UNL     1       5.277  44.977  50.327  1.00  0.00    -0.315 OA
BRANCH   4   8
ATOM      8  C   UNL     1       7.791  46.453  52.393  1.00  0.00     0.023 A 
ATOM      9  C   UNL     1      10.090  47.293  53.774  1.00  0.00     0.000 A 
ATOM     10  C   UNL     1       8.827  47.518  54.319  1.00  0.00     0.001 A 
ATOM     11  C   UNL     1      10.212  46.651  52.543  1.00  0.00     0.001 A 
ATOM     12  C   UNL     1       7.683  47.101  53.633  1.00  0.00     0.012 A 
ATOM     13  C   UNL     1       9.068  46.233  51.856  1.00  0.00     0.012 A 
ENDBRANCH   4   8
ENDBRANCH   1   3
BRANCH   1  14
ATOM     14  C   UNL     1       2.333  45.925  51.932  1.00  0.00     0.123 C 
BRANCH  14  15
ATOM     15  C   UNL     1       2.520  44.635  52.744  1.00  0.00     0.029 C 
ATOM     16  C   UNL     1       3.201  44.864  54.095  1.00  0.00     0.028 C 
ATOM     17  C   UNL     1       1.163  44.060  53.167  1.00  0.00     0.122 C 
ATOM     18  C   UNL     1       2.071  45.331  55.011  1.00  0.00     0.117 C 
ATOM     19  N   UNL     1       0.869  44.739  54.427  1.00  0.00    -0.371 N 
BRANCH  19  20
ATOM     20  C   UNL     1      -0.329  44.634  55.100  1.00  0.00     0.037 A 
ATOM     21  C   UNL     1      -0.487  45.121  56.408  1.00  0.00     0.026 A 
ATOM     22  C   UNL     1      -1.465  44.055  54.511  1.00  0.00     0.026 A 
ATOM     23  C   UNL     1      -1.704  45.027  57.096  1.00  0.00     0.002 A 
ATOM     24  C   UNL     1      -2.687  43.955  55.190  1.00  0.00     0.002 A 
ATOM     25  C   UNL     1      -2.806  44.441  56.487  1.00  0.00     0.000 A 
ENDBRANCH  19  20
ENDBRANCH  14  15
ENDBRANCH   1  14
TORSDOF 5
ENDMDL
MODEL 9
REMARK VINA RESULT:    -7.709      2.136      5.521
REMARK INTER + INTRA:         -11.132
REMARK INTER:                 -10.396
REMARK INTRA:                  -0.735
REMARK UNBOUND:                -1.169
REMARK SMILES c1ccc(-c2noc(NCC3CCN(c4ccccc4)C3)n2)cc1
REMARK SMILES IDX 9 1 8 3 5 4 6 5 22 6 7 7 4 8 1 9 2 10 24 11 3 12 23 13 10 14
REMARK SMILES IDX 11 15 12 16 21 17 13 18 14 19 15 20 16 21 20 22 17 23 19 24
REMARK SMILES IDX 18 25
REMARK H PARENT 9 2
ROOT
ATOM      1  N   UNL     1       6.641  46.587  53.372  1.00  0.00    -0.337 N 
ATOM      2  H   UNL     1       7.418  47.233  53.443  1.00  0.00     0.165 HD
ENDROOT
BRANCH   1   3
ATOM      3  C   UNL     1       6.604  45.762  52.312  1.00  0.00     0.321 A 
ATOM      4  C   UNL     1       6.301  44.279  50.856  1.00  0.00     0.204 A 
ATOM      5  N   UNL     1       7.245  45.065  50.311  1.00  0.00    -0.055 NA
ATOM      6  N   UNL     1       5.889  44.686  52.108  1.00  0.00    -0.171 NA
ATOM      7  O   UNL     1       7.442  46.053  51.276  1.00  0.00    -0.315 OA
BRANCH   4   8
ATOM      8  C   UNL     1       5.755  43.091  50.207  1.00  0.00     0.023 A 
ATOM      9  C   UNL     1       4.717  40.807  48.940  1.00  0.00     0.000 A 
ATOM     10  C   UNL     1       4.140  41.274  50.120  1.00  0.00     0.001 A 
ATOM     11  C   UNL     1       5.810  41.473  48.390  1.00  0.00     0.001 A 
ATOM     12  C   UNL     1       4.655  42.409  50.751  1.00  0.00     0.012 A 
ATOM     13  C   UNL     1       6.326  42.610  49.020  1.00  0.00     0.012 A 
ENDBRANCH   4   8
ENDBRANCH   1   3
BRANCH   1  14
ATOM     14  C   UNL     1       5.975  46.213  54.607  1.00  0.00     0.123 C 
BRANCH  14  15
ATOM     15  C   UNL     1       4.735  47.082  54.868  1.00  0.00     0.029 C 
ATOM     16  C   UNL     1       4.181  47.740  53.603  1.00  0.00     0.028 C 
ATOM     17  C   UNL     1       3.553  46.216  55.319  1.00  0.00     0.122 C 
ATOM     18  C   UNL     1       3.335  46.648  52.951  1.00  0.00     0.117 C 
ATOM     19  N   UNL     1       2.923  45.800  54.068  1.00  0.00    -0.371 N 
BRANCH  19  20
ATOM     20  C   UNL     1       1.896  44.885  53.988  1.00  0.00     0.037 A 
ATOM     21  C   UNL     1       0.638  45.133  54.561  1.00  0.00     0.026 A 
ATOM     22  C   UNL     1       2.039  43.664  53.310  1.00  0.00     0.026 A 
ATOM     23  C   UNL     1      -0.415  44.213  54.476  1.00  0.00     0.002 A 
ATOM     24  C   UNL     1       0.993  42.735  53.219  1.00  0.00     0.002 A 
ATOM     25  C   UNL     1      -0.237  43.010  53.805  1.00  0.00     0.000 A 
ENDBRANCH  19  20
ENDBRANCH  14  15
ENDBRANCH   1  14
TORSDOF 5
ENDMDL
MODEL 10
REMARK VINA RESULT:    -7.699      2.477      6.541
REMARK INTER + INTRA:         -11.118
REMARK INTER:                 -10.342
REMARK INTRA:                  -0.776
REMARK UNBOUND:                -1.169
REMARK SMILES c1ccc(-c2noc(NCC3CCN(c4ccccc4)C3)n2)cc1
REMARK SMILES IDX 9 1 8 3 5 4 6 5 22 6 7 7 4 8 1 9 2 10 24 11 3 12 23 13 10 14
REMARK SMILES IDX 11 15 12 16 21 17 13 18 14 19 15 20 16 21 20 22 17 23 19 24
REMARK SMILES IDX 18 25
REMARK H PARENT 9 2
ROOT
ATOM      1  N   UNL     1       9.580  45.671  50.776  1.00  0.00    -0.337 N 
ATOM      2  H   UNL     1      10.342  45.019  50.630  1.00  0.00     0.165 HD
ENDROOT
BRANCH   1   3
ATOM      3  C   UNL     1       8.327  45.227  50.590  1.00  0.00     0.321 A 
ATOM      4  C   UNL     1       6.275  44.778  50.561  1.00  0.00     0.204 A 
ATOM      5  N   UNL     1       6.800  43.903  49.686  1.00  0.00    -0.055 NA
ATOM      6  N   UNL     1       7.207  45.610  51.145  1.00  0.00    -0.171 NA
ATOM      7  O   UNL     1       8.161  44.205  49.702  1.00  0.00    -0.315 OA
BRANCH   4   8
ATOM      8  C   UNL     1       4.854  44.853  50.887  1.00  0.00     0.023 A 
ATOM      9  C   UNL     1       2.117  44.974  51.516  1.00  0.00     0.000 A 
ATOM     10  C   UNL     1       2.807  46.135  51.174  1.00  0.00     0.001 A 
ATOM     11  C   UNL     1       2.786  43.752  51.547  1.00  0.00     0.001 A 
ATOM     12  C   UNL     1       4.168  46.076  50.861  1.00  0.00     0.012 A 
ATOM     13  C   UNL     1       4.148  43.691  51.233  1.00  0.00     0.012 A 
ENDBRANCH   4   8
ENDBRANCH   1   3
BRANCH   1  14
ATOM     14  C   UNL     1       9.830  46.791  51.667  1.00  0.00     0.123 C 
BRANCH  14  15
ATOM     15  C   UNL     1       9.941  46.338  53.130  1.00  0.00     0.029 C 
ATOM     16  C   UNL     1       9.921  47.498  54.126  1.00  0.00     0.028 C 
ATOM     17  C   UNL     1       8.699  45.541  53.546  1.00  0.00     0.122 C 
ATOM     18  C   UNL     1       8.438  47.825  54.293  1.00  0.00     0.117 C 
ATOM     19  N   UNL     1       7.759  46.564  53.999  1.00  0.00    -0.371 N 
BRANCH  19  20
ATOM     20  C   UNL     1       6.447  46.313  54.335  1.00  0.00     0.037 A 
ATOM     21  C   UNL     1       6.017  45.037  54.734  1.00  0.00     0.026 A 
ATOM     22  C   UNL     1       5.469  47.321  54.319  1.00  0.00     0.026 A 
ATOM     23  C   UNL     1       4.686  44.776  55.086  1.00  0.00     0.002 A 
ATOM     24  C   UNL     1       4.135  47.071  54.668  1.00  0.00     0.002 A 
ATOM     25  C   UNL     1       3.743  45.794  55.051  1.00  0.00     0.000 A 
ENDBRANCH  19  20
ENDBRANCH  14  15
ENDBRANCH   1  14
TORSDOF 5
ENDMDL
