/home/pchatterjee/Documents/git/vs_workflow/DiffDock/diffdock_run/pdbqt_scrubbed/Z1462327436.pdbqt
     RDKit          3D

 23 26  0  0  0  0  0  0  0  0999 V2000
    5.3916   42.7748   50.4734 N   0  0  0  0  0  0  0  0  0  0  0  0
    4.6186   41.9112   49.6661 C   0  0  0  0  0  0  0  0  0  0  0  0
    4.3752   39.9984   48.3125 C   0  0  0  0  0  3  0  0  0  0  0  0
    5.1843   40.8019   49.0902 C   0  0  0  0  0  3  0  0  0  0  0  0
    3.0305   40.3043   48.1198 C   0  0  0  0  0  3  0  0  0  0  0  0
    2.4561   41.4228   48.6994 C   0  0  0  0  0  0  0  0  0  0  0  0
    3.2849   42.2147   49.4751 C   0  0  0  0  0  3  0  0  0  0  0  0
    1.0899   41.7704   48.5282 N   0  0  0  0  0  0  0  0  0  0  0  0
    0.3198   40.9895   47.5787 C   0  0  0  0  0  2  0  0  0  0  0  0
    0.4960   42.8761   49.2876 C   0  0  0  0  0  2  0  0  0  0  0  0
   -1.1447   41.2710   47.8410 C   0  0  0  0  0  2  0  0  0  0  0  0
   -0.7357   42.3972   50.0333 C   0  0  0  0  0  2  0  0  0  0  0  0
   -1.3509   41.1898   49.3477 C   0  0  0  0  0  2  0  0  0  0  0  0
    5.9598   43.9552   49.8531 C   0  0  0  0  0  2  0  0  0  0  0  0
    6.7425   44.7191   50.8584 C   0  0  0  0  0  0  0  0  0  0  0  0
    6.1482   45.2802   51.9898 C   0  0  0  0  0  3  0  0  0  0  0  0
    8.1080   44.8520   50.6204 C   0  0  0  0  0  0  0  0  0  0  0  0
    6.9685   45.9752   52.8682 C   0  0  0  0  0  3  0  0  0  0  0  0
    8.9122   44.4101   49.6165 N   0  0  0  0  0  0  0  0  0  0  0  0
    8.8962   45.5502   51.5149 C   0  0  0  0  0  0  0  0  0  0  0  0
    8.3304   46.1030   52.6229 C   0  0  0  0  0  3  0  0  0  0  0  0
   10.1372   44.8206   49.8865 N   0  0  0  0  0  0  0  0  0  0  0  0
   10.1862   45.5220   51.0348 C   0  0  0  0  0  3  0  0  0  0  0  0
  1 14  1  0
  1  2  1  0
  2  4  1  0
  4  3  2  0
  5  3  1  0
  6  5  2  0
  7  2  2  0
  7  6  1  0
  8  6  1  0
  8  9  1  0
 10  8  1  0
 11  9  1  0
 12 13  1  0
 12 10  1  0
 13 11  1  0
 15 14  1  0
 16 15  2  0
 17 15  1  0
 18 16  1  0
 19 17  1  0
 20 17  2  0
 21 20  1  0
 21 18  2  0
 22 19  1  0
 23 22  2  0
 23 20  1  0
M  RAD  8   3   2   4   2   5   2   7   2   9   3  10   3  11   3  12   3
M  RAD  6  13   3  14   3  16   2  18   2  21   2  23   2
M  END
>  <REMARK>  (1) 
 SMILES c1cc(NCc2cccc3cn[nH]c23)cc(N2CCCCC2)c1
 SMILES IDX 4 1 3 3 1 4 2 5 23 6 16 7 15 8 17 9 18 10 22 11 19 12 21 13
 SMILES IDX 20 14 5 15 6 16 7 17 14 18 8 19 13 20 10 21 9 22 12 23 11 24
 H PARENT 4 2 13 25

>  <TORSDO>  (1) 
F 4

$$$$
