/home/pchatterjee/Documents/git/vs_workflow/DiffDock/diffdock_run/pdbqt_scrubbed/Z1462327436.pdbqt
     RDKit          3D

 23 26  0  0  0  0  0  0  0  0999 V2000
    5.5130   42.4187   49.9320 N   0  0  0  0  0  0  0  0  0  0  0  0
    4.4378   41.6797   49.3910 C   0  0  0  0  0  0  0  0  0  0  0  0
    2.4187   40.4862   49.6133 C   0  0  0  0  0  3  0  0  0  0  0  0
    3.4413   41.2010   50.2035 C   0  0  0  0  0  3  0  0  0  0  0  0
    2.4001   40.2593   48.2396 C   0  0  0  0  0  3  0  0  0  0  0  0
    3.4039   40.7408   47.4164 C   0  0  0  0  0  0  0  0  0  0  0  0
    4.4195   41.4547   48.0285 C   0  0  0  0  0  3  0  0  0  0  0  0
    3.4227   40.5317   46.0120 N   0  0  0  0  0  0  0  0  0  0  0  0
    2.1738   40.7136   45.2967 C   0  0  0  0  0  2  0  0  0  0  0  0
    4.6618   40.1479   45.3268 C   0  0  0  0  0  2  0  0  0  0  0  0
    2.5057   40.8194   43.8230 C   0  0  0  0  0  2  0  0  0  0  0  0
    4.9577   41.1175   44.1977 C   0  0  0  0  0  2  0  0  0  0  0  0
    3.6836   41.7768   43.6995 C   0  0  0  0  0  2  0  0  0  0  0  0
    5.7472   43.7526   49.4152 C   0  0  0  0  0  2  0  0  0  0  0  0
    6.4207   44.5775   50.4509 C   0  0  0  0  0  0  0  0  0  0  0  0
    5.7225   45.1372   51.5220 C   0  0  0  0  0  3  0  0  0  0  0  0
    7.7922   44.7696   50.3049 C   0  0  0  0  0  0  0  0  0  0  0  0
    6.4458   45.8920   52.4356 C   0  0  0  0  0  3  0  0  0  0  0  0
    8.6849   44.3421   49.3722 N   0  0  0  0  0  0  0  0  0  0  0  0
    8.4820   45.5265   51.2323 C   0  0  0  0  0  0  0  0  0  0  0  0
    7.8143   46.0788   52.2824 C   0  0  0  0  0  3  0  0  0  0  0  0
    9.8675   44.8172   49.7153 N   0  0  0  0  0  0  0  0  0  0  0  0
    9.8027   45.5482   50.8441 C   0  0  0  0  0  3  0  0  0  0  0  0
  1 14  1  0
  1  2  1  0
  2  4  1  0
  4  3  2  0
  5  3  1  0
  6  5  2  0
  7  2  2  0
  7  6  1  0
  8  6  1  0
  8  9  1  0
 10  8  1  0
 11  9  1  0
 12 13  1  0
 12 10  1  0
 13 11  1  0
 15 14  1  0
 16 15  2  0
 17 15  1  0
 18 16  1  0
 19 17  1  0
 20 17  2  0
 21 20  1  0
 21 18  2  0
 22 19  1  0
 23 22  2  0
 23 20  1  0
M  RAD  8   3   2   4   2   5   2   7   2   9   3  10   3  11   3  12   3
M  RAD  6  13   3  14   3  16   2  18   2  21   2  23   2
M  END
>  <REMARK>  (1) 
 SMILES c1cc(NCc2cccc3cn[nH]c23)cc(N2CCCCC2)c1
 SMILES IDX 4 1 3 3 1 4 2 5 23 6 16 7 15 8 17 9 18 10 22 11 19 12 21 13
 SMILES IDX 20 14 5 15 6 16 7 17 14 18 8 19 13 20 10 21 9 22 12 23 11 24
 H PARENT 4 2 13 25

>  <TORSDO>  (1) 
F 4

$$$$
