/home/pchatterjee/Documents/git/vs_workflow/DiffDock/diffdock_run/pdbqt_scrubbed/Z1462327436.pdbqt
     RDKit          3D

 23 26  0  0  0  0  0  0  0  0999 V2000
    7.2585   43.0582   49.6311 N   0  0  0  0  0  0  0  0  0  0  0  0
    6.2827   42.2462   49.0120 C   0  0  0  0  0  0  0  0  0  0  0  0
    5.5200   40.9135   47.2251 C   0  0  0  0  0  3  0  0  0  0  0  0
    6.5134   41.6976   47.7758 C   0  0  0  0  0  3  0  0  0  0  0  0
    4.3243   40.6878   47.9022 C   0  0  0  0  0  3  0  0  0  0  0  0
    4.0878   41.2397   49.1497 C   0  0  0  0  0  0  0  0  0  0  0  0
    5.0969   42.0223   49.6836 C   0  0  0  0  0  3  0  0  0  0  0  0
    2.8833   41.0344   49.8733 N   0  0  0  0  0  0  0  0  0  0  0  0
    2.6798   41.8358   51.0652 C   0  0  0  0  0  2  0  0  0  0  0  0
    1.8950   40.0489   49.4216 C   0  0  0  0  0  2  0  0  0  0  0  0
    1.2155   41.7334   51.4369 C   0  0  0  0  0  2  0  0  0  0  0  0
    0.5358   40.7047   49.2640 C   0  0  0  0  0  2  0  0  0  0  0  0
    0.4161   41.9284   50.1555 C   0  0  0  0  0  2  0  0  0  0  0  0
    6.8021   44.1889   50.4147 C   0  0  0  0  0  2  0  0  0  0  0  0
    7.9729   44.9584   50.9087 C   0  0  0  0  0  0  0  0  0  0  0  0
    9.2331   44.8505   50.3186 C   0  0  0  0  0  3  0  0  0  0  0  0
    7.7559   45.8000   51.9966 C   0  0  0  0  0  0  0  0  0  0  0  0
   10.2613   45.6129   50.8563 C   0  0  0  0  0  3  0  0  0  0  0  0
    6.6484   46.0786   52.7354 N   0  0  0  0  0  0  0  0  0  0  0  0
    8.8011   46.5453   52.5075 C   0  0  0  0  0  0  0  0  0  0  0  0
   10.0360   46.4503   51.9421 C   0  0  0  0  0  3  0  0  0  0  0  0
    7.0023   46.9551   53.6564 N   0  0  0  0  0  0  0  0  0  0  0  0
    8.3067   47.2761   53.5642 C   0  0  0  0  0  3  0  0  0  0  0  0
  1 14  1  0
  1  2  1  0
  2  4  1  0
  4  3  2  0
  5  3  1  0
  6  5  2  0
  7  2  2  0
  7  6  1  0
  8  6  1  0
  8  9  1  0
 10  8  1  0
 11  9  1  0
 12 13  1  0
 12 10  1  0
 13 11  1  0
 15 14  1  0
 16 15  2  0
 17 15  1  0
 18 16  1  0
 19 17  1  0
 20 17  2  0
 21 20  1  0
 21 18  2  0
 22 19  1  0
 23 22  2  0
 23 20  1  0
M  RAD  8   3   2   4   2   5   2   7   2   9   3  10   3  11   3  12   3
M  RAD  6  13   3  14   3  16   2  18   2  21   2  23   2
M  END
>  <REMARK>  (1) 
 SMILES c1cc(NCc2cccc3cn[nH]c23)cc(N2CCCCC2)c1
 SMILES IDX 4 1 3 3 1 4 2 5 23 6 16 7 15 8 17 9 18 10 22 11 19 12 21 13
 SMILES IDX 20 14 5 15 6 16 7 17 14 18 8 19 13 20 10 21 9 22 12 23 11 24
 H PARENT 4 2 13 25

>  <TORSDO>  (1) 
F 4

$$$$
