/home/pchatterjee/Documents/git/vs_workflow/DiffDock/diffdock_run/pdbqt_scrubbed/Z1462327436.pdbqt
     RDKit          3D

 23 26  0  0  0  0  0  0  0  0999 V2000
    4.5069   43.9912   51.3852 N   0  0  0  0  0  0  0  0  0  0  0  0
    3.4508   43.1486   50.9734 C   0  0  0  0  0  0  0  0  0  0  0  0
    2.6370   41.1425   50.0438 C   0  0  0  0  0  3  0  0  0  0  0  0
    3.7129   41.9181   50.4260 C   0  0  0  0  0  3  0  0  0  0  0  0
    1.3304   41.5947   50.2087 C   0  0  0  0  0  3  0  0  0  0  0  0
    1.0620   42.8358   50.7606 C   0  0  0  0  0  0  0  0  0  0  0  0
    2.1550   43.5972   51.1369 C   0  0  0  0  0  3  0  0  0  0  0  0
   -0.2547   43.3343   50.9460 N   0  0  0  0  0  0  0  0  0  0  0  0
   -0.3875   44.6905   51.4434 C   0  0  0  0  0  2  0  0  0  0  0  0
   -1.4227   42.5001   50.6426 C   0  0  0  0  0  2  0  0  0  0  0  0
   -1.8168   45.1263   51.1984 C   0  0  0  0  0  2  0  0  0  0  0  0
   -2.3417   43.2190   49.6725 C   0  0  0  0  0  2  0  0  0  0  0  0
   -2.1666   44.7242   49.7718 C   0  0  0  0  0  2  0  0  0  0  0  0
    5.5445   44.2989   50.4210 C   0  0  0  0  0  2  0  0  0  0  0  0
    6.6004   45.1185   51.0691 C   0  0  0  0  0  0  0  0  0  0  0  0
    6.3130   46.0219   52.0935 C   0  0  0  0  0  3  0  0  0  0  0  0
    7.9019   44.9444   50.6055 C   0  0  0  0  0  0  0  0  0  0  0  0
    7.3721   46.7397   52.6325 C   0  0  0  0  0  3  0  0  0  0  0  0
    8.4339   44.1464   49.6411 N   0  0  0  0  0  0  0  0  0  0  0  0
    8.9332   45.6748   51.1638 C   0  0  0  0  0  0  0  0  0  0  0  0
    8.6679   46.5597   52.1638 C   0  0  0  0  0  3  0  0  0  0  0  0
    9.7326   44.3796   49.6123 N   0  0  0  0  0  0  0  0  0  0  0  0
   10.0933   45.3048   50.5215 C   0  0  0  0  0  3  0  0  0  0  0  0
  1 14  1  0
  1  2  1  0
  2  4  1  0
  4  3  2  0
  5  3  1  0
  6  5  2  0
  7  2  2  0
  7  6  1  0
  8  6  1  0
  8  9  1  0
 10  8  1  0
 11  9  1  0
 12 13  1  0
 12 10  1  0
 13 11  1  0
 15 14  1  0
 16 15  2  0
 17 15  1  0
 18 16  1  0
 19 17  1  0
 20 17  2  0
 21 20  1  0
 21 18  2  0
 22 19  1  0
 23 22  2  0
 23 20  1  0
M  RAD  8   3   2   4   2   5   2   7   2   9   3  10   3  11   3  12   3
M  RAD  6  13   3  14   3  16   2  18   2  21   2  23   2
M  END
>  <REMARK>  (1) 
 SMILES c1cc(NCc2cccc3cn[nH]c23)cc(N2CCCCC2)c1
 SMILES IDX 4 1 3 3 1 4 2 5 23 6 16 7 15 8 17 9 18 10 22 11 19 12 21 13
 SMILES IDX 20 14 5 15 6 16 7 17 14 18 8 19 13 20 10 21 9 22 12 23 11 24
 H PARENT 4 2 13 25

>  <TORSDO>  (1) 
F 4

$$$$
