/home/pchatterjee/Documents/git/vs_workflow/DiffDock/diffdock_run/pdbqt_scrubbed/Z1462327436.pdbqt
     RDKit          3D

 23 26  0  0  0  0  0  0  0  0999 V2000
   12.0830   62.2509   83.0500 N   0  0  0  0  0  0  0  0  0  0  0  0
   13.3778   61.6986   83.1651 C   0  0  0  0  0  0  0  0  0  0  0  0
   15.5975   61.4373   82.4198 C   0  0  0  0  0  3  0  0  0  0  0  0
   14.3530   62.0100   82.2516 C   0  0  0  0  0  3  0  0  0  0  0  0
   15.8534   60.5729   83.4811 C   0  0  0  0  0  3  0  0  0  0  0  0
   14.8719   60.2563   84.4049 C   0  0  0  0  0  0  0  0  0  0  0  0
   13.6315   60.8413   84.2177 C   0  0  0  0  0  3  0  0  0  0  0  0
   15.0913   59.3801   85.5007 N   0  0  0  0  0  0  0  0  0  0  0  0
   14.1263   59.4160   86.5833 C   0  0  0  0  0  2  0  0  0  0  0  0
   16.2505   58.4814   85.5226 C   0  0  0  0  0  2  0  0  0  0  0  0
   14.3368   58.1722   87.4208 C   0  0  0  0  0  2  0  0  0  0  0  0
   15.7983   57.0485   85.7346 C   0  0  0  0  0  2  0  0  0  0  0  0
   14.4624   57.0012   86.4552 C   0  0  0  0  0  2  0  0  0  0  0  0
   11.9694   63.6275   82.6104 C   0  0  0  0  0  2  0  0  0  0  0  0
   10.5548   64.0689   82.7139 C   0  0  0  0  0  0  0  0  0  0  0  0
    9.5105   63.1670   82.9238 C   0  0  0  0  0  3  0  0  0  0  0  0
   10.3140   65.4350   82.5912 C   0  0  0  0  0  0  0  0  0  0  0  0
    8.2239   63.6822   83.0057 C   0  0  0  0  0  3  0  0  0  0  0  0
   11.1379   66.4977   82.3874 N   0  0  0  0  0  0  0  0  0  0  0  0
    9.0213   65.9148   82.6775 C   0  0  0  0  0  0  0  0  0  0  0  0
    7.9925   65.0469   82.8821 C   0  0  0  0  0  3  0  0  0  0  0  0
   10.3812   67.5785   82.3509 N   0  0  0  0  0  0  0  0  0  0  0  0
    9.0792   67.2815   82.5227 C   0  0  0  0  0  3  0  0  0  0  0  0
  1 14  1  0
  1  2  1  0
  2  4  1  0
  4  3  2  0
  5  3  1  0
  6  5  2  0
  7  2  2  0
  7  6  1  0
  8  6  1  0
  8  9  1  0
 10  8  1  0
 11  9  1  0
 12 13  1  0
 12 10  1  0
 13 11  1  0
 15 14  1  0
 16 15  2  0
 17 15  1  0
 18 16  1  0
 19 17  1  0
 20 17  2  0
 21 20  1  0
 21 18  2  0
 22 19  1  0
 23 22  2  0
 23 20  1  0
M  RAD  8   3   2   4   2   5   2   7   2   9   3  10   3  11   3  12   3
M  RAD  6  13   3  14   3  16   2  18   2  21   2  23   2
M  END
>  <REMARK>  (1) 
 SMILES c1cc(NCc2cccc3cn[nH]c23)cc(N2CCCCC2)c1
 SMILES IDX 4 1 3 3 1 4 2 5 23 6 16 7 15 8 17 9 18 10 22 11 19 12 21 13
 SMILES IDX 20 14 5 15 6 16 7 17 14 18 8 19 13 20 10 21 9 22 12 23 11 24
 H PARENT 4 2 13 25

>  <TORSDO>  (1) 
F 4

$$$$
