/home/pchatterjee/Documents/git/vs_workflow/DiffDock/diffdock_run/pdbqt_scrubbed/Z1462327436.pdbqt
     RDKit          3D

 23 26  0  0  0  0  0  0  0  0999 V2000
    5.7232   42.5409   49.9745 N   0  0  0  0  0  0  0  0  0  0  0  0
    4.9900   41.6187   49.1954 C   0  0  0  0  0  0  0  0  0  0  0  0
    4.8129   40.0772   47.4225 C   0  0  0  0  0  3  0  0  0  0  0  0
    5.5835   40.9659   48.1447 C   0  0  0  0  0  3  0  0  0  0  0  0
    3.4784   39.8518   47.7502 C   0  0  0  0  0  3  0  0  0  0  0  0
    2.8761   40.5087   48.8097 C   0  0  0  0  0  0  0  0  0  0  0  0
    3.6666   41.3953   49.5204 C   0  0  0  0  0  3  0  0  0  0  0  0
    1.5192   40.3078   49.1769 N   0  0  0  0  0  0  0  0  0  0  0  0
    1.0293   41.0344   50.3330 C   0  0  0  0  0  2  0  0  0  0  0  0
    0.6605   39.3995   48.4089 C   0  0  0  0  0  2  0  0  0  0  0  0
   -0.4832   40.9712   50.3018 C   0  0  0  0  0  2  0  0  0  0  0  0
   -0.5932   40.1235   47.9542 C   0  0  0  0  0  2  0  0  0  0  0  0
   -0.9129   41.2877   48.8754 C   0  0  0  0  0  2  0  0  0  0  0  0
    6.0419   43.8255   49.3836 C   0  0  0  0  0  2  0  0  0  0  0  0
    6.7407   44.6743   50.3827 C   0  0  0  0  0  0  0  0  0  0  0  0
    6.1048   45.1381   51.5353 C   0  0  0  0  0  3  0  0  0  0  0  0
    8.0705   44.9900   50.1163 C   0  0  0  0  0  0  0  0  0  0  0  0
    6.8470   45.9252   52.4055 C   0  0  0  0  0  3  0  0  0  0  0  0
    8.9017   44.6706   49.0882 N   0  0  0  0  0  0  0  0  0  0  0  0
    8.7808   45.7757   51.0034 C   0  0  0  0  0  0  0  0  0  0  0  0
    8.1736   46.2354   52.1319 C   0  0  0  0  0  3  0  0  0  0  0  0
   10.0677   45.2366   49.3369 N   0  0  0  0  0  0  0  0  0  0  0  0
   10.0512   45.9246   50.4943 C   0  0  0  0  0  3  0  0  0  0  0  0
  1 14  1  0
  1  2  1  0
  2  4  1  0
  4  3  2  0
  5  3  1  0
  6  5  2  0
  7  2  2  0
  7  6  1  0
  8  6  1  0
  8  9  1  0
 10  8  1  0
 11  9  1  0
 12 13  1  0
 12 10  1  0
 13 11  1  0
 15 14  1  0
 16 15  2  0
 17 15  1  0
 18 16  1  0
 19 17  1  0
 20 17  2  0
 21 20  1  0
 21 18  2  0
 22 19  1  0
 23 22  2  0
 23 20  1  0
M  RAD  8   3   2   4   2   5   2   7   2   9   3  10   3  11   3  12   3
M  RAD  6  13   3  14   3  16   2  18   2  21   2  23   2
M  END
>  <REMARK>  (1) 
 SMILES c1cc(NCc2cccc3cn[nH]c23)cc(N2CCCCC2)c1
 SMILES IDX 4 1 3 3 1 4 2 5 23 6 16 7 15 8 17 9 18 10 22 11 19 12 21 13
 SMILES IDX 20 14 5 15 6 16 7 17 14 18 8 19 13 20 10 21 9 22 12 23 11 24
 H PARENT 4 2 13 25

>  <TORSDO>  (1) 
F 4

$$$$
