/home/pchatterjee/Documents/git/vs_workflow/DiffDock/diffdock_run/pdbqt_scrubbed/Z1462327436.pdbqt
     RDKit          3D

 23 26  0  0  0  0  0  0  0  0999 V2000
    5.4303   42.8281   50.4398 N   0  0  0  0  0  0  0  0  0  0  0  0
    4.7475   41.8682   49.6605 C   0  0  0  0  0  0  0  0  0  0  0  0
    4.7177   40.0167   48.2039 C   0  0  0  0  0  3  0  0  0  0  0  0
    5.4437   40.9266   48.9456 C   0  0  0  0  0  3  0  0  0  0  0  0
    3.3259   40.0540   48.1828 C   0  0  0  0  0  3  0  0  0  0  0  0
    2.6199   41.0027   48.9029 C   0  0  0  0  0  0  0  0  0  0  0  0
    3.3671   41.9054   49.6396 C   0  0  0  0  0  3  0  0  0  0  0  0
    1.2017   41.0754   48.9086 N   0  0  0  0  0  0  0  0  0  0  0  0
    0.4732   39.8272   49.0328 C   0  0  0  0  0  2  0  0  0  0  0  0
    0.5160   42.3671   48.7928 C   0  0  0  0  0  2  0  0  0  0  0  0
   -0.9559   40.1697   49.3977 C   0  0  0  0  0  2  0  0  0  0  0  0
   -0.4490   42.5532   49.9490 C   0  0  0  0  0  2  0  0  0  0  0  0
   -0.8949   41.2125   50.5059 C   0  0  0  0  0  2  0  0  0  0  0  0
    6.0637   43.9350   49.7507 C   0  0  0  0  0  2  0  0  0  0  0  0
    6.8220   44.7607   50.7253 C   0  0  0  0  0  0  0  0  0  0  0  0
    6.2023   45.3827   51.8102 C   0  0  0  0  0  3  0  0  0  0  0  0
    8.1914   44.8882   50.5069 C   0  0  0  0  0  0  0  0  0  0  0  0
    7.0013   46.1326   52.6627 C   0  0  0  0  0  3  0  0  0  0  0  0
    9.0178   44.3940   49.5464 N   0  0  0  0  0  0  0  0  0  0  0  0
    8.9579   45.6420   51.3747 C   0  0  0  0  0  0  0  0  0  0  0  0
    8.3671   46.2546   52.4374 C   0  0  0  0  0  3  0  0  0  0  0  0
   10.2350   44.8272   49.8162 N   0  0  0  0  0  0  0  0  0  0  0  0
   10.2573   45.5943   50.9226 C   0  0  0  0  0  3  0  0  0  0  0  0
  1 14  1  0
  1  2  1  0
  2  4  1  0
  4  3  2  0
  5  3  1  0
  6  5  2  0
  7  2  2  0
  7  6  1  0
  8  6  1  0
  8  9  1  0
 10  8  1  0
 11  9  1  0
 12 13  1  0
 12 10  1  0
 13 11  1  0
 15 14  1  0
 16 15  2  0
 17 15  1  0
 18 16  1  0
 19 17  1  0
 20 17  2  0
 21 20  1  0
 21 18  2  0
 22 19  1  0
 23 22  2  0
 23 20  1  0
M  RAD  8   3   2   4   2   5   2   7   2   9   3  10   3  11   3  12   3
M  RAD  6  13   3  14   3  16   2  18   2  21   2  23   2
M  END
>  <REMARK>  (1) 
 SMILES c1cc(NCc2cccc3cn[nH]c23)cc(N2CCCCC2)c1
 SMILES IDX 4 1 3 3 1 4 2 5 23 6 16 7 15 8 17 9 18 10 22 11 19 12 21 13
 SMILES IDX 20 14 5 15 6 16 7 17 14 18 8 19 13 20 10 21 9 22 12 23 11 24
 H PARENT 4 2 13 25

>  <TORSDO>  (1) 
F 4

$$$$
