/home/pchatterjee/Documents/git/vs_workflow/DiffDock/diffdock_run/pdbqt_scrubbed/Z1462327436.pdbqt
     RDKit          3D

 23 26  0  0  0  0  0  0  0  0999 V2000
    7.1892   43.2054   49.3504 N   0  0  0  0  0  0  0  0  0  0  0  0
    6.2387   42.3255   48.7873 C   0  0  0  0  0  0  0  0  0  0  0  0
    5.5305   40.8322   47.1081 C   0  0  0  0  0  3  0  0  0  0  0  0
    6.5003   41.6789   47.6058 C   0  0  0  0  0  3  0  0  0  0  0  0
    4.3277   40.6415   47.7832 C   0  0  0  0  0  3  0  0  0  0  0  0
    4.0601   41.2922   48.9757 C   0  0  0  0  0  0  0  0  0  0  0  0
    5.0458   42.1364   49.4569 C   0  0  0  0  0  3  0  0  0  0  0  0
    2.8472   41.1257   49.6953 N   0  0  0  0  0  0  0  0  0  0  0  0
    2.8817   41.3801   51.1230 C   0  0  0  0  0  2  0  0  0  0  0  0
    1.6180   40.7129   49.0091 C   0  0  0  0  0  2  0  0  0  0  0  0
    1.4495   41.5174   51.5947 C   0  0  0  0  0  2  0  0  0  0  0  0
    0.5036   41.7038   49.2899 C   0  0  0  0  0  2  0  0  0  0  0  0
    0.7395   42.4293   50.6030 C   0  0  0  0  0  2  0  0  0  0  0  0
    6.7044   44.2692   50.2073 C   0  0  0  0  0  2  0  0  0  0  0  0
    7.8562   45.0176   50.7733 C   0  0  0  0  0  0  0  0  0  0  0  0
    9.1630   44.8147   50.3272 C   0  0  0  0  0  3  0  0  0  0  0  0
    7.5721   45.9390   51.7779 C   0  0  0  0  0  0  0  0  0  0  0  0
   10.1682   45.5653   50.9220 C   0  0  0  0  0  3  0  0  0  0  0  0
    6.4104   46.3151   52.3770 N   0  0  0  0  0  0  0  0  0  0  0  0
    8.5961   46.6699   52.3489 C   0  0  0  0  0  0  0  0  0  0  0  0
    9.8759   46.4827   51.9239 C   0  0  0  0  0  3  0  0  0  0  0  0
    6.7123   47.2350   53.2740 N   0  0  0  0  0  0  0  0  0  0  0  0
    8.0339   47.4911   53.3001 C   0  0  0  0  0  3  0  0  0  0  0  0
  1 14  1  0
  1  2  1  0
  2  4  1  0
  4  3  2  0
  5  3  1  0
  6  5  2  0
  7  2  2  0
  7  6  1  0
  8  6  1  0
  8  9  1  0
 10  8  1  0
 11  9  1  0
 12 13  1  0
 12 10  1  0
 13 11  1  0
 15 14  1  0
 16 15  2  0
 17 15  1  0
 18 16  1  0
 19 17  1  0
 20 17  2  0
 21 20  1  0
 21 18  2  0
 22 19  1  0
 23 22  2  0
 23 20  1  0
M  RAD  8   3   2   4   2   5   2   7   2   9   3  10   3  11   3  12   3
M  RAD  6  13   3  14   3  16   2  18   2  21   2  23   2
M  END
>  <REMARK>  (1) 
 SMILES c1cc(NCc2cccc3cn[nH]c23)cc(N2CCCCC2)c1
 SMILES IDX 4 1 3 3 1 4 2 5 23 6 16 7 15 8 17 9 18 10 22 11 19 12 21 13
 SMILES IDX 20 14 5 15 6 16 7 17 14 18 8 19 13 20 10 21 9 22 12 23 11 24
 H PARENT 4 2 13 25

>  <TORSDO>  (1) 
F 4

$$$$
