/home/pchatterjee/Documents/git/vs_workflow/DiffDock/diffdock_run/pdbqt_scrubbed/Z1462327436.pdbqt
     RDKit          3D

 23 26  0  0  0  0  0  0  0  0999 V2000
    4.9918   43.4981   51.6060 N   0  0  0  0  0  0  0  0  0  0  0  0
    3.9439   42.6758   51.1364 C   0  0  0  0  0  0  0  0  0  0  0  0
    1.7810   41.7602   51.3212 C   0  0  0  0  0  3  0  0  0  0  0  0
    2.7658   42.5807   51.8330 C   0  0  0  0  0  3  0  0  0  0  0  0
    1.9778   41.0532   50.1378 C   0  0  0  0  0  3  0  0  0  0  0  0
    3.1653   41.1465   49.4321 C   0  0  0  0  0  0  0  0  0  0  0  0
    4.1392   41.9746   49.9627 C   0  0  0  0  0  3  0  0  0  0  0  0
    3.4064   40.4429   48.2224 N   0  0  0  0  0  0  0  0  0  0  0  0
    2.2499   40.0620   47.4338 C   0  0  0  0  0  2  0  0  0  0  0  0
    4.7743   40.1218   47.8007 C   0  0  0  0  0  2  0  0  0  0  0  0
    2.7452   39.6870   46.0529 C   0  0  0  0  0  2  0  0  0  0  0  0
    5.0266   40.6449   46.3989 C   0  0  0  0  0  2  0  0  0  0  0  0
    3.7270   40.7689   45.6230 C   0  0  0  0  0  2  0  0  0  0  0  0
    5.8524   44.1272   50.6238 C   0  0  0  0  0  2  0  0  0  0  0  0
    6.7757   45.0726   51.3025 C   0  0  0  0  0  0  0  0  0  0  0  0
    6.3455   45.9288   52.3173 C   0  0  0  0  0  3  0  0  0  0  0  0
    8.1019   45.0671   50.8778 C   0  0  0  0  0  0  0  0  0  0  0  0
    7.2882   46.7740   52.8870 C   0  0  0  0  0  3  0  0  0  0  0  0
    8.7594   44.3463   49.9302 N   0  0  0  0  0  0  0  0  0  0  0  0
    9.0148   45.9211   51.4659 C   0  0  0  0  0  0  0  0  0  0  0  0
    8.6096   46.7620   52.4571 C   0  0  0  0  0  3  0  0  0  0  0  0
   10.0181   44.7431   49.9396 N   0  0  0  0  0  0  0  0  0  0  0  0
   10.2311   45.7039   50.8586 C   0  0  0  0  0  3  0  0  0  0  0  0
  1 14  1  0
  1  2  1  0
  2  4  1  0
  4  3  2  0
  5  3  1  0
  6  5  2  0
  7  2  2  0
  7  6  1  0
  8  6  1  0
  8  9  1  0
 10  8  1  0
 11  9  1  0
 12 13  1  0
 12 10  1  0
 13 11  1  0
 15 14  1  0
 16 15  2  0
 17 15  1  0
 18 16  1  0
 19 17  1  0
 20 17  2  0
 21 20  1  0
 21 18  2  0
 22 19  1  0
 23 22  2  0
 23 20  1  0
M  RAD  8   3   2   4   2   5   2   7   2   9   3  10   3  11   3  12   3
M  RAD  6  13   3  14   3  16   2  18   2  21   2  23   2
M  END
>  <REMARK>  (1) 
 SMILES c1cc(NCc2cccc3cn[nH]c23)cc(N2CCCCC2)c1
 SMILES IDX 4 1 3 3 1 4 2 5 23 6 16 7 15 8 17 9 18 10 22 11 19 12 21 13
 SMILES IDX 20 14 5 15 6 16 7 17 14 18 8 19 13 20 10 21 9 22 12 23 11 24
 H PARENT 4 2 13 25

>  <TORSDO>  (1) 
F 4

$$$$
