/home/pchatterjee/Documents/git/vs_workflow/DiffDock/diffdock_run/pdbqt_scrubbed/Z1462327436.pdbqt
     RDKit          3D

 23 26  0  0  0  0  0  0  0  0999 V2000
    5.7930   42.5492   50.0244 N   0  0  0  0  0  0  0  0  0  0  0  0
    4.9959   41.6590   49.2715 C   0  0  0  0  0  0  0  0  0  0  0  0
    4.6759   40.1755   47.4694 C   0  0  0  0  0  3  0  0  0  0  0  0
    5.5059   41.0338   48.1619 C   0  0  0  0  0  3  0  0  0  0  0  0
    3.3654   39.9525   47.8841 C   0  0  0  0  0  3  0  0  0  0  0  0
    2.8472   40.5816   49.0034 C   0  0  0  0  0  0  0  0  0  0  0  0
    3.6962   41.4379   49.6829 C   0  0  0  0  0  3  0  0  0  0  0  0
    1.5174   40.3820   49.4597 N   0  0  0  0  0  0  0  0  0  0  0  0
    1.0177   41.2955   50.4698 C   0  0  0  0  0  2  0  0  0  0  0  0
    0.6950   39.2925   48.9224 C   0  0  0  0  0  2  0  0  0  0  0  0
   -0.4881   41.1428   50.5154 C   0  0  0  0  0  2  0  0  0  0  0  0
   -0.6150   39.8402   48.3872 C   0  0  0  0  0  2  0  0  0  0  0  0
   -0.9797   41.1446   49.0740 C   0  0  0  0  0  2  0  0  0  0  0  0
    6.1625   43.8109   49.4138 C   0  0  0  0  0  2  0  0  0  0  0  0
    6.8478   44.6678   50.4152 C   0  0  0  0  0  0  0  0  0  0  0  0
    6.1733   45.2154   51.5075 C   0  0  0  0  0  3  0  0  0  0  0  0
    8.2055   44.9031   50.2144 C   0  0  0  0  0  0  0  0  0  0  0  0
    6.9059   46.0027   52.3856 C   0  0  0  0  0  3  0  0  0  0  0  0
    9.0753   44.4954   49.2516 N   0  0  0  0  0  0  0  0  0  0  0  0
    8.9053   45.6914   51.1075 C   0  0  0  0  0  0  0  0  0  0  0  0
    8.2605   46.2323   52.1777 C   0  0  0  0  0  3  0  0  0  0  0  0
   10.2539   45.0122   49.5443 N   0  0  0  0  0  0  0  0  0  0  0  0
   10.2086   45.7522   50.6682 C   0  0  0  0  0  3  0  0  0  0  0  0
  1 14  1  0
  1  2  1  0
  2  4  1  0
  4  3  2  0
  5  3  1  0
  6  5  2  0
  7  2  2  0
  7  6  1  0
  8  6  1  0
  8  9  1  0
 10  8  1  0
 11  9  1  0
 12 13  1  0
 12 10  1  0
 13 11  1  0
 15 14  1  0
 16 15  2  0
 17 15  1  0
 18 16  1  0
 19 17  1  0
 20 17  2  0
 21 20  1  0
 21 18  2  0
 22 19  1  0
 23 22  2  0
 23 20  1  0
M  RAD  8   3   2   4   2   5   2   7   2   9   3  10   3  11   3  12   3
M  RAD  6  13   3  14   3  16   2  18   2  21   2  23   2
M  END
>  <REMARK>  (1) 
 SMILES c1cc(NCc2cccc3cn[nH]c23)cc(N2CCCCC2)c1
 SMILES IDX 4 1 3 3 1 4 2 5 23 6 16 7 15 8 17 9 18 10 22 11 19 12 21 13
 SMILES IDX 20 14 5 15 6 16 7 17 14 18 8 19 13 20 10 21 9 22 12 23 11 24
 H PARENT 4 2 13 25

>  <TORSDO>  (1) 
F 4

$$$$
