/home/pchatterjee/Documents/git/vs_workflow/DiffDock/diffdock_run/pdbqt_scrubbed/Z2611810317.pdbqt
     RDKit          3D

 24 27  0  0  1  0  0  0  0  0999 V2000
    2.5029   45.8266   52.2878 C   0  0  0  0  0  3  0  0  0  0  0  0
    3.0309   47.0892   52.9358 C   0  0  0  0  0  2  0  0  0  0  0  0
    4.5283   46.8549   53.1738 C   0  0  0  0  0  2  0  0  0  0  0  0
    4.7639   45.6012   52.4727 N   0  0  0  0  0  0  0  0  0  0  0  0
    3.5437   44.8132   52.7177 C   0  0  0  0  0  2  0  0  0  0  0  0
    1.1140   45.4717   52.7661 C   0  0  0  0  0  2  0  0  0  0  0  0
    1.1210   44.5270   53.7643 O   0  0  0  0  0  0  0  0  0  0  0  0
   -0.1139   44.5121   54.3669 C   0  0  0  0  0  1  0  0  0  0  0  0
    5.8978   45.1961   51.7152 C   0  0  0  0  0  0  0  0  0  0  0  0
    5.8766   44.1794   50.8352 N   0  0  0  0  0  0  0  0  0  0  0  0
    7.0692   45.8700   51.8853 N   0  0  0  0  0  0  0  0  0  0  0  0
    6.9921   43.8324   50.1341 C   0  0  0  0  0  0  0  0  0  0  0  0
    8.1742   45.5533   51.2143 C   0  0  0  0  0  0  0  0  0  0  0  0
    8.1762   44.5177   50.3096 C   0  0  0  0  0  0  0  0  0  0  0  0
    9.3921   46.0699   51.2307 N   0  0  0  0  0  0  0  0  0  0  0  0
    9.4218   44.4238   49.7831 N   0  0  0  0  0  0  0  0  0  0  0  0
   10.1603   45.3896   50.3627 C   0  0  0  0  0  3  0  0  0  0  0  0
    6.9961   42.7606   49.2005 N   0  0  0  0  0  0  0  0  0  0  0  0
    5.8551   41.9758   48.8976 C   0  0  0  0  0  0  0  0  0  0  0  0
    4.8718   41.7774   49.8605 C   0  0  0  0  0  3  0  0  0  0  0  0
    5.7787   41.4391   47.6322 C   0  0  0  0  0  3  0  0  0  0  0  0
    3.7701   41.0006   49.5133 C   0  0  0  0  0  3  0  0  0  0  0  0
    4.6833   40.6779   47.3150 C   0  0  0  0  0  3  0  0  0  0  0  0
    3.7005   40.4655   48.2417 C   0  0  0  0  0  3  0  0  0  0  0  0
  1  6  1  0
  1  2  1  0
  2  3  1  0
  4  9  1  0
  4  3  1  0
  5  1  1  0
  5  4  1  0
  7  8  1  0
  7  6  1  0
  9 11  2  0
 10 12  2  0
 10  9  1  0
 11 13  1  0
 12 14  1  0
 13 15  1  0
 14 16  1  0
 14 13  2  0
 16 17  1  0
 17 15  2  0
 18 12  1  0
 19 18  1  0
 20 19  2  0
 21 19  1  0
 22 20  1  0
 23 21  2  0
 24 22  2  0
 24 23  1  0
M  RAD  8   1   2   2   3   3   3   5   3   6   3   8   2  17   2  20   2
M  RAD  4  21   2  22   2  23   2  24   2
M  END
>  <REMARK>  (1) 
 SMILES COCC1CCN(c2nc(Nc3ccccc3)c3[nH]cnc3n2)C1
 SMILES IDX 4 1 5 2 6 3 7 4 24 5 3 6 2 7 1 8 8 9 9 10 23 11 10 12 22 13
 SMILES IDX 18 14 21 15 19 16 20 17 11 19 12 21 13 22 17 23 14 24 16 25
 SMILES IDX 15 26
 H PARENT 19 18 11 20

>  <TORSDO>  (1) 
F 5

$$$$
