/home/pchatterjee/Documents/git/vs_workflow/DiffDock/diffdock_run/pdbqt_scrubbed/Z2611810317.pdbqt
     RDKit          3D

 24 27  0  0  1  0  0  0  0  0999 V2000
    3.0727   45.1487   53.6349 C   0  0  0  0  0  3  0  0  0  0  0  0
    2.3969   45.9141   52.5167 C   0  0  0  0  0  2  0  0  0  0  0  0
    3.5237   46.4990   51.6554 C   0  0  0  0  0  2  0  0  0  0  0  0
    4.7075   45.8635   52.2157 N   0  0  0  0  0  0  0  0  0  0  0  0
    4.4379   45.8051   53.6627 C   0  0  0  0  0  2  0  0  0  0  0  0
    2.3377   45.2805   54.9487 C   0  0  0  0  0  2  0  0  0  0  0  0
    2.5873   46.4758   55.5796 O   0  0  0  0  0  0  0  0  0  0  0  0
    2.5874   46.2667   56.9378 C   0  0  0  0  0  1  0  0  0  0  0  0
    5.8736   45.3936   51.5501 C   0  0  0  0  0  0  0  0  0  0  0  0
    5.8640   44.3839   50.6618 N   0  0  0  0  0  0  0  0  0  0  0  0
    7.0653   45.9943   51.8223 N   0  0  0  0  0  0  0  0  0  0  0  0
    7.0106   43.9729   50.0516 C   0  0  0  0  0  0  0  0  0  0  0  0
    8.2009   45.6139   51.2415 C   0  0  0  0  0  0  0  0  0  0  0  0
    8.2153   44.5841   50.3303 C   0  0  0  0  0  0  0  0  0  0  0  0
    9.4422   46.0554   51.3628 N   0  0  0  0  0  0  0  0  0  0  0  0
    9.4922   44.4170   49.9071 N   0  0  0  0  0  0  0  0  0  0  0  0
   10.2371   45.3336   50.5545 C   0  0  0  0  0  3  0  0  0  0  0  0
    7.0272   42.9070   49.1114 N   0  0  0  0  0  0  0  0  0  0  0  0
    5.8855   42.1385   48.7719 C   0  0  0  0  0  0  0  0  0  0  0  0
    5.7552   41.6151   47.4903 C   0  0  0  0  0  3  0  0  0  0  0  0
    4.9424   41.9447   49.7558 C   0  0  0  0  0  3  0  0  0  0  0  0
    4.6167   40.8658   47.2073 C   0  0  0  0  0  3  0  0  0  0  0  0
    3.8301   41.2028   49.4519 C   0  0  0  0  0  3  0  0  0  0  0  0
    3.6749   40.6757   48.1998 C   0  0  0  0  0  3  0  0  0  0  0  0
  1  6  1  0
  1  2  1  0
  2  3  1  0
  4  9  1  0
  4  3  1  0
  5  1  1  0
  5  4  1  0
  7  8  1  0
  7  6  1  0
  9 11  2  0
 10 12  2  0
 10  9  1  0
 11 13  1  0
 12 14  1  0
 13 15  1  0
 14 16  1  0
 14 13  2  0
 16 17  1  0
 17 15  2  0
 18 12  1  0
 19 18  1  0
 20 19  2  0
 21 19  1  0
 22 20  1  0
 23 21  2  0
 24 22  2  0
 24 23  1  0
M  RAD  8   1   2   2   3   3   3   5   3   6   3   8   2  17   2  20   2
M  RAD  4  21   2  22   2  23   2  24   2
M  END
>  <REMARK>  (1) 
 SMILES COCC1CCN(c2nc(Nc3ccccc3)c3[nH]cnc3n2)C1
 SMILES IDX 4 1 5 2 6 3 7 4 24 5 3 6 2 7 1 8 8 9 9 10 23 11 10 12 22 13
 SMILES IDX 18 14 21 15 19 16 20 17 11 19 12 21 13 22 17 23 14 24 16 25
 SMILES IDX 15 26
 H PARENT 19 18 11 20

>  <TORSDO>  (1) 
F 5

$$$$
