/home/pchatterjee/Documents/git/vs_workflow/DiffDock/diffdock_run/pdbqt_scrubbed/Z2611810317.pdbqt
     RDKit          3D

 24 27  0  0  1  0  0  0  0  0999 V2000
    3.4038   45.0958   53.9565 C   0  0  0  0  0  3  0  0  0  0  0  0
    2.5218   45.5492   52.8122 C   0  0  0  0  0  2  0  0  0  0  0  0
    3.4668   46.0852   51.7290 C   0  0  0  0  0  2  0  0  0  0  0  0
    4.7762   45.7105   52.2430 N   0  0  0  0  0  0  0  0  0  0  0  0
    4.6622   45.8992   53.6995 C   0  0  0  0  0  2  0  0  0  0  0  0
    2.7919   45.3904   55.3066 C   0  0  0  0  0  2  0  0  0  0  0  0
    2.9008   46.7136   55.6620 O   0  0  0  0  0  0  0  0  0  0  0  0
    2.2585   46.9029   56.8620 C   0  0  0  0  0  1  0  0  0  0  0  0
    5.9237   45.2605   51.5329 C   0  0  0  0  0  0  0  0  0  0  0  0
    5.8985   44.2462   50.6501 N   0  0  0  0  0  0  0  0  0  0  0  0
    7.1132   45.8861   51.7540 N   0  0  0  0  0  0  0  0  0  0  0  0
    7.0277   43.8549   49.9958 C   0  0  0  0  0  0  0  0  0  0  0  0
    8.2318   45.5255   51.1294 C   0  0  0  0  0  0  0  0  0  0  0  0
    8.2301   44.4915   50.2229 C   0  0  0  0  0  0  0  0  0  0  0  0
    9.4679   45.9922   51.1985 N   0  0  0  0  0  0  0  0  0  0  0  0
    9.4919   44.3476   49.7492 N   0  0  0  0  0  0  0  0  0  0  0  0
   10.2438   45.2822   50.3619 C   0  0  0  0  0  3  0  0  0  0  0  0
    7.0277   42.7848   49.0603 N   0  0  0  0  0  0  0  0  0  0  0  0
    5.8694   42.0482   48.7064 C   0  0  0  0  0  0  0  0  0  0  0  0
    5.7951   41.4220   47.4671 C   0  0  0  0  0  3  0  0  0  0  0  0
    4.8538   41.9891   49.6337 C   0  0  0  0  0  3  0  0  0  0  0  0
    4.6375   40.7094   47.1678 C   0  0  0  0  0  3  0  0  0  0  0  0
    3.7240   41.2806   49.3148 C   0  0  0  0  0  3  0  0  0  0  0  0
    3.6227   40.6546   48.1034 C   0  0  0  0  0  3  0  0  0  0  0  0
  1  6  1  0
  1  2  1  0
  2  3  1  0
  4  9  1  0
  4  3  1  0
  5  1  1  0
  5  4  1  0
  7  8  1  0
  7  6  1  0
  9 11  2  0
 10 12  2  0
 10  9  1  0
 11 13  1  0
 12 14  1  0
 13 15  1  0
 14 16  1  0
 14 13  2  0
 16 17  1  0
 17 15  2  0
 18 12  1  0
 19 18  1  0
 20 19  2  0
 21 19  1  0
 22 20  1  0
 23 21  2  0
 24 22  2  0
 24 23  1  0
M  RAD  8   1   2   2   3   3   3   5   3   6   3   8   2  17   2  20   2
M  RAD  4  21   2  22   2  23   2  24   2
M  END
>  <REMARK>  (1) 
 SMILES COCC1CCN(c2nc(Nc3ccccc3)c3[nH]cnc3n2)C1
 SMILES IDX 4 1 5 2 6 3 7 4 24 5 3 6 2 7 1 8 8 9 9 10 23 11 10 12 22 13
 SMILES IDX 18 14 21 15 19 16 20 17 11 19 12 21 13 22 17 23 14 24 16 25
 SMILES IDX 15 26
 H PARENT 19 18 11 20

>  <TORSDO>  (1) 
F 5

$$$$
