/home/pchatterjee/Documents/git/vs_workflow/DiffDock/diffdock_run/pdbqt_scrubbed/Z2611810317.pdbqt
     RDKit          3D

 24 27  0  0  1  0  0  0  0  0999 V2000
    2.5149   45.8852   52.0292 C   0  0  0  0  0  3  0  0  0  0  0  0
    3.0240   47.1130   52.7545 C   0  0  0  0  0  2  0  0  0  0  0  0
    4.4966   46.8363   53.0843 C   0  0  0  0  0  2  0  0  0  0  0  0
    4.7530   45.6013   52.3576 N   0  0  0  0  0  0  0  0  0  0  0  0
    3.5027   44.8342   52.4926 C   0  0  0  0  0  2  0  0  0  0  0  0
    1.0896   45.5470   52.4005 C   0  0  0  0  0  2  0  0  0  0  0  0
    1.0006   44.4463   53.2187 O   0  0  0  0  0  0  0  0  0  0  0  0
    0.2665   44.7811   54.3311 C   0  0  0  0  0  1  0  0  0  0  0  0
    5.9270   45.1954   51.6644 C   0  0  0  0  0  0  0  0  0  0  0  0
    5.9546   44.1770   50.7865 N   0  0  0  0  0  0  0  0  0  0  0  0
    7.0869   45.8701   51.8974 N   0  0  0  0  0  0  0  0  0  0  0  0
    7.1071   43.8292   50.1485 C   0  0  0  0  0  0  0  0  0  0  0  0
    8.2273   45.5527   51.2889 C   0  0  0  0  0  0  0  0  0  0  0  0
    8.2795   44.5154   50.3876 C   0  0  0  0  0  0  0  0  0  0  0  0
    9.4423   46.0699   51.3713 N   0  0  0  0  0  0  0  0  0  0  0  0
    9.5521   44.4211   49.9306 N   0  0  0  0  0  0  0  0  0  0  0  0
   10.2573   45.3884   50.5481 C   0  0  0  0  0  3  0  0  0  0  0  0
    7.1628   42.7558   49.2185 N   0  0  0  0  0  0  0  0  0  0  0  0
    6.0260   42.0258   48.7893 C   0  0  0  0  0  0  0  0  0  0  0  0
    6.0062   41.4500   47.5238 C   0  0  0  0  0  3  0  0  0  0  0  0
    4.9750   41.9218   49.6723 C   0  0  0  0  0  3  0  0  0  0  0  0
    4.8676   40.7417   47.1502 C   0  0  0  0  0  3  0  0  0  0  0  0
    3.8650   41.2187   49.2804 C   0  0  0  0  0  3  0  0  0  0  0  0
    3.8171   40.6417   48.0417 C   0  0  0  0  0  3  0  0  0  0  0  0
  1  6  1  0
  1  2  1  0
  2  3  1  0
  4  9  1  0
  4  3  1  0
  5  1  1  0
  5  4  1  0
  7  8  1  0
  7  6  1  0
  9 11  2  0
 10 12  2  0
 10  9  1  0
 11 13  1  0
 12 14  1  0
 13 15  1  0
 14 16  1  0
 14 13  2  0
 16 17  1  0
 17 15  2  0
 18 12  1  0
 19 18  1  0
 20 19  2  0
 21 19  1  0
 22 20  1  0
 23 21  2  0
 24 22  2  0
 24 23  1  0
M  RAD  8   1   2   2   3   3   3   5   3   6   3   8   2  17   2  20   2
M  RAD  4  21   2  22   2  23   2  24   2
M  END
>  <REMARK>  (1) 
 SMILES COCC1CCN(c2nc(Nc3ccccc3)c3[nH]cnc3n2)C1
 SMILES IDX 4 1 5 2 6 3 7 4 24 5 3 6 2 7 1 8 8 9 9 10 23 11 10 12 22 13
 SMILES IDX 18 14 21 15 19 16 20 17 11 19 12 21 13 22 17 23 14 24 16 25
 SMILES IDX 15 26
 H PARENT 19 18 11 20

>  <TORSDO>  (1) 
F 5

$$$$
