/home/pchatterjee/Documents/git/vs_workflow/DiffDock/diffdock_run/pdbqt_scrubbed/Z2611810317.pdbqt
     RDKit          3D

 24 27  0  0  1  0  0  0  0  0999 V2000
    3.2177   45.4652   53.5672 C   0  0  0  0  0  3  0  0  0  0  0  0
    2.4904   46.0736   52.3866 C   0  0  0  0  0  2  0  0  0  0  0  0
    3.5765   46.5561   51.4164 C   0  0  0  0  0  2  0  0  0  0  0  0
    4.7893   46.0107   52.0085 N   0  0  0  0  0  0  0  0  0  0  0  0
    4.5724   46.1348   53.4602 C   0  0  0  0  0  2  0  0  0  0  0  0
    2.5279   45.7557   54.8801 C   0  0  0  0  0  2  0  0  0  0  0  0
    3.3636   46.3405   55.8013 O   0  0  0  0  0  0  0  0  0  0  0  0
    3.1700   45.7354   57.0199 C   0  0  0  0  0  1  0  0  0  0  0  0
    5.9383   45.4725   51.3652 C   0  0  0  0  0  0  0  0  0  0  0  0
    5.8904   44.4411   50.5034 N   0  0  0  0  0  0  0  0  0  0  0  0
    7.1535   46.0271   51.6315 N   0  0  0  0  0  0  0  0  0  0  0  0
    7.0222   43.9640   49.9137 C   0  0  0  0  0  0  0  0  0  0  0  0
    8.2753   45.5820   51.0704 C   0  0  0  0  0  0  0  0  0  0  0  0
    8.2507   44.5289   50.1865 C   0  0  0  0  0  0  0  0  0  0  0  0
    9.5340   45.9714   51.1905 N   0  0  0  0  0  0  0  0  0  0  0  0
    9.5219   44.2946   49.7785 N   0  0  0  0  0  0  0  0  0  0  0  0
   10.3020   45.1942   50.4080 C   0  0  0  0  0  3  0  0  0  0  0  0
    6.9984   42.8740   49.0017 N   0  0  0  0  0  0  0  0  0  0  0  0
    5.8378   42.1121   48.7153 C   0  0  0  0  0  0  0  0  0  0  0  0
    4.9227   41.8327   49.7242 C   0  0  0  0  0  3  0  0  0  0  0  0
    5.6736   41.6795   47.4188 C   0  0  0  0  0  3  0  0  0  0  0  0
    3.7982   41.0825   49.3916 C   0  0  0  0  0  3  0  0  0  0  0  0
    4.5575   40.9424   47.1169 C   0  0  0  0  0  3  0  0  0  0  0  0
    3.6403   40.6520   48.0886 C   0  0  0  0  0  3  0  0  0  0  0  0
  1  6  1  0
  1  2  1  0
  2  3  1  0
  4  9  1  0
  4  3  1  0
  5  1  1  0
  5  4  1  0
  7  8  1  0
  7  6  1  0
  9 11  2  0
 10 12  2  0
 10  9  1  0
 11 13  1  0
 12 14  1  0
 13 15  1  0
 14 16  1  0
 14 13  2  0
 16 17  1  0
 17 15  2  0
 18 12  1  0
 19 18  1  0
 20 19  2  0
 21 19  1  0
 22 20  1  0
 23 21  2  0
 24 22  2  0
 24 23  1  0
M  RAD  8   1   2   2   3   3   3   5   3   6   3   8   2  17   2  20   2
M  RAD  4  21   2  22   2  23   2  24   2
M  END
>  <REMARK>  (1) 
 SMILES COCC1CCN(c2nc(Nc3ccccc3)c3[nH]cnc3n2)C1
 SMILES IDX 4 1 5 2 6 3 7 4 24 5 3 6 2 7 1 8 8 9 9 10 23 11 10 12 22 13
 SMILES IDX 18 14 21 15 19 16 20 17 11 19 12 21 13 22 17 23 14 24 16 25
 SMILES IDX 15 26
 H PARENT 19 18 11 20

>  <TORSDO>  (1) 
F 5

$$$$
