/home/pchatterjee/Documents/git/vs_workflow/DiffDock/diffdock_run/pdbqt_scrubbed/Z2611810317.pdbqt
     RDKit          3D

 24 27  0  0  1  0  0  0  0  0999 V2000
    2.5029   45.8745   52.2412 C   0  0  0  0  0  3  0  0  0  0  0  0
    3.0563   47.0862   52.9613 C   0  0  0  0  0  2  0  0  0  0  0  0
    4.5310   46.7769   53.2499 C   0  0  0  0  0  2  0  0  0  0  0  0
    4.7425   45.5425   52.5080 N   0  0  0  0  0  0  0  0  0  0  0  0
    3.4807   44.8000   52.6708 C   0  0  0  0  0  2  0  0  0  0  0  0
    1.0812   45.5628   52.6481 C   0  0  0  0  0  2  0  0  0  0  0  0
    1.0009   44.9650   53.8830 O   0  0  0  0  0  0  0  0  0  0  0  0
   -0.2916   44.5455   54.0874 C   0  0  0  0  0  1  0  0  0  0  0  0
    5.8891   45.1179   51.7809 C   0  0  0  0  0  0  0  0  0  0  0  0
    5.8771   44.0928   50.9104 N   0  0  0  0  0  0  0  0  0  0  0  0
    7.0636   45.7807   51.9718 N   0  0  0  0  0  0  0  0  0  0  0  0
    7.0047   43.7270   50.2388 C   0  0  0  0  0  0  0  0  0  0  0  0
    8.1803   45.4456   51.3298 C   0  0  0  0  0  0  0  0  0  0  0  0
    8.1918   44.4012   50.4353 C   0  0  0  0  0  0  0  0  0  0  0  0
    9.4031   45.9491   51.3695 N   0  0  0  0  0  0  0  0  0  0  0  0
    9.4481   44.2888   49.9388 N   0  0  0  0  0  0  0  0  0  0  0  0
   10.1836   45.2522   50.5262 C   0  0  0  0  0  3  0  0  0  0  0  0
    7.0185   42.6462   49.3158 N   0  0  0  0  0  0  0  0  0  0  0  0
    5.8834   41.8515   49.0166 C   0  0  0  0  0  0  0  0  0  0  0  0
    4.8825   41.6826   49.9670 C   0  0  0  0  0  3  0  0  0  0  0  0
    5.8304   41.2754   47.7675 C   0  0  0  0  0  3  0  0  0  0  0  0
    3.7875   40.8946   49.6240 C   0  0  0  0  0  3  0  0  0  0  0  0
    4.7411   40.5038   47.4541 C   0  0  0  0  0  3  0  0  0  0  0  0
    3.7414   40.3199   48.3687 C   0  0  0  0  0  3  0  0  0  0  0  0
  1  6  1  0
  1  2  1  0
  2  3  1  0
  4  9  1  0
  4  3  1  0
  5  1  1  0
  5  4  1  0
  7  8  1  0
  7  6  1  0
  9 11  2  0
 10 12  2  0
 10  9  1  0
 11 13  1  0
 12 14  1  0
 13 15  1  0
 14 16  1  0
 14 13  2  0
 16 17  1  0
 17 15  2  0
 18 12  1  0
 19 18  1  0
 20 19  2  0
 21 19  1  0
 22 20  1  0
 23 21  2  0
 24 22  2  0
 24 23  1  0
M  RAD  8   1   2   2   3   3   3   5   3   6   3   8   2  17   2  20   2
M  RAD  4  21   2  22   2  23   2  24   2
M  END
>  <REMARK>  (1) 
 SMILES COCC1CCN(c2nc(Nc3ccccc3)c3[nH]cnc3n2)C1
 SMILES IDX 4 1 5 2 6 3 7 4 24 5 3 6 2 7 1 8 8 9 9 10 23 11 10 12 22 13
 SMILES IDX 18 14 21 15 19 16 20 17 11 19 12 21 13 22 17 23 14 24 16 25
 SMILES IDX 15 26
 H PARENT 19 18 11 20

>  <TORSDO>  (1) 
F 5

$$$$
