/home/pchatterjee/Documents/git/vs_workflow/DiffDock/diffdock_run/pdbqt_scrubbed/Z2611810317.pdbqt
     RDKit          3D

 24 27  0  0  1  0  0  0  0  0999 V2000
    2.5355   44.9131   52.7569 C   0  0  0  0  0  3  0  0  0  0  0  0
    2.6001   46.4232   52.6656 C   0  0  0  0  0  2  0  0  0  0  0  0
    4.0900   46.7867   52.6221 C   0  0  0  0  0  2  0  0  0  0  0  0
    4.7256   45.4844   52.4843 N   0  0  0  0  0  0  0  0  0  0  0  0
    3.9049   44.5895   53.3183 C   0  0  0  0  0  2  0  0  0  0  0  0
    1.4137   44.4381   53.6512 C   0  0  0  0  0  2  0  0  0  0  0  0
    0.2306   45.0964   53.4148 O   0  0  0  0  0  0  0  0  0  0  0  0
   -0.7088   44.6534   54.3147 C   0  0  0  0  0  1  0  0  0  0  0  0
    5.8742   45.1222   51.7271 C   0  0  0  0  0  0  0  0  0  0  0  0
    5.8992   44.0888   50.8668 N   0  0  0  0  0  0  0  0  0  0  0  0
    7.0111   45.8570   51.8768 N   0  0  0  0  0  0  0  0  0  0  0  0
    7.0267   43.7848   50.1651 C   0  0  0  0  0  0  0  0  0  0  0  0
    8.1269   45.5833   51.2047 C   0  0  0  0  0  0  0  0  0  0  0  0
    8.1759   44.5318   50.3198 C   0  0  0  0  0  0  0  0  0  0  0  0
    9.3174   46.1604   51.2033 N   0  0  0  0  0  0  0  0  0  0  0  0
    9.4216   44.4904   49.7871 N   0  0  0  0  0  0  0  0  0  0  0  0
   10.1139   45.5030   50.3434 C   0  0  0  0  0  3  0  0  0  0  0  0
    7.0793   42.6968   49.2519 N   0  0  0  0  0  0  0  0  0  0  0  0
    5.9654   41.8788   48.9365 C   0  0  0  0  0  0  0  0  0  0  0  0
    5.8642   41.2966   47.6778 C   0  0  0  0  0  3  0  0  0  0  0  0
    5.0190   41.6984   49.9197 C   0  0  0  0  0  3  0  0  0  0  0  0
    4.7523   40.5004   47.4179 C   0  0  0  0  0  3  0  0  0  0  0  0
    3.9333   40.9095   49.6388 C   0  0  0  0  0  3  0  0  0  0  0  0
    3.8070   40.3240   48.4096 C   0  0  0  0  0  3  0  0  0  0  0  0
  1  6  1  0
  1  2  1  0
  2  3  1  0
  4  9  1  0
  4  3  1  0
  5  1  1  0
  5  4  1  0
  7  8  1  0
  7  6  1  0
  9 11  2  0
 10 12  2  0
 10  9  1  0
 11 13  1  0
 12 14  1  0
 13 15  1  0
 14 16  1  0
 14 13  2  0
 16 17  1  0
 17 15  2  0
 18 12  1  0
 19 18  1  0
 20 19  2  0
 21 19  1  0
 22 20  1  0
 23 21  2  0
 24 22  2  0
 24 23  1  0
M  RAD  8   1   2   2   3   3   3   5   3   6   3   8   2  17   2  20   2
M  RAD  4  21   2  22   2  23   2  24   2
M  END
>  <REMARK>  (1) 
 SMILES COCC1CCN(c2nc(Nc3ccccc3)c3[nH]cnc3n2)C1
 SMILES IDX 4 1 5 2 6 3 7 4 24 5 3 6 2 7 1 8 8 9 9 10 23 11 10 12 22 13
 SMILES IDX 18 14 21 15 19 16 20 17 11 19 12 21 13 22 17 23 14 24 16 25
 SMILES IDX 15 26
 H PARENT 19 18 11 20

>  <TORSDO>  (1) 
F 5

$$$$
