/home/pchatterjee/Documents/git/vs_workflow/DiffDock/diffdock_run/pdbqt_scrubbed/Z2611810317.pdbqt
     RDKit          3D

 24 27  0  0  1  0  0  0  0  0999 V2000
    2.4954   45.7970   52.2355 C   0  0  0  0  0  3  0  0  0  0  0  0
    3.0155   47.0505   52.9073 C   0  0  0  0  0  2  0  0  0  0  0  0
    4.5052   46.8043   53.1795 C   0  0  0  0  0  2  0  0  0  0  0  0
    4.7498   45.5552   52.4732 N   0  0  0  0  0  0  0  0  0  0  0  0
    3.5190   44.7731   52.6815 C   0  0  0  0  0  2  0  0  0  0  0  0
    1.0930   45.4471   52.6769 C   0  0  0  0  0  2  0  0  0  0  0  0
    1.0370   45.0251   53.9837 O   0  0  0  0  0  0  0  0  0  0  0  0
   -0.2229   44.5384   54.2370 C   0  0  0  0  0  1  0  0  0  0  0  0
    5.8992   45.1493   51.7399 C   0  0  0  0  0  0  0  0  0  0  0  0
    5.9016   44.1182   50.8764 N   0  0  0  0  0  0  0  0  0  0  0  0
    7.0611   45.8376   51.9167 N   0  0  0  0  0  0  0  0  0  0  0  0
    7.0311   43.7712   50.1983 C   0  0  0  0  0  0  0  0  0  0  0  0
    8.1794   45.5212   51.2681 C   0  0  0  0  0  0  0  0  0  0  0  0
    8.2055   44.4711   50.3806 C   0  0  0  0  0  0  0  0  0  0  0  0
    9.3918   46.0502   51.2946 N   0  0  0  0  0  0  0  0  0  0  0  0
    9.4599   44.3812   49.8748 N   0  0  0  0  0  0  0  0  0  0  0  0
   10.1799   45.3637   50.4497 C   0  0  0  0  0  3  0  0  0  0  0  0
    7.0600   42.6845   49.2825 N   0  0  0  0  0  0  0  0  0  0  0  0
    5.9121   41.9457   48.9006 C   0  0  0  0  0  0  0  0  0  0  0  0
    5.8672   41.3232   47.6580 C   0  0  0  0  0  3  0  0  0  0  0  0
    4.8762   41.8808   49.8049 C   0  0  0  0  0  3  0  0  0  0  0  0
    4.7186   40.6081   47.3309 C   0  0  0  0  0  3  0  0  0  0  0  0
    3.7559   41.1701   49.4588 C   0  0  0  0  0  3  0  0  0  0  0  0
    3.6834   40.5475   48.2435 C   0  0  0  0  0  3  0  0  0  0  0  0
  1  6  1  0
  1  2  1  0
  2  3  1  0
  4  9  1  0
  4  3  1  0
  5  1  1  0
  5  4  1  0
  7  8  1  0
  7  6  1  0
  9 11  2  0
 10 12  2  0
 10  9  1  0
 11 13  1  0
 12 14  1  0
 13 15  1  0
 14 16  1  0
 14 13  2  0
 16 17  1  0
 17 15  2  0
 18 12  1  0
 19 18  1  0
 20 19  2  0
 21 19  1  0
 22 20  1  0
 23 21  2  0
 24 22  2  0
 24 23  1  0
M  RAD  8   1   2   2   3   3   3   5   3   6   3   8   2  17   2  20   2
M  RAD  4  21   2  22   2  23   2  24   2
M  END
>  <REMARK>  (1) 
 SMILES COCC1CCN(c2nc(Nc3ccccc3)c3[nH]cnc3n2)C1
 SMILES IDX 4 1 5 2 6 3 7 4 24 5 3 6 2 7 1 8 8 9 9 10 23 11 10 12 22 13
 SMILES IDX 18 14 21 15 19 16 20 17 11 19 12 21 13 22 17 23 14 24 16 25
 SMILES IDX 15 26
 H PARENT 19 18 11 20

>  <TORSDO>  (1) 
F 5

$$$$
