/home/pchatterjee/Documents/git/vs_workflow/DiffDock/diffdock_run/pdbqt_scrubbed/Z2611810317.pdbqt
     RDKit          3D

 24 27  0  0  1  0  0  0  0  0999 V2000
    2.5065   45.7002   52.1261 C   0  0  0  0  0  3  0  0  0  0  0  0
    2.9499   47.0351   52.6867 C   0  0  0  0  0  2  0  0  0  0  0  0
    4.4469   46.8960   52.9922 C   0  0  0  0  0  2  0  0  0  0  0  0
    4.7674   45.6040   52.4032 N   0  0  0  0  0  0  0  0  0  0  0  0
    3.5777   44.7776   52.6708 C   0  0  0  0  0  2  0  0  0  0  0  0
    1.1193   45.3151   52.5856 C   0  0  0  0  0  2  0  0  0  0  0  0
    1.1327   44.3544   53.5684 O   0  0  0  0  0  0  0  0  0  0  0  0
    0.1839   44.6728   54.5101 C   0  0  0  0  0  1  0  0  0  0  0  0
    5.9464   45.1975   51.7188 C   0  0  0  0  0  0  0  0  0  0  0  0
    5.9778   44.1860   50.8329 N   0  0  0  0  0  0  0  0  0  0  0  0
    7.1073   45.8643   51.9691 N   0  0  0  0  0  0  0  0  0  0  0  0
    7.1351   43.8375   50.2040 C   0  0  0  0  0  0  0  0  0  0  0  0
    8.2523   45.5458   51.3698 C   0  0  0  0  0  0  0  0  0  0  0  0
    8.3084   44.5156   50.4607 C   0  0  0  0  0  0  0  0  0  0  0  0
    9.4690   46.0560   51.4689 N   0  0  0  0  0  0  0  0  0  0  0  0
    9.5852   44.4184   50.0161 N   0  0  0  0  0  0  0  0  0  0  0  0
   10.2889   45.3769   50.6487 C   0  0  0  0  0  3  0  0  0  0  0  0
    7.1949   42.7712   49.2660 N   0  0  0  0  0  0  0  0  0  0  0  0
    6.0642   42.0248   48.8490 C   0  0  0  0  0  0  0  0  0  0  0  0
    4.9858   41.8563   49.7104 C   0  0  0  0  0  3  0  0  0  0  0  0
    6.0944   41.4940   47.5792 C   0  0  0  0  0  3  0  0  0  0  0  0
    3.8987   41.1168   49.2531 C   0  0  0  0  0  3  0  0  0  0  0  0
    5.0111   40.7697   47.1526 C   0  0  0  0  0  3  0  0  0  0  0  0
    3.9363   40.5873   47.9778 C   0  0  0  0  0  3  0  0  0  0  0  0
  1  6  1  0
  1  2  1  0
  2  3  1  0
  4  9  1  0
  4  3  1  0
  5  1  1  0
  5  4  1  0
  7  8  1  0
  7  6  1  0
  9 11  2  0
 10 12  2  0
 10  9  1  0
 11 13  1  0
 12 14  1  0
 13 15  1  0
 14 16  1  0
 14 13  2  0
 16 17  1  0
 17 15  2  0
 18 12  1  0
 19 18  1  0
 20 19  2  0
 21 19  1  0
 22 20  1  0
 23 21  2  0
 24 22  2  0
 24 23  1  0
M  RAD  8   1   2   2   3   3   3   5   3   6   3   8   2  17   2  20   2
M  RAD  4  21   2  22   2  23   2  24   2
M  END
>  <REMARK>  (1) 
 SMILES COCC1CCN(c2nc(Nc3ccccc3)c3[nH]cnc3n2)C1
 SMILES IDX 4 1 5 2 6 3 7 4 24 5 3 6 2 7 1 8 8 9 9 10 23 11 10 12 22 13
 SMILES IDX 18 14 21 15 19 16 20 17 11 19 12 21 13 22 17 23 14 24 16 25
 SMILES IDX 15 26
 H PARENT 19 18 11 20

>  <TORSDO>  (1) 
F 5

$$$$
