/home/pchatterjee/Documents/git/vs_workflow/DiffDock/diffdock_run/pdbqt_scrubbed/Z2611810317.pdbqt
     RDKit          3D

 24 27  0  0  1  0  0  0  0  0999 V2000
    3.8460   46.6107   53.7712 C   0  0  0  0  0  3  0  0  0  0  0  0
    2.7776   46.1625   52.7963 C   0  0  0  0  0  2  0  0  0  0  0  0
    3.4614   46.0633   51.4265 C   0  0  0  0  0  2  0  0  0  0  0  0
    4.8648   46.2533   51.7632 N   0  0  0  0  0  0  0  0  0  0  0  0
    4.8472   47.2604   52.8382 C   0  0  0  0  0  2  0  0  0  0  0  0
    3.3118   47.5700   54.8095 C   0  0  0  0  0  2  0  0  0  0  0  0
    3.3114   48.8746   54.3773 O   0  0  0  0  0  0  0  0  0  0  0  0
    3.5930   49.6935   55.4444 C   0  0  0  0  0  1  0  0  0  0  0  0
    6.0141   45.6278   51.2052 C   0  0  0  0  0  0  0  0  0  0  0  0
    5.9561   44.5439   50.4112 N   0  0  0  0  0  0  0  0  0  0  0  0
    7.2404   46.1499   51.4856 N   0  0  0  0  0  0  0  0  0  0  0  0
    7.0887   43.9836   49.9018 C   0  0  0  0  0  0  0  0  0  0  0  0
    8.3634   45.6237   51.0023 C   0  0  0  0  0  0  0  0  0  0  0  0
    8.3285   44.5157   50.1885 C   0  0  0  0  0  0  0  0  0  0  0  0
    9.6319   45.9696   51.1495 N   0  0  0  0  0  0  0  0  0  0  0  0
    9.6036   44.2040   49.8504 N   0  0  0  0  0  0  0  0  0  0  0  0
   10.3961   45.1118   50.4522 C   0  0  0  0  0  3  0  0  0  0  0  0
    7.0541   42.8370   49.0625 N   0  0  0  0  0  0  0  0  0  0  0  0
    5.8712   42.1156   48.7630 C   0  0  0  0  0  0  0  0  0  0  0  0
    5.6658   41.6180   47.4809 C   0  0  0  0  0  3  0  0  0  0  0  0
    4.9656   41.9403   49.7848 C   0  0  0  0  0  3  0  0  0  0  0  0
    4.4893   40.9149   47.2379 C   0  0  0  0  0  3  0  0  0  0  0  0
    3.8145   41.2440   49.5197 C   0  0  0  0  0  3  0  0  0  0  0  0
    3.5854   40.7430   48.2682 C   0  0  0  0  0  3  0  0  0  0  0  0
  1  6  1  0
  1  2  1  0
  2  3  1  0
  4  9  1  0
  4  3  1  0
  5  1  1  0
  5  4  1  0
  7  8  1  0
  7  6  1  0
  9 11  2  0
 10 12  2  0
 10  9  1  0
 11 13  1  0
 12 14  1  0
 13 15  1  0
 14 16  1  0
 14 13  2  0
 16 17  1  0
 17 15  2  0
 18 12  1  0
 19 18  1  0
 20 19  2  0
 21 19  1  0
 22 20  1  0
 23 21  2  0
 24 22  2  0
 24 23  1  0
M  RAD  8   1   2   2   3   3   3   5   3   6   3   8   2  17   2  20   2
M  RAD  4  21   2  22   2  23   2  24   2
M  END
>  <REMARK>  (1) 
 SMILES COCC1CCN(c2nc(Nc3ccccc3)c3[nH]cnc3n2)C1
 SMILES IDX 4 1 5 2 6 3 7 4 24 5 3 6 2 7 1 8 8 9 9 10 23 11 10 12 22 13
 SMILES IDX 18 14 21 15 19 16 20 17 11 19 12 21 13 22 17 23 14 24 16 25
 SMILES IDX 15 26
 H PARENT 19 18 11 20

>  <TORSDO>  (1) 
F 5

$$$$
