/home/pchatterjee/Documents/git/vs_workflow/DiffDock/diffdock_run/pdbqt_scrubbed/Z1272453975.pdbqt
     RDKit          3D

 26 30  0  0  0  0  0  0  0  0999 V2000
    4.7865   43.6278   50.8242 C   0  0  0  0  0  0  0  0  0  0  0  0
    3.5252   44.2343   50.7091 C   0  0  0  0  0  3  0  0  0  0  0  0
    2.4253   43.5009   50.3257 C   0  0  0  0  0  3  0  0  0  0  0  0
    2.6106   42.1362   50.0550 C   0  0  0  0  0  0  0  0  0  0  0  0
    3.8404   41.5307   50.1630 C   0  0  0  0  0  3  0  0  0  0  0  0
    4.9330   42.3003   50.5539 C   0  0  0  0  0  3  0  0  0  0  0  0
    5.8245   44.5042   51.2311 N   0  0  0  0  0  0  0  0  0  0  0  0
    7.0723   44.4254   50.5489 C   0  0  0  0  0  0  0  0  0  0  0  0
    8.2257   43.5101   48.7216 C   0  0  0  0  0  3  0  0  0  0  0  0
    7.1019   43.6650   49.4415 N   0  0  0  0  0  0  0  0  0  0  0  0
    9.3548   44.1330   49.1199 N   0  0  0  0  0  0  0  0  0  0  0  0
    9.3750   44.9026   50.2193 C   0  0  0  0  0  0  0  0  0  0  0  0
    8.2190   45.0573   50.9515 C   0  0  0  0  0  0  0  0  0  0  0  0
   10.3384   45.6226   50.8354 N   0  0  0  0  0  0  0  0  0  0  0  0
    8.4840   45.8843   52.0306 C   0  0  0  0  0  3  0  0  0  0  0  0
    9.8084   46.2160   51.9272 C   0  0  0  0  0  3  0  0  0  0  0  0
    1.4517   41.4604   49.6733 O   0  0  0  0  0  0  0  0  0  0  0  0
    1.4616   40.8557   48.3952 C   0  0  0  0  0  2  0  0  0  0  0  0
    0.2104   40.0911   48.1850 C   0  0  0  0  0  0  0  0  0  0  0  0
   -0.0046   38.7850   48.0100 N   0  0  0  0  0  0  0  0  0  0  0  0
   -1.0064   40.6853   48.1389 N   0  0  0  0  0  0  0  0  0  0  0  0
   -1.2954   38.6079   47.8646 O   0  0  0  0  0  0  0  0  0  0  0  0
   -1.9334   39.7523   47.9387 C   0  0  0  0  0  0  0  0  0  0  0  0
   -3.3848   40.0455   47.8339 C   0  0  0  0  0  3  0  0  0  0  0  0
   -3.8579   41.3818   48.4659 C   0  0  0  0  0  2  0  0  0  0  0  0
   -3.8057   41.1831   46.9602 C   0  0  0  0  0  2  0  0  0  0  0  0
  1  6  1  0
  1  2  2  0
  2  3  1  0
  3  4  2  0
  4 17  1  0
  5  4  1  0
  6  5  2  0
  7  1  1  0
  8  7  1  0
  8 10  1  0
  9 10  2  0
 11  9  1  0
 12 13  1  0
 12 11  2  0
 13  8  2  0
 14 12  1  0
 15 13  1  0
 16 14  1  0
 16 15  2  0
 17 18  1  0
 19 20  2  0
 19 18  1  0
 21 19  1  0
 22 20  1  0
 23 21  2  0
 23 22  1  0
 24 23  1  0
 25 24  1  0
 26 25  1  0
 26 24  1  0
M  RAD  8   2   2   3   2   5   2   6   2   9   2  15   2  16   2  18   3
M  RAD  3  24   2  25   3  26   3
M  END
>  <REMARK>  (1) 
 SMILES c1nc(Nc2ccc(OCc3noc(C4CC4)n3)cc2)c2cc[nH]c2n1
 SMILES IDX 5 1 6 2 7 3 8 4 19 5 20 6 4 7 3 9 1 10 2 11 26 12 25 13
 SMILES IDX 21 14 24 15 22 16 23 17 9 19 10 20 11 21 12 22 18 23 13 24
 SMILES IDX 14 25 15 26 16 27 17 28
 H PARENT 4 8 24 18

>  <TORSDO>  (1) 
F 6

$$$$
