/home/pchatterjee/Documents/git/vs_workflow/DiffDock/diffdock_run/pdbqt_scrubbed/Z1272453975.pdbqt
     RDKit          3D

 26 30  0  0  0  0  0  0  0  0999 V2000
    4.6571   43.6763   50.5727 C   0  0  0  0  0  0  0  0  0  0  0  0
    3.3164   44.0908   50.6286 C   0  0  0  0  0  3  0  0  0  0  0  0
    2.3075   43.2679   50.1820 C   0  0  0  0  0  3  0  0  0  0  0  0
    2.6660   42.0106   49.6716 C   0  0  0  0  0  0  0  0  0  0  0  0
    3.9747   41.5934   49.6105 C   0  0  0  0  0  3  0  0  0  0  0  0
    4.9719   42.4491   50.0710 C   0  0  0  0  0  3  0  0  0  0  0  0
    5.5861   44.6252   51.0702 N   0  0  0  0  0  0  0  0  0  0  0  0
    6.8901   44.6482   50.4977 C   0  0  0  0  0  0  0  0  0  0  0  0
    8.2531   43.8690   48.7535 C   0  0  0  0  0  3  0  0  0  0  0  0
    7.0642   43.9285   49.3765 N   0  0  0  0  0  0  0  0  0  0  0  0
    9.3005   44.5486   49.2659 N   0  0  0  0  0  0  0  0  0  0  0  0
    9.1760   45.2809   50.3837 C   0  0  0  0  0  0  0  0  0  0  0  0
    7.9540   45.3378   51.0162 C   0  0  0  0  0  0  0  0  0  0  0  0
   10.0337   46.0396   51.1012 N   0  0  0  0  0  0  0  0  0  0  0  0
    8.0709   46.1436   52.1367 C   0  0  0  0  0  3  0  0  0  0  0  0
    9.3745   46.5617   52.1586 C   0  0  0  0  0  3  0  0  0  0  0  0
    1.5906   41.2344   49.2396 O   0  0  0  0  0  0  0  0  0  0  0  0
    1.8740   40.2362   48.2791 C   0  0  0  0  0  2  0  0  0  0  0  0
    0.6446   39.4735   47.9609 C   0  0  0  0  0  0  0  0  0  0  0  0
    0.4729   38.2723   47.4037 N   0  0  0  0  0  0  0  0  0  0  0  0
   -0.5960   39.9504   48.2239 N   0  0  0  0  0  0  0  0  0  0  0  0
   -0.8161   38.0430   47.3364 O   0  0  0  0  0  0  0  0  0  0  0  0
   -1.4947   39.0518   47.8303 C   0  0  0  0  0  0  0  0  0  0  0  0
   -2.9606   39.2423   47.9655 C   0  0  0  0  0  3  0  0  0  0  0  0
   -3.5770   38.8417   49.3325 C   0  0  0  0  0  2  0  0  0  0  0  0
   -3.4433   40.2955   48.9104 C   0  0  0  0  0  2  0  0  0  0  0  0
  1  6  1  0
  1  2  2  0
  2  3  1  0
  3  4  2  0
  4 17  1  0
  5  4  1  0
  6  5  2  0
  7  1  1  0
  8  7  1  0
  8 10  1  0
  9 10  2  0
 11  9  1  0
 12 13  1  0
 12 11  2  0
 13  8  2  0
 14 12  1  0
 15 13  1  0
 16 14  1  0
 16 15  2  0
 17 18  1  0
 19 20  2  0
 19 18  1  0
 21 19  1  0
 22 20  1  0
 23 21  2  0
 23 22  1  0
 24 23  1  0
 25 24  1  0
 26 25  1  0
 26 24  1  0
M  RAD  8   2   2   3   2   5   2   6   2   9   2  15   2  16   2  18   3
M  RAD  3  24   2  25   3  26   3
M  END
>  <REMARK>  (1) 
 SMILES c1nc(Nc2ccc(OCc3noc(C4CC4)n3)cc2)c2cc[nH]c2n1
 SMILES IDX 5 1 6 2 7 3 8 4 19 5 20 6 4 7 3 9 1 10 2 11 26 12 25 13
 SMILES IDX 21 14 24 15 22 16 23 17 9 19 10 20 11 21 12 22 18 23 13 24
 SMILES IDX 14 25 15 26 16 27 17 28
 H PARENT 4 8 24 18

>  <TORSDO>  (1) 
F 6

$$$$
