/home/pchatterjee/Documents/git/vs_workflow/DiffDock/diffdock_run/pdbqt_scrubbed/Z1272453975.pdbqt
     RDKit          3D

 26 30  0  0  0  0  0  0  0  0999 V2000
    4.7301   43.6929   50.6066 C   0  0  0  0  0  0  0  0  0  0  0  0
    3.4130   44.1638   50.7315 C   0  0  0  0  0  3  0  0  0  0  0  0
    2.3505   43.4008   50.3033 C   0  0  0  0  0  3  0  0  0  0  0  0
    2.6307   42.1460   49.7404 C   0  0  0  0  0  0  0  0  0  0  0  0
    3.9157   41.6740   49.6114 C   0  0  0  0  0  3  0  0  0  0  0  0
    4.9685   42.4699   50.0552 C   0  0  0  0  0  3  0  0  0  0  0  0
    5.7206   44.5837   51.0929 N   0  0  0  0  0  0  0  0  0  0  0  0
    7.0303   44.4940   50.5401 C   0  0  0  0  0  0  0  0  0  0  0  0
    8.3730   43.4976   48.8935 C   0  0  0  0  0  3  0  0  0  0  0  0
    7.1817   43.6686   49.4907 N   0  0  0  0  0  0  0  0  0  0  0  0
    9.4462   44.1710   49.3584 N   0  0  0  0  0  0  0  0  0  0  0  0
    9.3450   45.0063   50.4041 C   0  0  0  0  0  0  0  0  0  0  0  0
    8.1204   45.1771   51.0106 C   0  0  0  0  0  0  0  0  0  0  0  0
   10.2303   45.7858   51.0634 N   0  0  0  0  0  0  0  0  0  0  0  0
    8.2637   46.0744   52.0559 C   0  0  0  0  0  3  0  0  0  0  0  0
    9.5856   46.4314   52.0597 C   0  0  0  0  0  3  0  0  0  0  0  0
    1.5047   41.4320   49.3309 O   0  0  0  0  0  0  0  0  0  0  0  0
    1.6716   40.5604   48.2301 C   0  0  0  0  0  2  0  0  0  0  0  0
    0.4243   39.7975   47.9921 C   0  0  0  0  0  0  0  0  0  0  0  0
    0.1944   38.4840   47.9262 N   0  0  0  0  0  0  0  0  0  0  0  0
   -0.7710   40.4024   47.7892 N   0  0  0  0  0  0  0  0  0  0  0  0
   -1.0842   38.3128   47.6928 O   0  0  0  0  0  0  0  0  0  0  0  0
   -1.6999   39.4682   47.6039 C   0  0  0  0  0  0  0  0  0  0  0  0
   -3.1311   39.7713   47.3524 C   0  0  0  0  0  3  0  0  0  0  0  0
   -4.0162   39.9756   48.6109 C   0  0  0  0  0  2  0  0  0  0  0  0
   -3.6287   41.1353   47.7085 C   0  0  0  0  0  2  0  0  0  0  0  0
  1  6  1  0
  1  2  2  0
  2  3  1  0
  3  4  2  0
  4 17  1  0
  5  4  1  0
  6  5  2  0
  7  1  1  0
  8  7  1  0
  8 10  1  0
  9 10  2  0
 11  9  1  0
 12 13  1  0
 12 11  2  0
 13  8  2  0
 14 12  1  0
 15 13  1  0
 16 14  1  0
 16 15  2  0
 17 18  1  0
 19 20  2  0
 19 18  1  0
 21 19  1  0
 22 20  1  0
 23 21  2  0
 23 22  1  0
 24 23  1  0
 25 24  1  0
 26 25  1  0
 26 24  1  0
M  RAD  8   2   2   3   2   5   2   6   2   9   2  15   2  16   2  18   3
M  RAD  3  24   2  25   3  26   3
M  END
>  <REMARK>  (1) 
 SMILES c1nc(Nc2ccc(OCc3noc(C4CC4)n3)cc2)c2cc[nH]c2n1
 SMILES IDX 5 1 6 2 7 3 8 4 19 5 20 6 4 7 3 9 1 10 2 11 26 12 25 13
 SMILES IDX 21 14 24 15 22 16 23 17 9 19 10 20 11 21 12 22 18 23 13 24
 SMILES IDX 14 25 15 26 16 27 17 28
 H PARENT 4 8 24 18

>  <TORSDO>  (1) 
F 6

$$$$
