/home/pchatterjee/Documents/git/vs_workflow/DiffDock/diffdock_run/pdbqt_scrubbed/Z1272453975.pdbqt
     RDKit          3D

 26 30  0  0  0  0  0  0  0  0999 V2000
    6.9147   46.6547   53.3357 C   0  0  0  0  0  0  0  0  0  0  0  0
    8.2047   46.8477   53.8559 C   0  0  0  0  0  3  0  0  0  0  0  0
    8.5424   48.0288   54.4769 C   0  0  0  0  0  3  0  0  0  0  0  0
    7.5578   49.0249   54.5682 C   0  0  0  0  0  0  0  0  0  0  0  0
    6.2916   48.8488   54.0620 C   0  0  0  0  0  3  0  0  0  0  0  0
    5.9815   47.6420   53.4404 C   0  0  0  0  0  3  0  0  0  0  0  0
    6.7100   45.3898   52.7281 N   0  0  0  0  0  0  0  0  0  0  0  0
    7.6036   44.9928   51.6924 C   0  0  0  0  0  0  0  0  0  0  0  0
    9.6565   45.4177   50.6378 C   0  0  0  0  0  3  0  0  0  0  0  0
    8.7430   45.6964   51.5828 N   0  0  0  0  0  0  0  0  0  0  0  0
    9.4251   44.4056   49.7754 N   0  0  0  0  0  0  0  0  0  0  0  0
    8.3017   43.6745   49.8448 C   0  0  0  0  0  0  0  0  0  0  0  0
    7.3704   43.9657   50.8166 C   0  0  0  0  0  0  0  0  0  0  0  0
    7.8213   42.6338   49.1292 N   0  0  0  0  0  0  0  0  0  0  0  0
    6.3064   43.0881   50.6894 C   0  0  0  0  0  3  0  0  0  0  0  0
    6.6198   42.2760   49.6324 C   0  0  0  0  0  3  0  0  0  0  0  0
    7.9739   50.1913   55.2100 O   0  0  0  0  0  0  0  0  0  0  0  0
    7.5156   50.3854   56.5335 C   0  0  0  0  0  2  0  0  0  0  0  0
    7.5851   51.8215   56.8900 C   0  0  0  0  0  0  0  0  0  0  0  0
    6.6704   52.6462   57.4056 N   0  0  0  0  0  0  0  0  0  0  0  0
    8.7083   52.5599   56.7195 N   0  0  0  0  0  0  0  0  0  0  0  0
    7.2245   53.8271   57.5361 O   0  0  0  0  0  0  0  0  0  0  0  0
    8.4703   53.8047   57.1244 C   0  0  0  0  0  0  0  0  0  0  0  0
    9.4819   54.8902   57.0812 C   0  0  0  0  0  3  0  0  0  0  0  0
   10.6860   54.7391   58.0489 C   0  0  0  0  0  2  0  0  0  0  0  0
   10.8386   54.5590   56.5477 C   0  0  0  0  0  2  0  0  0  0  0  0
  1  6  1  0
  1  2  2  0
  2  3  1  0
  3  4  2  0
  4 17  1  0
  5  4  1  0
  6  5  2  0
  7  1  1  0
  8  7  1  0
  8 10  1  0
  9 10  2  0
 11  9  1  0
 12 13  1  0
 12 11  2  0
 13  8  2  0
 14 12  1  0
 15 13  1  0
 16 14  1  0
 16 15  2  0
 17 18  1  0
 19 20  2  0
 19 18  1  0
 21 19  1  0
 22 20  1  0
 23 21  2  0
 23 22  1  0
 24 23  1  0
 25 24  1  0
 26 25  1  0
 26 24  1  0
M  RAD  8   2   2   3   2   5   2   6   2   9   2  15   2  16   2  18   3
M  RAD  3  24   2  25   3  26   3
M  END
>  <REMARK>  (1) 
 SMILES c1nc(Nc2ccc(OCc3noc(C4CC4)n3)cc2)c2cc[nH]c2n1
 SMILES IDX 5 1 6 2 7 3 8 4 19 5 20 6 4 7 3 9 1 10 2 11 26 12 25 13
 SMILES IDX 21 14 24 15 22 16 23 17 9 19 10 20 11 21 12 22 18 23 13 24
 SMILES IDX 14 25 15 26 16 27 17 28
 H PARENT 4 8 24 18

>  <TORSDO>  (1) 
F 6

$$$$
