/home/pchatterjee/Documents/git/vs_workflow/DiffDock/diffdock_run/pdbqt_scrubbed/Z1272453975.pdbqt
     RDKit          3D

 26 30  0  0  0  0  0  0  0  0999 V2000
    4.7140   44.0195   50.9524 C   0  0  0  0  0  0  0  0  0  0  0  0
    4.8977   42.6675   50.6200 C   0  0  0  0  0  3  0  0  0  0  0  0
    3.8510   41.9135   50.1397 C   0  0  0  0  0  3  0  0  0  0  0  0
    2.6037   42.5410   49.9976 C   0  0  0  0  0  0  0  0  0  0  0  0
    2.4105   43.8635   50.3204 C   0  0  0  0  0  3  0  0  0  0  0  0
    3.4898   44.5990   50.8029 C   0  0  0  0  0  3  0  0  0  0  0  0
    5.8799   44.6702   51.4303 N   0  0  0  0  0  0  0  0  0  0  0  0
    7.0641   44.5838   50.6436 C   0  0  0  0  0  0  0  0  0  0  0  0
    8.0088   43.7915   48.6469 C   0  0  0  0  0  3  0  0  0  0  0  0
    6.9562   43.9417   49.4682 N   0  0  0  0  0  0  0  0  0  0  0  0
    9.2061   44.2975   49.0104 N   0  0  0  0  0  0  0  0  0  0  0  0
    9.3635   44.9465   50.1746 C   0  0  0  0  0  0  0  0  0  0  0  0
    8.2797   45.0972   51.0109 C   0  0  0  0  0  0  0  0  0  0  0  0
   10.4191   45.5368   50.7773 N   0  0  0  0  0  0  0  0  0  0  0  0
    8.6832   45.7899   52.1404 C   0  0  0  0  0  3  0  0  0  0  0  0
   10.0163   46.0463   51.9618 C   0  0  0  0  0  3  0  0  0  0  0  0
    1.5937   41.7142   49.5058 O   0  0  0  0  0  0  0  0  0  0  0  0
    1.9983   40.6427   48.6766 C   0  0  0  0  0  2  0  0  0  0  0  0
    0.8141   39.8806   48.2168 C   0  0  0  0  0  0  0  0  0  0  0  0
    0.5440   38.5733   48.2421 N   0  0  0  0  0  0  0  0  0  0  0  0
   -0.2616   40.4793   47.6512 N   0  0  0  0  0  0  0  0  0  0  0  0
   -0.6427   38.3996   47.7128 O   0  0  0  0  0  0  0  0  0  0  0  0
   -1.1594   39.5475   47.3420 C   0  0  0  0  0  0  0  0  0  0  0  0
   -2.4660   39.8453   46.7035 C   0  0  0  0  0  3  0  0  0  0  0  0
   -3.5109   40.5692   47.5941 C   0  0  0  0  0  2  0  0  0  0  0  0
   -2.8077   41.2781   46.4485 C   0  0  0  0  0  2  0  0  0  0  0  0
  1  6  1  0
  1  2  2  0
  2  3  1  0
  3  4  2  0
  4 17  1  0
  5  4  1  0
  6  5  2  0
  7  1  1  0
  8  7  1  0
  8 10  1  0
  9 10  2  0
 11  9  1  0
 12 13  1  0
 12 11  2  0
 13  8  2  0
 14 12  1  0
 15 13  1  0
 16 14  1  0
 16 15  2  0
 17 18  1  0
 19 20  2  0
 19 18  1  0
 21 19  1  0
 22 20  1  0
 23 21  2  0
 23 22  1  0
 24 23  1  0
 25 24  1  0
 26 25  1  0
 26 24  1  0
M  RAD  8   2   2   3   2   5   2   6   2   9   2  15   2  16   2  18   3
M  RAD  3  24   2  25   3  26   3
M  END
>  <REMARK>  (1) 
 SMILES c1nc(Nc2ccc(OCc3noc(C4CC4)n3)cc2)c2cc[nH]c2n1
 SMILES IDX 5 1 6 2 7 3 8 4 19 5 20 6 4 7 3 9 1 10 2 11 26 12 25 13
 SMILES IDX 21 14 24 15 22 16 23 17 9 19 10 20 11 21 12 22 18 23 13 24
 SMILES IDX 14 25 15 26 16 27 17 28
 H PARENT 4 8 24 18

>  <TORSDO>  (1) 
F 6

$$$$
