/home/pchatterjee/Documents/git/vs_workflow/DiffDock/diffdock_run/pdbqt_scrubbed/Z1272453975.pdbqt
     RDKit          3D

 26 30  0  0  0  0  0  0  0  0999 V2000
    4.4856   44.1969   51.0556 C   0  0  0  0  0  0  0  0  0  0  0  0
    4.8149   42.8700   50.7348 C   0  0  0  0  0  3  0  0  0  0  0  0
    3.8375   41.9719   50.3704 C   0  0  0  0  0  3  0  0  0  0  0  0
    2.5107   42.4279   50.3335 C   0  0  0  0  0  0  0  0  0  0  0  0
    2.1750   43.7241   50.6463 C   0  0  0  0  0  3  0  0  0  0  0  0
    3.1873   44.6081   51.0103 C   0  0  0  0  0  3  0  0  0  0  0  0
    5.5940   45.0080   51.4086 N   0  0  0  0  0  0  0  0  0  0  0  0
    6.8280   44.7849   50.7331 C   0  0  0  0  0  0  0  0  0  0  0  0
    7.9466   43.5030   49.1167 C   0  0  0  0  0  3  0  0  0  0  0  0
    6.8371   43.8082   49.8104 N   0  0  0  0  0  0  0  0  0  0  0  0
    9.0819   44.1939   49.3518 N   0  0  0  0  0  0  0  0  0  0  0  0
    9.1224   45.1778   50.2637 C   0  0  0  0  0  0  0  0  0  0  0  0
    7.9810   45.4854   50.9702 C   0  0  0  0  0  0  0  0  0  0  0  0
   10.0961   46.0097   50.6946 N   0  0  0  0  0  0  0  0  0  0  0  0
    8.2657   46.5208   51.8453 C   0  0  0  0  0  3  0  0  0  0  0  0
    9.5869   46.8208   51.6474 C   0  0  0  0  0  3  0  0  0  0  0  0
    1.5781   41.4620   49.9556 O   0  0  0  0  0  0  0  0  0  0  0  0
    0.4866   41.9054   49.1737 C   0  0  0  0  0  2  0  0  0  0  0  0
   -0.3394   40.7501   48.7525 C   0  0  0  0  0  0  0  0  0  0  0  0
   -1.5306   40.3189   49.1741 N   0  0  0  0  0  0  0  0  0  0  0  0
    0.0522   39.8917   47.7801 N   0  0  0  0  0  0  0  0  0  0  0  0
   -1.8360   39.2477   48.4829 O   0  0  0  0  0  0  0  0  0  0  0  0
   -0.8867   38.9624   47.6229 C   0  0  0  0  0  0  0  0  0  0  0  0
   -0.7906   37.8558   46.6382 C   0  0  0  0  0  3  0  0  0  0  0  0
    0.2807   38.0224   45.5276 C   0  0  0  0  0  2  0  0  0  0  0  0
    0.4448   37.0141   46.6526 C   0  0  0  0  0  2  0  0  0  0  0  0
  1  6  1  0
  1  2  2  0
  2  3  1  0
  3  4  2  0
  4 17  1  0
  5  4  1  0
  6  5  2  0
  7  1  1  0
  8  7  1  0
  8 10  1  0
  9 10  2  0
 11  9  1  0
 12 13  1  0
 12 11  2  0
 13  8  2  0
 14 12  1  0
 15 13  1  0
 16 14  1  0
 16 15  2  0
 17 18  1  0
 19 20  2  0
 19 18  1  0
 21 19  1  0
 22 20  1  0
 23 21  2  0
 23 22  1  0
 24 23  1  0
 25 24  1  0
 26 25  1  0
 26 24  1  0
M  RAD  8   2   2   3   2   5   2   6   2   9   2  15   2  16   2  18   3
M  RAD  3  24   2  25   3  26   3
M  END
>  <REMARK>  (1) 
 SMILES c1nc(Nc2ccc(OCc3noc(C4CC4)n3)cc2)c2cc[nH]c2n1
 SMILES IDX 5 1 6 2 7 3 8 4 19 5 20 6 4 7 3 9 1 10 2 11 26 12 25 13
 SMILES IDX 21 14 24 15 22 16 23 17 9 19 10 20 11 21 12 22 18 23 13 24
 SMILES IDX 14 25 15 26 16 27 17 28
 H PARENT 4 8 24 18

>  <TORSDO>  (1) 
F 6

$$$$
