/home/pchatterjee/Documents/git/vs_workflow/DiffDock/diffdock_run/pdbqt_scrubbed/Z1272453975.pdbqt
     RDKit          3D

 26 30  0  0  0  0  0  0  0  0999 V2000
    7.1595   46.5947   52.6272 C   0  0  0  0  0  0  0  0  0  0  0  0
    6.3702   47.1633   53.6400 C   0  0  0  0  0  3  0  0  0  0  0  0
    6.8279   48.2386   54.3671 C   0  0  0  0  0  3  0  0  0  0  0  0
    8.1028   48.7399   54.0621 C   0  0  0  0  0  0  0  0  0  0  0  0
    8.8859   48.1916   53.0738 C   0  0  0  0  0  3  0  0  0  0  0  0
    8.3935   47.1049   52.3558 C   0  0  0  0  0  3  0  0  0  0  0  0
    6.5581   45.4967   51.9609 N   0  0  0  0  0  0  0  0  0  0  0  0
    7.3861   44.6759   51.1427 C   0  0  0  0  0  0  0  0  0  0  0  0
    9.5564   44.3218   50.3232 C   0  0  0  0  0  3  0  0  0  0  0  0
    8.6835   45.0179   51.0707 N   0  0  0  0  0  0  0  0  0  0  0  0
    9.1205   43.2517   49.6258 N   0  0  0  0  0  0  0  0  0  0  0  0
    7.8339   42.8714   49.6655 C   0  0  0  0  0  0  0  0  0  0  0  0
    6.9453   43.5893   50.4346 C   0  0  0  0  0  0  0  0  0  0  0  0
    7.1397   41.8696   49.0820 N   0  0  0  0  0  0  0  0  0  0  0  0
    5.6904   43.0150   50.3162 C   0  0  0  0  0  3  0  0  0  0  0  0
    5.8481   41.9507   49.4694 C   0  0  0  0  0  3  0  0  0  0  0  0
    8.4969   49.8286   54.8399 O   0  0  0  0  0  0  0  0  0  0  0  0
    9.5067   49.5899   55.8004 C   0  0  0  0  0  2  0  0  0  0  0  0
    9.6439   50.7620   56.6958 C   0  0  0  0  0  0  0  0  0  0  0  0
   10.6135   51.1139   57.5436 N   0  0  0  0  0  0  0  0  0  0  0  0
    8.7000   51.7307   56.7759 N   0  0  0  0  0  0  0  0  0  0  0  0
   10.2620   52.2444   58.1065 O   0  0  0  0  0  0  0  0  0  0  0  0
    9.0963   52.6456   57.6567 C   0  0  0  0  0  0  0  0  0  0  0  0
    8.3048   53.8540   57.9985 C   0  0  0  0  0  3  0  0  0  0  0  0
    7.1995   54.2543   56.9850 C   0  0  0  0  0  2  0  0  0  0  0  0
    6.8628   53.6685   58.3462 C   0  0  0  0  0  2  0  0  0  0  0  0
  1  6  1  0
  1  2  2  0
  2  3  1  0
  3  4  2  0
  4 17  1  0
  5  4  1  0
  6  5  2  0
  7  1  1  0
  8  7  1  0
  8 10  1  0
  9 10  2  0
 11  9  1  0
 12 13  1  0
 12 11  2  0
 13  8  2  0
 14 12  1  0
 15 13  1  0
 16 14  1  0
 16 15  2  0
 17 18  1  0
 19 20  2  0
 19 18  1  0
 21 19  1  0
 22 20  1  0
 23 21  2  0
 23 22  1  0
 24 23  1  0
 25 24  1  0
 26 25  1  0
 26 24  1  0
M  RAD  8   2   2   3   2   5   2   6   2   9   2  15   2  16   2  18   3
M  RAD  3  24   2  25   3  26   3
M  END
>  <REMARK>  (1) 
 SMILES c1nc(Nc2ccc(OCc3noc(C4CC4)n3)cc2)c2cc[nH]c2n1
 SMILES IDX 5 1 6 2 7 3 8 4 19 5 20 6 4 7 3 9 1 10 2 11 26 12 25 13
 SMILES IDX 21 14 24 15 22 16 23 17 9 19 10 20 11 21 12 22 18 23 13 24
 SMILES IDX 14 25 15 26 16 27 17 28
 H PARENT 4 8 24 18

>  <TORSDO>  (1) 
F 6

$$$$
