/home/pchatterjee/Documents/git/vs_workflow/DiffDock/diffdock_run/pdbqt_scrubbed/Z1272453975.pdbqt
     RDKit          3D

 26 30  0  0  0  0  0  0  0  0999 V2000
    5.7830   45.1522   52.0232 C   0  0  0  0  0  0  0  0  0  0  0  0
    6.7901   45.9316   51.4312 C   0  0  0  0  0  3  0  0  0  0  0  0
    7.5113   46.8340   52.1795 C   0  0  0  0  0  3  0  0  0  0  0  0
    7.2039   46.9462   53.5443 C   0  0  0  0  0  0  0  0  0  0  0  0
    6.2197   46.1897   54.1357 C   0  0  0  0  0  3  0  0  0  0  0  0
    5.5088   45.2852   53.3513 C   0  0  0  0  0  3  0  0  0  0  0  0
    5.1274   44.2647   51.1323 N   0  0  0  0  0  0  0  0  0  0  0  0
    5.9079   43.6342   50.1214 C   0  0  0  0  0  0  0  0  0  0  0  0
    7.9730   43.6029   49.0071 C   0  0  0  0  0  3  0  0  0  0  0  0
    7.1496   44.1137   49.9379 N   0  0  0  0  0  0  0  0  0  0  0  0
    7.5433   42.5823   48.2356 N   0  0  0  0  0  0  0  0  0  0  0  0
    6.3114   42.0698   48.3811 C   0  0  0  0  0  0  0  0  0  0  0  0
    5.4735   42.5981   49.3378 C   0  0  0  0  0  0  0  0  0  0  0  0
    5.6358   41.0769   47.7616 N   0  0  0  0  0  0  0  0  0  0  0  0
    4.2687   41.9157   49.2988 C   0  0  0  0  0  3  0  0  0  0  0  0
    4.4048   40.9792   48.3093 C   0  0  0  0  0  3  0  0  0  0  0  0
    7.9761   47.8795   54.2357 O   0  0  0  0  0  0  0  0  0  0  0  0
    7.3788   48.4853   55.3651 C   0  0  0  0  0  2  0  0  0  0  0  0
    8.3907   49.2587   56.1217 C   0  0  0  0  0  0  0  0  0  0  0  0
    8.3396   50.4741   56.6720 N   0  0  0  0  0  0  0  0  0  0  0  0
    9.6309   48.7777   56.3791 N   0  0  0  0  0  0  0  0  0  0  0  0
    9.5010   50.7085   57.2330 O   0  0  0  0  0  0  0  0  0  0  0  0
   10.3109   49.6889   57.0699 C   0  0  0  0  0  0  0  0  0  0  0  0
   11.7109   49.4986   57.5250 C   0  0  0  0  0  3  0  0  0  0  0  0
   12.2763   48.0579   57.4075 C   0  0  0  0  0  2  0  0  0  0  0  0
   12.7430   49.1776   56.4923 C   0  0  0  0  0  2  0  0  0  0  0  0
  1  6  1  0
  1  2  2  0
  2  3  1  0
  3  4  2  0
  4 17  1  0
  5  4  1  0
  6  5  2  0
  7  1  1  0
  8  7  1  0
  8 10  1  0
  9 10  2  0
 11  9  1  0
 12 13  1  0
 12 11  2  0
 13  8  2  0
 14 12  1  0
 15 13  1  0
 16 14  1  0
 16 15  2  0
 17 18  1  0
 19 20  2  0
 19 18  1  0
 21 19  1  0
 22 20  1  0
 23 21  2  0
 23 22  1  0
 24 23  1  0
 25 24  1  0
 26 25  1  0
 26 24  1  0
M  RAD  8   2   2   3   2   5   2   6   2   9   2  15   2  16   2  18   3
M  RAD  3  24   2  25   3  26   3
M  END
>  <REMARK>  (1) 
 SMILES c1nc(Nc2ccc(OCc3noc(C4CC4)n3)cc2)c2cc[nH]c2n1
 SMILES IDX 5 1 6 2 7 3 8 4 19 5 20 6 4 7 3 9 1 10 2 11 26 12 25 13
 SMILES IDX 21 14 24 15 22 16 23 17 9 19 10 20 11 21 12 22 18 23 13 24
 SMILES IDX 14 25 15 26 16 27 17 28
 H PARENT 4 8 24 18

>  <TORSDO>  (1) 
F 6

$$$$
