/home/pchatterjee/Documents/git/vs_workflow/DiffDock/diffdock_run/pdbqt_scrubbed/Z1272453975.pdbqt
     RDKit          3D

 26 30  0  0  0  0  0  0  0  0999 V2000
    4.8325   43.2508   50.2285 C   0  0  0  0  0  0  0  0  0  0  0  0
    3.4689   43.5123   50.4393 C   0  0  0  0  0  3  0  0  0  0  0  0
    2.5036   42.7448   49.8280 C   0  0  0  0  0  3  0  0  0  0  0  0
    2.9297   41.7011   48.9920 C   0  0  0  0  0  0  0  0  0  0  0  0
    4.2614   41.4354   48.7765 C   0  0  0  0  0  3  0  0  0  0  0  0
    5.2132   42.2298   49.4104 C   0  0  0  0  0  3  0  0  0  0  0  0
    5.7113   44.1189   50.9250 N   0  0  0  0  0  0  0  0  0  0  0  0
    7.0413   44.2583   50.4347 C   0  0  0  0  0  0  0  0  0  0  0  0
    8.5614   43.6404   48.7570 C   0  0  0  0  0  3  0  0  0  0  0  0
    7.3365   43.5903   49.3069 N   0  0  0  0  0  0  0  0  0  0  0  0
    9.5212   44.3799   49.3517 N   0  0  0  0  0  0  0  0  0  0  0  0
    9.2745   45.0643   50.4795 C   0  0  0  0  0  0  0  0  0  0  0  0
    8.0164   45.0087   51.0368 C   0  0  0  0  0  0  0  0  0  0  0  0
   10.0271   45.8617   51.2693 N   0  0  0  0  0  0  0  0  0  0  0  0
    8.0042   45.7844   52.1843 C   0  0  0  0  0  3  0  0  0  0  0  0
    9.2682   46.2983   52.2980 C   0  0  0  0  0  3  0  0  0  0  0  0
    1.8955   40.9687   48.4093 O   0  0  0  0  0  0  0  0  0  0  0  0
    0.6501   40.9863   49.0787 C   0  0  0  0  0  2  0  0  0  0  0  0
   -0.3230   40.1277   48.3644 C   0  0  0  0  0  0  0  0  0  0  0  0
   -1.3588   39.4122   48.8093 N   0  0  0  0  0  0  0  0  0  0  0  0
   -0.2804   39.9398   47.0233 N   0  0  0  0  0  0  0  0  0  0  0  0
   -1.9100   38.8215   47.7769 O   0  0  0  0  0  0  0  0  0  0  0  0
   -1.2718   39.1255   46.6713 C   0  0  0  0  0  0  0  0  0  0  0  0
   -1.5278   38.6998   45.2725 C   0  0  0  0  0  3  0  0  0  0  0  0
   -1.8615   39.8325   44.2652 C   0  0  0  0  0  2  0  0  0  0  0  0
   -0.5330   39.0957   44.2292 C   0  0  0  0  0  2  0  0  0  0  0  0
  1  6  1  0
  1  2  2  0
  2  3  1  0
  3  4  2  0
  4 17  1  0
  5  4  1  0
  6  5  2  0
  7  1  1  0
  8  7  1  0
  8 10  1  0
  9 10  2  0
 11  9  1  0
 12 13  1  0
 12 11  2  0
 13  8  2  0
 14 12  1  0
 15 13  1  0
 16 14  1  0
 16 15  2  0
 17 18  1  0
 19 20  2  0
 19 18  1  0
 21 19  1  0
 22 20  1  0
 23 21  2  0
 23 22  1  0
 24 23  1  0
 25 24  1  0
 26 25  1  0
 26 24  1  0
M  RAD  8   2   2   3   2   5   2   6   2   9   2  15   2  16   2  18   3
M  RAD  3  24   2  25   3  26   3
M  END
>  <REMARK>  (1) 
 SMILES c1nc(Nc2ccc(OCc3noc(C4CC4)n3)cc2)c2cc[nH]c2n1
 SMILES IDX 5 1 6 2 7 3 8 4 19 5 20 6 4 7 3 9 1 10 2 11 26 12 25 13
 SMILES IDX 21 14 24 15 22 16 23 17 9 19 10 20 11 21 12 22 18 23 13 24
 SMILES IDX 14 25 15 26 16 27 17 28
 H PARENT 4 8 24 18

>  <TORSDO>  (1) 
F 6

$$$$
