/home/pchatterjee/Documents/git/vs_workflow/DiffDock/diffdock_run/pdbqt_scrubbed/Z1272453975.pdbqt
     RDKit          3D

 26 30  0  0  0  0  0  0  0  0999 V2000
    4.6807   43.8974   50.8497 C   0  0  0  0  0  0  0  0  0  0  0  0
    3.4138   44.4940   50.7440 C   0  0  0  0  0  3  0  0  0  0  0  0
    2.3075   43.7413   50.4213 C   0  0  0  0  0  3  0  0  0  0  0  0
    2.4919   42.3673   50.2022 C   0  0  0  0  0  0  0  0  0  0  0  0
    3.7270   41.7714   50.3016 C   0  0  0  0  0  3  0  0  0  0  0  0
    4.8261   42.5604   50.6305 C   0  0  0  0  0  3  0  0  0  0  0  0
    5.7250   44.7938   51.1917 N   0  0  0  0  0  0  0  0  0  0  0  0
    6.9732   44.6539   50.5201 C   0  0  0  0  0  0  0  0  0  0  0  0
    8.0857   43.7240   48.6749 C   0  0  0  0  0  3  0  0  0  0  0  0
    6.9658   43.9302   49.3880 N   0  0  0  0  0  0  0  0  0  0  0  0
    9.2488   44.2563   49.1055 N   0  0  0  0  0  0  0  0  0  0  0  0
    9.3066   44.9861   50.2304 C   0  0  0  0  0  0  0  0  0  0  0  0
    8.1544   45.1938   50.9555 C   0  0  0  0  0  0  0  0  0  0  0  0
   10.3081   45.6191   50.8803 N   0  0  0  0  0  0  0  0  0  0  0  0
    8.4605   45.9651   52.0646 C   0  0  0  0  0  3  0  0  0  0  0  0
    9.8053   46.2104   51.9860 C   0  0  0  0  0  3  0  0  0  0  0  0
    1.3264   41.6720   49.8804 O   0  0  0  0  0  0  0  0  0  0  0  0
    1.1652   41.2957   48.5270 C   0  0  0  0  0  2  0  0  0  0  0  0
    0.0366   40.3454   48.3946 C   0  0  0  0  0  0  0  0  0  0  0  0
    0.0143   39.0335   48.1477 N   0  0  0  0  0  0  0  0  0  0  0  0
   -1.2565   40.7294   48.5215 N   0  0  0  0  0  0  0  0  0  0  0  0
   -1.2395   38.6514   48.1271 O   0  0  0  0  0  0  0  0  0  0  0  0
   -2.0393   39.6671   48.3524 C   0  0  0  0  0  0  0  0  0  0  0  0
   -3.5211   39.7188   48.4237 C   0  0  0  0  0  3  0  0  0  0  0  0
   -4.1209   40.7750   49.3900 C   0  0  0  0  0  2  0  0  0  0  0  0
   -4.2041   40.9328   47.8809 C   0  0  0  0  0  2  0  0  0  0  0  0
  1  6  1  0
  1  2  2  0
  2  3  1  0
  3  4  2  0
  4 17  1  0
  5  4  1  0
  6  5  2  0
  7  1  1  0
  8  7  1  0
  8 10  1  0
  9 10  2  0
 11  9  1  0
 12 13  1  0
 12 11  2  0
 13  8  2  0
 14 12  1  0
 15 13  1  0
 16 14  1  0
 16 15  2  0
 17 18  1  0
 19 20  2  0
 19 18  1  0
 21 19  1  0
 22 20  1  0
 23 21  2  0
 23 22  1  0
 24 23  1  0
 25 24  1  0
 26 25  1  0
 26 24  1  0
M  RAD  8   2   2   3   2   5   2   6   2   9   2  15   2  16   2  18   3
M  RAD  3  24   2  25   3  26   3
M  END
>  <REMARK>  (1) 
 SMILES c1nc(Nc2ccc(OCc3noc(C4CC4)n3)cc2)c2cc[nH]c2n1
 SMILES IDX 5 1 6 2 7 3 8 4 19 5 20 6 4 7 3 9 1 10 2 11 26 12 25 13
 SMILES IDX 21 14 24 15 22 16 23 17 9 19 10 20 11 21 12 22 18 23 13 24
 SMILES IDX 14 25 15 26 16 27 17 28
 H PARENT 4 8 24 18

>  <TORSDO>  (1) 
F 6

$$$$
