Z1576583090_pose1
     RDKit          3D

 43 46  0  0  0  0  0  0  0  0999 V2000
   -0.7780   43.6370   52.8620 C   0  0  0  0  0  0  0  0  0  0  0  0
    0.2890   44.1920   53.6560 N   0  0  0  0  0  0  0  0  0  0  0  0
   -0.0120   44.9370   54.7500 N   0  0  0  0  0  0  0  0  0  0  0  0
    1.1870   45.2810   55.2400 C   0  0  0  0  0  0  0  0  0  0  0  0
    2.2320   44.7670   54.4660 C   0  0  0  0  0  0  0  0  0  0  0  0
    3.6590   44.8190   54.5200 C   0  0  0  0  0  0  0  0  0  0  0  0
    4.3030   45.4060   55.3810 O   0  0  0  0  0  0  0  0  0  0  0  0
    4.2460   44.1280   53.4780 N   0  0  0  0  0  0  0  0  0  0  0  0
    3.5530   43.4570   52.4780 C   0  0  0  0  0  0  0  0  0  0  0  0
    4.2810   42.8030   51.5200 N   0  0  0  0  0  0  0  0  0  0  0  0
    5.4090   43.3040   50.8300 C   0  0  0  0  0  0  0  0  0  0  0  0
    5.8820   42.5810   49.7270 C   0  0  0  0  0  0  0  0  0  0  0  0
    6.9970   43.0160   49.0130 C   0  0  0  0  0  0  0  0  0  0  0  0
    7.6520   44.1840   49.4000 C   0  0  0  0  0  0  0  0  0  0  0  0
    7.1980   44.9260   50.4920 C   0  0  0  0  0  0  0  0  0  0  0  0
    7.9280   46.0510   50.7510 O   0  0  0  0  0  0  0  0  0  0  0  0
    8.2090   46.3940   52.1010 C   0  0  0  0  0  0  0  0  0  0  0  0
    9.7110   46.2600   52.3460 C   0  0  0  0  0  0  0  0  0  0  0  0
    9.9630   47.1060   53.5870 C   0  0  0  0  0  0  0  0  0  0  0  0
    8.8630   48.1660   53.5990 C   0  0  0  0  0  0  0  0  0  0  0  0
    7.9850   47.8760   52.3880 C   0  0  0  0  0  0  0  0  0  0  0  0
    6.0760   44.4850   51.1980 C   0  0  0  0  0  0  0  0  0  0  0  0
    2.2450   43.3920   52.4420 N   0  0  0  0  0  0  0  0  0  0  0  0
    1.6340   44.0670   53.4470 C   0  0  0  0  0  0  0  0  0  0  0  0
   -1.5564   43.2321   53.5255 H   0  0  0  0  0  0  0  0  0  0  0  0
   -1.2105   44.4244   52.2272 H   0  0  0  0  0  0  0  0  0  0  0  0
   -0.3816   42.8308   52.2272 H   0  0  0  0  0  0  0  0  0  0  0  0
    1.3316   45.8937   56.1421 H   0  0  0  0  0  0  0  0  0  0  0  0
    5.2530   44.0910   53.4800 H   0  0  0  0  0  0  0  0  0  0  0  0
    3.6830   42.2700   50.8940 H   0  0  0  0  0  0  0  0  0  0  0  0
    5.3669   41.6586   49.4208 H   0  0  0  0  0  0  0  0  0  0  0  0
    7.3585   42.4404   48.1481 H   0  0  0  0  0  0  0  0  0  0  0  0
    8.5352   44.5244   48.8396 H   0  0  0  0  0  0  0  0  0  0  0  0
    7.5629   45.7444   52.7097 H   0  0  0  0  0  0  0  0  0  0  0  0
    9.9848   45.2101   52.5272 H   0  0  0  0  0  0  0  0  0  0  0  0
   10.3099   46.5877   51.4835 H   0  0  0  0  0  0  0  0  0  0  0  0
    9.9055   46.4842   54.4926 H   0  0  0  0  0  0  0  0  0  0  0  0
   10.9640   47.5617   53.5697 H   0  0  0  0  0  0  0  0  0  0  0  0
    8.2730   48.0938   54.5246 H   0  0  0  0  0  0  0  0  0  0  0  0
    9.2828   49.1819   53.5575 H   0  0  0  0  0  0  0  0  0  0  0  0
    6.9274   48.0721   52.6184 H   0  0  0  0  0  0  0  0  0  0  0  0
    8.2366   48.5120   51.5265 H   0  0  0  0  0  0  0  0  0  0  0  0
    5.7094   45.0705   52.0541 H   0  0  0  0  0  0  0  0  0  0  0  0
  1  2  1  0
  2  3  1  0
  3  4  2  0
  4  5  1  0
  5  6  1  0
  6  7  2  0
  6  8  1  0
  8  9  1  0
  9 10  1  0
 10 11  1  0
 11 12  2  0
 12 13  1  0
 13 14  2  0
 14 15  1  0
 15 16  1  0
 16 17  1  0
 17 18  1  0
 18 19  1  0
 19 20  1  0
 20 21  1  0
 15 22  2  0
  9 23  2  0
 23 24  1  0
 24  2  1  0
 24  5  2  0
 22 11  1  0
 21 17  1  0
  1 25  1  0
  1 26  1  0
  1 27  1  0
  4 28  1  0
  8 29  1  0
 10 30  1  0
 12 31  1  0
 13 32  1  0
 14 33  1  0
 17 34  1  0
 18 35  1  0
 18 36  1  0
 19 37  1  0
 19 38  1  0
 20 39  1  0
 20 40  1  0
 21 41  1  0
 21 42  1  0
 22 43  1  0
M  END
>  <meeko>  (1) 
{"is_sidechain": false}

>  <CID>  (1) 
Z1576583090

>  <pose_index>  (1) 
1

>  <docking_score>  (1) 
-9.894

>  <num_viable_poses>  (1) 
6

>  <rmsd_pairwise_std>  (1) 
0.32605949003221096

>  <rmsd_to_best_std>  (1) 
0.33017957248840946

>  <MWT>  (1) 
325.3719999999997

>  <TPSA>  (1) 
84.83

>  <logP>  (1) 
2.7216000000000005

>  <HBD>  (1) 
2

>  <HBA>  (1) 
6

>  <SMILES>  (1) 
[H]c1c([H])c(OC2([H])C([H])([H])C([H])([H])C([H])([H])C2([H])[H])c([H])c(N([H])c2nc3c(c([H])nn3C([H])([H])[H])c(=O)n2[H])c1[H]

$$$$
