Z1677967961_pose1
     RDKit          3D

 46 49  0  0  0  0  0  0  0  0999 V2000
    5.5150   47.7540   53.8420 O   0  0  0  0  0  0  0  0  0  0  0  0
    6.1160   46.6830   53.7950 C   0  0  0  0  0  0  0  0  0  0  0  0
    5.6010   45.4600   54.1360 N   0  0  0  0  0  0  0  0  0  0  0  0
    4.3320   45.2020   54.5610 C   0  0  0  0  0  0  0  0  0  0  0  0
    3.8030   45.3970   55.7700 N   0  0  0  0  0  0  0  0  0  0  0  0
    2.5470   44.9700   55.5980 N   0  0  0  0  0  0  0  0  0  0  0  0
    2.3430   44.5450   54.3210 C   0  0  0  0  0  0  0  0  0  0  0  0
    1.0070   43.9990   53.7590 C   0  0  0  0  0  0  0  0  0  0  0  0
    0.9630   42.4720   53.5010 C   0  0  0  0  0  0  0  0  0  0  0  0
    0.1590   42.7870   52.2220 C   0  0  0  0  0  0  0  0  0  0  0  0
    0.8280   44.1780   52.2310 C   0  0  0  0  0  0  0  0  0  0  0  0
    3.4590   44.6810   53.6420 N   0  0  0  0  0  0  0  0  0  0  0  0
    7.5470   46.6920   53.3130 C   0  0  0  0  0  0  0  0  0  0  0  0
    8.5120   47.1530   54.2290 C   0  0  0  0  0  0  0  0  0  0  0  0
    9.8630   47.2130   53.8870 C   0  0  0  0  0  0  0  0  0  0  0  0
   10.2720   46.8090   52.6220 C   0  0  0  0  0  0  0  0  0  0  0  0
    9.3340   46.3480   51.6980 C   0  0  0  0  0  0  0  0  0  0  0  0
    7.9700   46.2960   52.0250 C   0  0  0  0  0  0  0  0  0  0  0  0
    7.0240   45.8290   51.1510 O   0  0  0  0  0  0  0  0  0  0  0  0
    7.4600   44.9520   50.1120 C   0  0  0  0  0  0  0  0  0  0  0  0
    6.5100   43.7790   50.1090 C   0  0  0  0  0  0  0  0  0  0  0  0
    5.3520   43.8090   50.9020 C   0  0  0  0  0  0  0  0  0  0  0  0
    4.4910   42.7120   50.9380 C   0  0  0  0  0  0  0  0  0  0  0  0
    4.7900   41.5820   50.1870 C   0  0  0  0  0  0  0  0  0  0  0  0
    3.9670   40.5250   50.2270 F   0  0  0  0  0  0  0  0  0  0  0  0
    5.9340   41.5280   49.4000 C   0  0  0  0  0  0  0  0  0  0  0  0
    6.7970   42.6250   49.3630 C   0  0  0  0  0  0  0  0  0  0  0  0
    6.1780   44.6320   54.0810 H   0  0  0  0  0  0  0  0  0  0  0  0
    1.9010   45.0020   56.3780 H   0  0  0  0  0  0  0  0  0  0  0  0
    0.3410   44.4786   54.4914 H   0  0  0  0  0  0  0  0  0  0  0  0
    1.9442   42.0070   53.3245 H   0  0  0  0  0  0  0  0  0  0  0  0
    0.5950   41.7651   54.2592 H   0  0  0  0  0  0  0  0  0  0  0  0
    0.4127   42.1608   51.3540 H   0  0  0  0  0  0  0  0  0  0  0  0
   -0.9339   42.6692   52.1800 H   0  0  0  0  0  0  0  0  0  0  0  0
    1.7674   44.2401   51.6622 H   0  0  0  0  0  0  0  0  0  0  0  0
    0.3338   45.0630   51.8038 H   0  0  0  0  0  0  0  0  0  0  0  0
    8.1946   47.4717   55.2328 H   0  0  0  0  0  0  0  0  0  0  0  0
   10.6015   47.5786   54.6157 H   0  0  0  0  0  0  0  0  0  0  0  0
   11.3366   46.8527   52.3488 H   0  0  0  0  0  0  0  0  0  0  0  0
    9.6671   46.0215   50.7018 H   0  0  0  0  0  0  0  0  0  0  0  0
    7.4280   45.4685   49.1413 H   0  0  0  0  0  0  0  0  0  0  0  0
    8.4959   44.6224   50.2805 H   0  0  0  0  0  0  0  0  0  0  0  0
    5.1220   44.7037   51.4991 H   0  0  0  0  0  0  0  0  0  0  0  0
    3.5819   42.7414   51.5565 H   0  0  0  0  0  0  0  0  0  0  0  0
    6.1582   40.6270   48.8101 H   0  0  0  0  0  0  0  0  0  0  0  0
    7.7067   42.5847   48.7459 H   0  0  0  0  0  0  0  0  0  0  0  0
  1  2  2  0
  2  3  1  0
  3  4  1  0
  4  5  2  0
  5  6  1  0
  6  7  1  0
  7  8  1  0
  8  9  1  0
  9 10  1  0
 10 11  1  0
  7 12  2  0
  2 13  1  0
 13 14  2  0
 14 15  1  0
 15 16  2  0
 16 17  1  0
 17 18  2  0
 18 19  1  0
 19 20  1  0
 20 21  1  0
 21 22  2  0
 22 23  1  0
 23 24  2  0
 24 25  1  0
 24 26  1  0
 26 27  2  0
 12  4  1  0
 18 13  1  0
 27 21  1  0
 11  8  1  0
  3 28  1  0
  6 29  1  0
  8 30  1  0
  9 31  1  0
  9 32  1  0
 10 33  1  0
 10 34  1  0
 11 35  1  0
 11 36  1  0
 14 37  1  0
 15 38  1  0
 16 39  1  0
 17 40  1  0
 20 41  1  0
 20 42  1  0
 22 43  1  0
 23 44  1  0
 26 45  1  0
 27 46  1  0
M  END
>  <meeko>  (1) 
{"is_sidechain": false}

>  <CID>  (1) 
Z1677967961

>  <pose_index>  (1) 
1

>  <docking_score>  (1) 
-10.308

>  <num_viable_poses>  (1) 
5

>  <rmsd_pairwise_std>  (1) 
0.17462704681769198

>  <rmsd_to_best_std>  (1) 
0.08565879387874185

>  <MWT>  (1) 
366.39599999999973

>  <TPSA>  (1) 
79.9

>  <logP>  (1) 
4.042600000000003

>  <HBD>  (1) 
2

>  <HBA>  (1) 
4

>  <SMILES>  (1) 
[H]c1c([H])c([H])c(C(=O)N([H])c2nc(C3([H])C([H])([H])C([H])([H])C3([H])[H])n([H])n2)c(OC([H])([H])c2c([H])c([H])c(F)c([H])c2[H])c1[H]

$$$$
