Z357964720_pose1
     RDKit          3D

 43 46  0  0  0  0  0  0  0  0999 V2000
   -0.4480   42.0300   53.4420 N   0  0  0  0  0  0  0  0  0  0  0  0
   -1.0540   43.5420   53.8700 S   0  0  0  0  0  0  0  0  0  0  0  0
   -1.5700   43.4540   55.2140 O   0  0  0  0  0  0  0  0  0  0  0  0
   -1.8650   43.9610   52.7490 O   0  0  0  0  0  0  0  0  0  0  0  0
    0.4240   44.5200   53.8950 C   0  0  0  0  0  0  0  0  0  0  0  0
    0.7750   45.2880   52.7880 C   0  0  0  0  0  0  0  0  0  0  0  0
    1.9480   46.0490   52.8270 C   0  0  0  0  0  0  0  0  0  0  0  0
    2.7770   46.0660   53.9630 C   0  0  0  0  0  0  0  0  0  0  0  0
    3.9500   46.8260   53.9190 N   0  0  0  0  0  0  0  0  0  0  0  0
    5.2380   46.5870   53.4500 C   0  0  0  0  0  0  0  0  0  0  0  0
    5.4690   45.8250   52.3810 N   0  0  0  0  0  0  0  0  0  0  0  0
    6.7510   45.6460   51.9930 C   0  0  0  0  0  0  0  0  0  0  0  0
    6.8920   44.7630   50.8250 C   0  0  0  0  0  0  0  0  0  0  0  0
    5.9430   43.7590   50.5720 C   0  0  0  0  0  0  0  0  0  0  0  0
    6.0680   42.9150   49.4670 C   0  0  0  0  0  0  0  0  0  0  0  0
    7.1520   43.0550   48.6020 C   0  0  0  0  0  0  0  0  0  0  0  0
    8.1120   44.0350   48.8450 C   0  0  0  0  0  0  0  0  0  0  0  0
    7.9850   44.8800   49.9510 C   0  0  0  0  0  0  0  0  0  0  0  0
    7.8340   46.2470   52.6480 C   0  0  0  0  0  0  0  0  0  0  0  0
    9.1990   46.1370   52.2750 C   0  0  0  0  0  0  0  0  0  0  0  0
   10.1910   46.7840   53.0070 C   0  0  0  0  0  0  0  0  0  0  0  0
    9.8350   47.5470   54.1090 C   0  0  0  0  0  0  0  0  0  0  0  0
    8.4880   47.6610   54.4660 C   0  0  0  0  0  0  0  0  0  0  0  0
    7.4790   47.0260   53.7510 C   0  0  0  0  0  0  0  0  0  0  0  0
    6.2110   47.1910   54.1470 N   0  0  0  0  0  0  0  0  0  0  0  0
    2.3930   45.2870   55.0630 C   0  0  0  0  0  0  0  0  0  0  0  0
    1.2210   44.5220   55.0390 C   0  0  0  0  0  0  0  0  0  0  0  0
   -1.1340   41.3180   53.6940 H   0  0  0  0  0  0  0  0  0  0  0  0
   -0.1770   41.9680   52.4610 H   0  0  0  0  0  0  0  0  0  0  0  0
    0.1366   45.2962   51.8922 H   0  0  0  0  0  0  0  0  0  0  0  0
    2.2287   46.6483   51.9484 H   0  0  0  0  0  0  0  0  0  0  0  0
    3.9370   47.7220   54.3840 H   0  0  0  0  0  0  0  0  0  0  0  0
    5.0890   43.6359   51.2543 H   0  0  0  0  0  0  0  0  0  0  0  0
    5.3110   42.1394   49.2789 H   0  0  0  0  0  0  0  0  0  0  0  0
    7.2493   42.3929   47.7290 H   0  0  0  0  0  0  0  0  0  0  0  0
    8.9705   44.1438   48.1659 H   0  0  0  0  0  0  0  0  0  0  0  0
    8.7511   45.6466   50.1393 H   0  0  0  0  0  0  0  0  0  0  0  0
    9.4762   45.5339   51.3979 H   0  0  0  0  0  0  0  0  0  0  0  0
   11.2472   46.6909   52.7140 H   0  0  0  0  0  0  0  0  0  0  0  0
   10.6086   48.0600   54.6993 H   0  0  0  0  0  0  0  0  0  0  0  0
    8.2182   48.2722   55.3399 H   0  0  0  0  0  0  0  0  0  0  0  0
    3.0252   45.2766   55.9631 H   0  0  0  0  0  0  0  0  0  0  0  0
    0.9307   43.9263   55.9170 H   0  0  0  0  0  0  0  0  0  0  0  0
  1  2  1  0
  2  3  2  0
  2  4  2  0
  2  5  1  0
  5  6  2  0
  6  7  1  0
  7  8  2  0
  8  9  1  0
  9 10  1  0
 10 11  2  0
 11 12  1  0
 12 13  1  0
 13 14  2  0
 14 15  1  0
 15 16  2  0
 16 17  1  0
 17 18  2  0
 12 19  2  0
 19 20  1  0
 20 21  2  0
 21 22  1  0
 22 23  2  0
 23 24  1  0
 24 25  2  0
  8 26  1  0
 26 27  2  0
 27  5  1  0
 25 10  1  0
 18 13  1  0
 24 19  1  0
  1 28  1  0
  1 29  1  0
  6 30  1  0
  7 31  1  0
  9 32  1  0
 14 33  1  0
 15 34  1  0
 16 35  1  0
 17 36  1  0
 18 37  1  0
 20 38  1  0
 21 39  1  0
 22 40  1  0
 23 41  1  0
 26 42  1  0
 27 43  1  0
M  END
>  <meeko>  (1) 
{"is_sidechain": false}

>  <CID>  (1) 
Z357964720

>  <pose_index>  (1) 
1

>  <docking_score>  (1) 
-10.455

>  <num_viable_poses>  (1) 
5

>  <rmsd_pairwise_std>  (1) 
0.23885129294434224

>  <rmsd_to_best_std>  (1) 
0.28232770586798395

>  <MWT>  (1) 
376.44099999999986

>  <TPSA>  (1) 
97.97

>  <logP>  (1) 
3.687800000000002

>  <HBD>  (1) 
2

>  <HBA>  (1) 
5

>  <SMILES>  (1) 
[H]c1c([H])c([H])c(-c2nc(N([H])c3c([H])c([H])c(S(=O)(=O)N([H])[H])c([H])c3[H])nc3c([H])c([H])c([H])c([H])c23)c([H])c1[H]

$$$$
