Z56854611_pose1
     RDKit          3D

 44 47  0  0  0  0  0  0  0  0999 V2000
   10.6800   47.7280   55.7170 C   0  0  0  0  0  0  0  0  0  0  0  0
    9.7760   47.3180   54.5930 C   0  0  0  0  0  0  0  0  0  0  0  0
    8.3960   47.5000   54.6870 C   0  0  0  0  0  0  0  0  0  0  0  0
    7.5610   47.1440   53.6220 C   0  0  0  0  0  0  0  0  0  0  0  0
    8.0780   46.6150   52.4290 C   0  0  0  0  0  0  0  0  0  0  0  0
    7.1860   46.2490   51.4170 N   0  0  0  0  0  0  0  0  0  0  0  0
    6.2970   45.1930   51.2390 C   0  0  0  0  0  0  0  0  0  0  0  0
    5.1540   45.1030   51.9290 N   0  0  0  0  0  0  0  0  0  0  0  0
    4.3390   44.0600   51.6830 C   0  0  0  0  0  0  0  0  0  0  0  0
    3.0950   43.9940   52.3690 N   0  0  0  0  0  0  0  0  0  0  0  0
    2.0690   44.7260   51.5790 C   0  0  0  0  0  0  0  0  0  0  0  0
    0.9000   45.1450   52.4840 C   0  0  0  0  0  0  0  0  0  0  0  0
    1.2860   46.0500   53.5300 O   0  0  0  0  0  0  0  0  0  0  0  0
    2.6650   45.9090   53.9170 C   0  0  0  0  0  0  0  0  0  0  0  0
    3.1790   44.4690   53.7730 C   0  0  0  0  0  0  0  0  0  0  0  0
    4.6670   43.0650   50.7470 C   0  0  0  0  0  0  0  0  0  0  0  0
    3.8870   41.9140   50.4660 C   0  0  0  0  0  0  0  0  0  0  0  0
    4.2980   40.9850   49.5140 C   0  0  0  0  0  0  0  0  0  0  0  0
    5.4920   41.1910   48.8380 C   0  0  0  0  0  0  0  0  0  0  0  0
    6.2660   42.3190   49.1270 C   0  0  0  0  0  0  0  0  0  0  0  0
    5.8750   43.2580   50.0750 C   0  0  0  0  0  0  0  0  0  0  0  0
    6.6720   44.3060   50.3080 N   0  0  0  0  0  0  0  0  0  0  0  0
    9.4620   46.4430   52.3470 C   0  0  0  0  0  0  0  0  0  0  0  0
   10.3040   46.7970   53.4090 C   0  0  0  0  0  0  0  0  0  0  0  0
   10.1931   47.5072   56.6783 H   0  0  0  0  0  0  0  0  0  0  0  0
   11.6260   47.1708   55.6486 H   0  0  0  0  0  0  0  0  0  0  0  0
   10.8840   48.8067   55.6486 H   0  0  0  0  0  0  0  0  0  0  0  0
    7.9618   47.9258   55.6036 H   0  0  0  0  0  0  0  0  0  0  0  0
    6.4743   47.2819   53.7220 H   0  0  0  0  0  0  0  0  0  0  0  0
    7.2150   46.7940   50.5680 H   0  0  0  0  0  0  0  0  0  0  0  0
    2.5245   45.6236   51.1353 H   0  0  0  0  0  0  0  0  0  0  0  0
    1.6891   44.0656   50.7855 H   0  0  0  0  0  0  0  0  0  0  0  0
    0.1361   45.6353   51.8627 H   0  0  0  0  0  0  0  0  0  0  0  0
    0.5195   44.2329   52.9670 H   0  0  0  0  0  0  0  0  0  0  0  0
    3.2773   46.5660   53.2818 H   0  0  0  0  0  0  0  0  0  0  0  0
    2.7406   46.1830   54.9796 H   0  0  0  0  0  0  0  0  0  0  0  0
    4.2285   44.4307   54.1001 H   0  0  0  0  0  0  0  0  0  0  0  0
    2.5484   43.8160   54.3943 H   0  0  0  0  0  0  0  0  0  0  0  0
    2.9436   41.7531   51.0082 H   0  0  0  0  0  0  0  0  0  0  0  0
    3.6834   40.0981   49.3003 H   0  0  0  0  0  0  0  0  0  0  0  0
    5.8282   40.4702   48.0781 H   0  0  0  0  0  0  0  0  0  0  0  0
    7.2132   42.4681   48.5879 H   0  0  0  0  0  0  0  0  0  0  0  0
    9.8993   46.0211   51.4301 H   0  0  0  0  0  0  0  0  0  0  0  0
   11.3914   46.6635   53.3099 H   0  0  0  0  0  0  0  0  0  0  0  0
  1  2  1  0
  2  3  2  0
  3  4  1  0
  4  5  2  0
  5  6  1  0
  6  7  1  0
  7  8  2  0
  8  9  1  0
  9 10  1  0
 10 11  1  0
 11 12  1  0
 12 13  1  0
 13 14  1  0
 14 15  1  0
  9 16  2  0
 16 17  1  0
 17 18  2  0
 18 19  1  0
 19 20  2  0
 20 21  1  0
 21 22  2  0
  5 23  1  0
 23 24  2  0
 24  2  1  0
 22  7  1  0
 15 10  1  0
 21 16  1  0
  1 25  1  0
  1 26  1  0
  1 27  1  0
  3 28  1  0
  4 29  1  0
  6 30  1  0
 11 31  1  0
 11 32  1  0
 12 33  1  0
 12 34  1  0
 14 35  1  0
 14 36  1  0
 15 37  1  0
 15 38  1  0
 17 39  1  0
 18 40  1  0
 19 41  1  0
 20 42  1  0
 23 43  1  0
 24 44  1  0
M  END
>  <meeko>  (1) 
{"is_sidechain": false}

>  <CID>  (1) 
Z56854611

>  <pose_index>  (1) 
1

>  <docking_score>  (1) 
-9.877

>  <num_viable_poses>  (1) 
8

>  <rmsd_pairwise_std>  (1) 
0.4181984061918654

>  <rmsd_to_best_std>  (1) 
0.4330892474344422

>  <MWT>  (1) 
320.3959999999997

>  <TPSA>  (1) 
50.28

>  <logP>  (1) 
3.5184200000000025

>  <HBD>  (1) 
1

>  <HBA>  (1) 
5

>  <SMILES>  (1) 
[H]c1c([H])c(C([H])([H])[H])c([H])c([H])c1N([H])c1nc(N2C([H])([H])C([H])([H])OC([H])([H])C2([H])[H])c2c([H])c([H])c([H])c([H])c2n1

$$$$
