Z94803042_pose1
     RDKit          3D

 42 45  0  0  0  0  0  0  0  0999 V2000
   -1.9650   44.4160   54.7140 N   0  0  0  0  0  0  0  0  0  0  0  0
   -0.8500   43.7900   54.2260 C   0  0  0  0  0  0  0  0  0  0  0  0
   -0.8940   42.6170   53.8820 O   0  0  0  0  0  0  0  0  0  0  0  0
    0.4100   44.5790   54.1770 C   0  0  0  0  0  0  0  0  0  0  0  0
    1.2490   44.5660   55.2920 C   0  0  0  0  0  0  0  0  0  0  0  0
    2.4440   45.2970   55.2900 C   0  0  0  0  0  0  0  0  0  0  0  0
    2.8360   46.0440   54.1750 C   0  0  0  0  0  0  0  0  0  0  0  0
    4.0070   46.8070   54.1170 N   0  0  0  0  0  0  0  0  0  0  0  0
    5.2830   46.5810   53.6070 C   0  0  0  0  0  0  0  0  0  0  0  0
    5.4930   45.7880   52.5560 N   0  0  0  0  0  0  0  0  0  0  0  0
    6.7630   45.6260   52.1250 C   0  0  0  0  0  0  0  0  0  0  0  0
    6.8720   44.7590   50.9410 C   0  0  0  0  0  0  0  0  0  0  0  0
    7.9060   44.9280   50.0030 C   0  0  0  0  0  0  0  0  0  0  0  0
    7.9990   44.1030   48.8800 C   0  0  0  0  0  0  0  0  0  0  0  0
    7.0540   43.1000   48.6720 C   0  0  0  0  0  0  0  0  0  0  0  0
    6.0130   42.9270   49.5820 C   0  0  0  0  0  0  0  0  0  0  0  0
    5.9210   43.7530   50.7040 C   0  0  0  0  0  0  0  0  0  0  0  0
    7.8600   46.2270   52.7540 C   0  0  0  0  0  0  0  0  0  0  0  0
    9.2240   46.0700   52.3880 C   0  0  0  0  0  0  0  0  0  0  0  0
   10.2310   46.7240   53.0910 C   0  0  0  0  0  0  0  0  0  0  0  0
    9.8930   47.5350   54.1650 C   0  0  0  0  0  0  0  0  0  0  0  0
    8.5510   47.6800   54.5280 C   0  0  0  0  0  0  0  0  0  0  0  0
    7.5280   47.0350   53.8440 C   0  0  0  0  0  0  0  0  0  0  0  0
    6.2680   47.2130   54.2610 N   0  0  0  0  0  0  0  0  0  0  0  0
    1.9860   46.0360   53.0560 C   0  0  0  0  0  0  0  0  0  0  0  0
    0.7870   45.3120   53.0490 C   0  0  0  0  0  0  0  0  0  0  0  0
   -1.9020   45.2510   55.2780 H   0  0  0  0  0  0  0  0  0  0  0  0
   -2.7680   43.8170   54.8640 H   0  0  0  0  0  0  0  0  0  0  0  0
    0.9701   43.9777   56.1786 H   0  0  0  0  0  0  0  0  0  0  0  0
    3.0863   45.2830   56.1829 H   0  0  0  0  0  0  0  0  0  0  0  0
    3.9610   47.7520   54.4650 H   0  0  0  0  0  0  0  0  0  0  0  0
    8.6523   45.7215   50.1560 H   0  0  0  0  0  0  0  0  0  0  0  0
    8.8181   44.2448   48.1596 H   0  0  0  0  0  0  0  0  0  0  0  0
    7.1298   42.4459   47.7908 H   0  0  0  0  0  0  0  0  0  0  0  0
    5.2633   42.1393   49.4164 H   0  0  0  0  0  0  0  0  0  0  0  0
    5.0914   43.6138   51.4128 H   0  0  0  0  0  0  0  0  0  0  0  0
    9.4872   45.4232   51.5381 H   0  0  0  0  0  0  0  0  0  0  0  0
   11.2840   46.5994   52.7984 H   0  0  0  0  0  0  0  0  0  0  0  0
   10.6776   48.0614   54.7282 H   0  0  0  0  0  0  0  0  0  0  0  0
    8.2968   48.3250   55.3820 H   0  0  0  0  0  0  0  0  0  0  0  0
    2.2694   46.6128   52.1632 H   0  0  0  0  0  0  0  0  0  0  0  0
    0.1434   45.3205   52.1570 H   0  0  0  0  0  0  0  0  0  0  0  0
  1  2  1  0
  2  3  2  0
  2  4  1  0
  4  5  2  0
  5  6  1  0
  6  7  2  0
  7  8  1  0
  8  9  1  0
  9 10  2  0
 10 11  1  0
 11 12  1  0
 12 13  2  0
 13 14  1  0
 14 15  2  0
 15 16  1  0
 16 17  2  0
 11 18  2  0
 18 19  1  0
 19 20  2  0
 20 21  1  0
 21 22  2  0
 22 23  1  0
 23 24  2  0
  7 25  1  0
 25 26  2  0
 26  4  1  0
 24  9  1  0
 17 12  1  0
 23 18  1  0
  1 27  1  0
  1 28  1  0
  5 29  1  0
  6 30  1  0
  8 31  1  0
 13 32  1  0
 14 33  1  0
 15 34  1  0
 16 35  1  0
 17 36  1  0
 19 37  1  0
 20 38  1  0
 21 39  1  0
 22 40  1  0
 25 41  1  0
 26 42  1  0
M  END
>  <meeko>  (1) 
{"is_sidechain": false}

>  <CID>  (1) 
Z94803042

>  <pose_index>  (1) 
1

>  <docking_score>  (1) 
-10.201

>  <num_viable_poses>  (1) 
7

>  <rmsd_pairwise_std>  (1) 
0.392597434932032

>  <rmsd_to_best_std>  (1) 
0.4738025706336032

>  <MWT>  (1) 
340.38599999999974

>  <TPSA>  (1) 
80.9

>  <logP>  (1) 
4.139300000000002

>  <HBD>  (1) 
2

>  <HBA>  (1) 
4

>  <SMILES>  (1) 
[H]c1c([H])c([H])c(-c2nc(N([H])c3c([H])c([H])c(C(=O)N([H])[H])c([H])c3[H])nc3c([H])c([H])c([H])c([H])c23)c([H])c1[H]

$$$$
