/home/pchatterjee/Documents/git/vs_workflow/DiffDock/diffdock_run/pdbqt_scrubbed/Z25402869.pdbqt
     RDKit          3D

 27 30  0  0  1  0  0  0  0  0999 V2000
    0.2434   75.1375   78.6436 S   0  0  0  0  0  0  0  0  0  0  0  0
    1.6865   74.2124   79.2338 C   0  0  0  0  0  2  0  0  0  0  0  0
    1.3671   73.6500   80.5749 C   0  0  0  0  0  0  0  0  0  0  0  0
    2.2850   72.7835   81.2702 N   0  0  0  0  0  0  0  0  0  0  0  0
    0.2533   73.9594   81.0911 O   0  0  0  0  0  0  0  0  0  0  0  0
    2.2335   72.5584   82.6822 C   0  0  0  0  0  3  0  0  0  0  0  0
    0.9195   72.1206   83.2224 C   0  0  0  0  0  2  0  0  0  0  0  0
    3.3862   71.7869   83.1670 C   0  0  0  0  0  0  0  0  0  0  0  0
    0.8892   70.7821   83.8737 C   0  0  0  0  0  2  0  0  0  0  0  0
    4.6142   72.0253   82.5803 C   0  0  0  0  0  3  0  0  0  0  0  0
    3.3419   70.8428   84.1615 C   0  0  0  0  0  0  0  0  0  0  0  0
    2.0425   70.5531   84.8211 C   0  0  0  0  0  2  0  0  0  0  0  0
    5.7662   71.3767   82.9373 C   0  0  0  0  0  3  0  0  0  0  0  0
    4.4933   70.1781   84.5354 C   0  0  0  0  0  3  0  0  0  0  0  0
    5.6972   70.4265   83.9449 C   0  0  0  0  0  3  0  0  0  0  0  0
   -1.1017   74.1228   78.2053 C   0  0  0  0  0  0  0  0  0  0  0  0
   -2.3186   74.0603   78.4190 N   0  0  0  0  0  0  0  0  0  0  0  0
   -0.8991   72.6044   77.0792 S   0  0  0  0  0  0  0  0  0  0  0  0
   -3.0759   73.1457   77.9273 N   0  0  0  0  0  0  0  0  0  0  0  0
   -2.7592   72.2452   77.2178 C   0  0  0  0  0  0  0  0  0  0  0  0
   -3.1719   71.1036   76.4910 N   0  0  0  0  0  0  0  0  0  0  0  0
   -2.2732   70.2230   75.8266 C   0  0  0  0  0  0  0  0  0  0  0  0
   -1.3117   69.4960   76.4969 C   0  0  0  0  0  3  0  0  0  0  0  0
   -2.3514   70.0771   74.4569 C   0  0  0  0  0  3  0  0  0  0  0  0
   -0.4573   68.6517   75.8197 C   0  0  0  0  0  3  0  0  0  0  0  0
   -1.4963   69.2325   73.7822 C   0  0  0  0  0  3  0  0  0  0  0  0
   -0.5360   68.5065   74.4517 C   0  0  0  0  0  3  0  0  0  0  0  0
  1 16  1  0
  2  3  1  0
  2  1  1  0
  3  5  2  0
  4  3  1  0
  6  4  1  0
  6  7  1  0
  7  9  1  0
  8 11  2  0
  8  6  1  0
 10  8  1  0
 11 12  1  0
 12  9  1  0
 13 15  1  0
 13 10  2  0
 14 11  1  0
 15 14  2  0
 16 17  2  0
 17 19  1  0
 18 16  1  0
 18 20  1  0
 20 21  1  0
 20 19  2  0
 22 23  2  0
 22 21  1  0
 24 22  1  0
 25 23  1  0
 26 27  1  0
 26 24  2  0
 27 25  2  0
M  RAD  8   2   3   6   2   7   3   9   3  10   2  12   3  13   2  14   2
M  RAD  6  15   2  23   2  24   2  25   2  26   2  27   2
M  END
>  <REMARK>  (1) 
 SMILES O=C(CSc1nnc(Nc2ccccc2)s1)NC1CCCc2ccccc21
 SMILES IDX 4 1 3 2 2 3 17 4 1 5 18 7 19 8 27 9 20 10 26 11 22 12 21 13
 SMILES IDX 25 14 23 15 24 16 5 17 6 18 16 19 7 20 8 21 9 22 10 24 11 25
 SMILES IDX 15 26 12 27 14 28 13 29
 H PARENT 17 6 9 23

>  <TORSDO>  (1) 
F 6

$$$$
