/home/pchatterjee/Documents/git/vs_workflow/DiffDock/diffdock_run/pdbqt_scrubbed/Z25402869.pdbqt
     RDKit          3D

 27 30  0  0  1  0  0  0  0  0999 V2000
   13.9659   62.7860   83.5791 S   0  0  0  0  0  0  0  0  0  0  0  0
   14.1809   61.1686   82.7889 C   0  0  0  0  0  2  0  0  0  0  0  0
   14.7093   60.2166   83.8044 C   0  0  0  0  0  0  0  0  0  0  0  0
   14.2256   58.8622   83.8959 N   0  0  0  0  0  0  0  0  0  0  0  0
   15.6057   60.6375   84.5931 O   0  0  0  0  0  0  0  0  0  0  0  0
   15.0693   57.7475   84.2002 C   0  0  0  0  0  3  0  0  0  0  0  0
   16.2375   58.0365   85.0731 C   0  0  0  0  0  2  0  0  0  0  0  0
   14.3015   56.5522   84.5755 C   0  0  0  0  0  0  0  0  0  0  0  0
   16.2742   57.3244   86.3800 C   0  0  0  0  0  2  0  0  0  0  0  0
   13.1098   56.3183   83.9166 C   0  0  0  0  0  3  0  0  0  0  0  0
   14.6743   55.6434   85.5334 C   0  0  0  0  0  0  0  0  0  0  0  0
   15.9484   55.8543   86.2680 C   0  0  0  0  0  2  0  0  0  0  0  0
   12.2993   55.2439   84.1693 C   0  0  0  0  0  3  0  0  0  0  0  0
   13.8699   54.5534   85.8024 C   0  0  0  0  0  3  0  0  0  0  0  0
   12.6965   54.3387   85.1417 C   0  0  0  0  0  3  0  0  0  0  0  0
   12.5016   63.6012   83.1080 C   0  0  0  0  0  0  0  0  0  0  0  0
   11.2960   63.3451   83.0018 N   0  0  0  0  0  0  0  0  0  0  0  0
   12.4894   65.4198   82.5537 S   0  0  0  0  0  0  0  0  0  0  0  0
   10.4237   64.2030   82.6081 N   0  0  0  0  0  0  0  0  0  0  0  0
   10.6098   65.3346   82.2928 C   0  0  0  0  0  0  0  0  0  0  0  0
   10.0448   66.5493   81.8376 N   0  0  0  0  0  0  0  0  0  0  0  0
   10.8140   67.6841   81.4567 C   0  0  0  0  0  0  0  0  0  0  0  0
   10.3175   68.9700   81.5047 C   0  0  0  0  0  3  0  0  0  0  0  0
   12.1109   67.5114   81.0189 C   0  0  0  0  0  3  0  0  0  0  0  0
   11.0921   70.0465   81.1276 C   0  0  0  0  0  3  0  0  0  0  0  0
   12.8835   68.5889   80.6425 C   0  0  0  0  0  3  0  0  0  0  0  0
   12.3874   69.8731   80.6905 C   0  0  0  0  0  3  0  0  0  0  0  0
  1 16  1  0
  2  3  1  0
  2  1  1  0
  3  5  2  0
  4  3  1  0
  6  4  1  0
  6  7  1  0
  7  9  1  0
  8 11  2  0
  8  6  1  0
 10  8  1  0
 11 12  1  0
 12  9  1  0
 13 15  1  0
 13 10  2  0
 14 11  1  0
 15 14  2  0
 16 17  2  0
 17 19  1  0
 18 16  1  0
 18 20  1  0
 20 21  1  0
 20 19  2  0
 22 23  2  0
 22 21  1  0
 24 22  1  0
 25 23  1  0
 26 27  1  0
 26 24  2  0
 27 25  2  0
M  RAD  8   2   3   6   2   7   3   9   3  10   2  12   3  13   2  14   2
M  RAD  6  15   2  23   2  24   2  25   2  26   2  27   2
M  END
>  <REMARK>  (1) 
 SMILES O=C(CSc1nnc(Nc2ccccc2)s1)NC1CCCc2ccccc21
 SMILES IDX 4 1 3 2 2 3 17 4 1 5 18 7 19 8 27 9 20 10 26 11 22 12 21 13
 SMILES IDX 25 14 23 15 24 16 5 17 6 18 16 19 7 20 8 21 9 22 10 24 11 25
 SMILES IDX 15 26 12 27 14 28 13 29
 H PARENT 17 6 9 23

>  <TORSDO>  (1) 
F 6

$$$$
