/home/pchatterjee/Documents/git/vs_workflow/DiffDock/diffdock_run/pdbqt_scrubbed/Z25402869.pdbqt
     RDKit          3D

 27 30  0  0  1  0  0  0  0  0999 V2000
    9.1957   47.2881   51.3822 S   0  0  0  0  0  0  0  0  0  0  0  0
    8.8955   47.3882   53.1672 C   0  0  0  0  0  2  0  0  0  0  0  0
    7.4933   46.9632   53.4320 C   0  0  0  0  0  0  0  0  0  0  0  0
    6.3940   47.4406   52.6317 N   0  0  0  0  0  0  0  0  0  0  0  0
    7.2942   46.1614   54.3913 O   0  0  0  0  0  0  0  0  0  0  0  0
    5.0565   47.5563   53.1266 C   0  0  0  0  0  3  0  0  0  0  0  0
    4.1270   48.3715   52.3012 C   0  0  0  0  0  2  0  0  0  0  0  0
    4.5129   46.2662   53.5730 C   0  0  0  0  0  0  0  0  0  0  0  0
    2.9449   47.6585   51.7436 C   0  0  0  0  0  2  0  0  0  0  0  0
    5.3746   45.3849   54.1974 C   0  0  0  0  0  3  0  0  0  0  0  0
    3.2106   45.8629   53.4191 C   0  0  0  0  0  0  0  0  0  0  0  0
    2.2481   46.7781   52.7531 C   0  0  0  0  0  2  0  0  0  0  0  0
    4.9978   44.1526   54.6607 C   0  0  0  0  0  3  0  0  0  0  0  0
    2.8116   44.6236   53.8799 C   0  0  0  0  0  3  0  0  0  0  0  0
    3.6764   43.7665   54.4941 C   0  0  0  0  0  3  0  0  0  0  0  0
    9.0699   45.6727   50.7452 C   0  0  0  0  0  0  0  0  0  0  0  0
    9.8105   44.8185   50.2430 N   0  0  0  0  0  0  0  0  0  0  0  0
    7.4197   44.7299   50.6964 S   0  0  0  0  0  0  0  0  0  0  0  0
    9.3968   43.6653   49.8546 N   0  0  0  0  0  0  0  0  0  0  0  0
    8.2884   43.2370   49.9059 C   0  0  0  0  0  0  0  0  0  0  0  0
    7.4205   42.1520   49.6385 N   0  0  0  0  0  0  0  0  0  0  0  0
    6.0230   42.2957   49.4129 C   0  0  0  0  0  0  0  0  0  0  0  0
    5.4245   41.9642   48.2153 C   0  0  0  0  0  3  0  0  0  0  0  0
    5.2178   42.7847   50.4208 C   0  0  0  0  0  3  0  0  0  0  0  0
    4.0664   42.1168   48.0324 C   0  0  0  0  0  3  0  0  0  0  0  0
    3.8604   42.9364   50.2356 C   0  0  0  0  0  3  0  0  0  0  0  0
    3.2627   42.6053   49.0395 C   0  0  0  0  0  3  0  0  0  0  0  0
  1 16  1  0
  2  3  1  0
  2  1  1  0
  3  5  2  0
  4  3  1  0
  6  4  1  0
  6  7  1  0
  7  9  1  0
  8 11  2  0
  8  6  1  0
 10  8  1  0
 11 12  1  0
 12  9  1  0
 13 15  1  0
 13 10  2  0
 14 11  1  0
 15 14  2  0
 16 17  2  0
 17 19  1  0
 18 16  1  0
 18 20  1  0
 20 21  1  0
 20 19  2  0
 22 23  2  0
 22 21  1  0
 24 22  1  0
 25 23  1  0
 26 27  1  0
 26 24  2  0
 27 25  2  0
M  RAD  8   2   3   6   2   7   3   9   3  10   2  12   3  13   2  14   2
M  RAD  6  15   2  23   2  24   2  25   2  26   2  27   2
M  END
>  <REMARK>  (1) 
 SMILES O=C(CSc1nnc(Nc2ccccc2)s1)NC1CCCc2ccccc21
 SMILES IDX 4 1 3 2 2 3 17 4 1 5 18 7 19 8 27 9 20 10 26 11 22 12 21 13
 SMILES IDX 25 14 23 15 24 16 5 17 6 18 16 19 7 20 8 21 9 22 10 24 11 25
 SMILES IDX 15 26 12 27 14 28 13 29
 H PARENT 17 6 9 23

>  <TORSDO>  (1) 
F 6

$$$$
