/home/pchatterjee/Documents/git/vs_workflow/DiffDock/diffdock_run/pdbqt_scrubbed/Z25402869.pdbqt
     RDKit          3D

 27 30  0  0  1  0  0  0  0  0999 V2000
    9.6607   46.3491   52.4108 S   0  0  0  0  0  0  0  0  0  0  0  0
    8.5250   47.7553   52.5502 C   0  0  0  0  0  2  0  0  0  0  0  0
    7.4544   47.3996   53.5218 C   0  0  0  0  0  0  0  0  0  0  0  0
    6.1288   47.0372   53.0881 N   0  0  0  0  0  0  0  0  0  0  0  0
    7.7472   47.4253   54.7533 O   0  0  0  0  0  0  0  0  0  0  0  0
    5.2942   46.1196   53.8012 C   0  0  0  0  0  3  0  0  0  0  0  0
    5.3649   46.1954   55.2842 C   0  0  0  0  0  2  0  0  0  0  0  0
    3.9326   46.0609   53.2522 C   0  0  0  0  0  0  0  0  0  0  0  0
    4.1020   46.5566   55.9852 C   0  0  0  0  0  2  0  0  0  0  0  0
    3.7851   46.1603   51.8820 C   0  0  0  0  0  3  0  0  0  0  0  0
    2.7880   45.9143   53.9945 C   0  0  0  0  0  0  0  0  0  0  0  0
    2.8982   45.8034   55.4720 C   0  0  0  0  0  2  0  0  0  0  0  0
    2.5749   46.1204   51.2426 C   0  0  0  0  0  3  0  0  0  0  0  0
    1.5582   45.8718   53.3676 C   0  0  0  0  0  3  0  0  0  0  0  0
    1.4318   45.9716   52.0134 C   0  0  0  0  0  3  0  0  0  0  0  0
    9.2858   45.2806   51.0884 C   0  0  0  0  0  0  0  0  0  0  0  0
    9.5608   45.1665   49.8877 N   0  0  0  0  0  0  0  0  0  0  0  0
    8.1423   43.7760   51.2962 S   0  0  0  0  0  0  0  0  0  0  0  0
    9.1032   44.2227   49.1450 N   0  0  0  0  0  0  0  0  0  0  0  0
    8.3735   43.3388   49.4622 C   0  0  0  0  0  0  0  0  0  0  0  0
    7.6622   42.1834   49.0606 N   0  0  0  0  0  0  0  0  0  0  0  0
    6.2708   41.9935   49.2892 C   0  0  0  0  0  0  0  0  0  0  0  0
    5.4068   41.5624   48.3042 C   0  0  0  0  0  3  0  0  0  0  0  0
    5.7460   42.2454   50.5400 C   0  0  0  0  0  3  0  0  0  0  0  0
    4.0634   41.3893   48.5620 C   0  0  0  0  0  3  0  0  0  0  0  0
    4.4027   42.0717   50.7953 C   0  0  0  0  0  3  0  0  0  0  0  0
    3.5400   41.6412   49.8116 C   0  0  0  0  0  3  0  0  0  0  0  0
  1 16  1  0
  2  3  1  0
  2  1  1  0
  3  5  2  0
  4  3  1  0
  6  4  1  0
  6  7  1  0
  7  9  1  0
  8 11  2  0
  8  6  1  0
 10  8  1  0
 11 12  1  0
 12  9  1  0
 13 15  1  0
 13 10  2  0
 14 11  1  0
 15 14  2  0
 16 17  2  0
 17 19  1  0
 18 16  1  0
 18 20  1  0
 20 21  1  0
 20 19  2  0
 22 23  2  0
 22 21  1  0
 24 22  1  0
 25 23  1  0
 26 27  1  0
 26 24  2  0
 27 25  2  0
M  RAD  8   2   3   6   2   7   3   9   3  10   2  12   3  13   2  14   2
M  RAD  6  15   2  23   2  24   2  25   2  26   2  27   2
M  END
>  <REMARK>  (1) 
 SMILES O=C(CSc1nnc(Nc2ccccc2)s1)NC1CCCc2ccccc21
 SMILES IDX 4 1 3 2 2 3 17 4 1 5 18 7 19 8 27 9 20 10 26 11 22 12 21 13
 SMILES IDX 25 14 23 15 24 16 5 17 6 18 16 19 7 20 8 21 9 22 10 24 11 25
 SMILES IDX 15 26 12 27 14 28 13 29
 H PARENT 17 6 9 23

>  <TORSDO>  (1) 
F 6

$$$$
