/home/pchatterjee/Documents/git/vs_workflow/DiffDock/diffdock_run/pdbqt_scrubbed/Z25402869.pdbqt
     RDKit          3D

 27 30  0  0  1  0  0  0  0  0999 V2000
  -42.2975   12.6194   28.7881 S   0  0  0  0  0  0  0  0  0  0  0  0
  -41.0057   11.9637   27.6982 C   0  0  0  0  0  2  0  0  0  0  0  0
  -39.6844   12.4259   28.2055 C   0  0  0  0  0  0  0  0  0  0  0  0
  -39.1795   12.0104   29.4897 N   0  0  0  0  0  0  0  0  0  0  0  0
  -39.0111   13.2029   27.4668 O   0  0  0  0  0  0  0  0  0  0  0  0
  -39.2656   10.6646   29.9677 C   0  0  0  0  0  3  0  0  0  0  0  0
  -38.5777    9.6371   29.1425 C   0  0  0  0  0  2  0  0  0  0  0  0
  -39.0091   10.5674   31.4112 C   0  0  0  0  0  0  0  0  0  0  0  0
  -37.4715    8.8934   29.8057 C   0  0  0  0  0  2  0  0  0  0  0  0
  -39.4757   11.5866   32.2190 C   0  0  0  0  0  3  0  0  0  0  0  0
  -38.3394    9.5399   32.0262 C   0  0  0  0  0  0  0  0  0  0  0  0
  -37.8196    8.4219   31.1972 C   0  0  0  0  0  2  0  0  0  0  0  0
  -39.3048   11.6192   33.5773 C   0  0  0  0  0  3  0  0  0  0  0  0
  -38.1572    9.5550   33.3952 C   0  0  0  0  0  3  0  0  0  0  0  0
  -38.6249   10.5698   34.1769 C   0  0  0  0  0  3  0  0  0  0  0  0
  -43.6655   13.2716   27.9313 C   0  0  0  0  0  0  0  0  0  0  0  0
  -44.0126   14.3475   27.4292 N   0  0  0  0  0  0  0  0  0  0  0  0
  -45.1995   12.2237   27.5270 S   0  0  0  0  0  0  0  0  0  0  0  0
  -45.1403   14.5196   26.8372 N   0  0  0  0  0  0  0  0  0  0  0  0
  -46.0045   13.7186   26.6753 C   0  0  0  0  0  0  0  0  0  0  0  0
  -47.2888   13.4468   26.1474 N   0  0  0  0  0  0  0  0  0  0  0  0
  -47.5155   12.9810   24.8222 C   0  0  0  0  0  0  0  0  0  0  0  0
  -47.5974   11.6405   24.5084 C   0  0  0  0  0  3  0  0  0  0  0  0
  -47.6619   13.8919   23.7964 C   0  0  0  0  0  3  0  0  0  0  0  0
  -47.8182   11.2253   23.2122 C   0  0  0  0  0  3  0  0  0  0  0  0
  -47.8826   13.4746   22.5015 C   0  0  0  0  0  3  0  0  0  0  0  0
  -47.9644   12.1357   22.1882 C   0  0  0  0  0  3  0  0  0  0  0  0
  1 16  1  0
  2  3  1  0
  2  1  1  0
  3  5  2  0
  4  3  1  0
  6  4  1  0
  6  7  1  0
  7  9  1  0
  8 11  2  0
  8  6  1  0
 10  8  1  0
 11 12  1  0
 12  9  1  0
 13 15  1  0
 13 10  2  0
 14 11  1  0
 15 14  2  0
 16 17  2  0
 17 19  1  0
 18 16  1  0
 18 20  1  0
 20 21  1  0
 20 19  2  0
 22 23  2  0
 22 21  1  0
 24 22  1  0
 25 23  1  0
 26 27  1  0
 26 24  2  0
 27 25  2  0
M  RAD  8   2   3   6   2   7   3   9   3  10   2  12   3  13   2  14   2
M  RAD  6  15   2  23   2  24   2  25   2  26   2  27   2
M  END
>  <REMARK>  (1) 
 SMILES O=C(CSc1nnc(Nc2ccccc2)s1)NC1CCCc2ccccc21
 SMILES IDX 4 1 3 2 2 3 17 4 1 5 18 7 19 8 27 9 20 10 26 11 22 12 21 13
 SMILES IDX 25 14 23 15 24 16 5 17 6 18 16 19 7 20 8 21 9 22 10 24 11 25
 SMILES IDX 15 26 12 27 14 28 13 29
 H PARENT 17 6 9 23

>  <TORSDO>  (1) 
F 6

$$$$
