/home/pchatterjee/Documents/git/vs_workflow/DiffDock/diffdock_run/pdbqt_scrubbed/Z25402869.pdbqt
     RDKit          3D

 27 30  0  0  1  0  0  0  0  0999 V2000
    9.1605   46.5212   52.3010 S   0  0  0  0  0  0  0  0  0  0  0  0
    7.8137   46.4319   53.5113 C   0  0  0  0  0  2  0  0  0  0  0  0
    8.0235   47.5005   54.5266 C   0  0  0  0  0  0  0  0  0  0  0  0
    7.0731   48.5684   54.7088 N   0  0  0  0  0  0  0  0  0  0  0  0
    9.0729   47.4417   55.2324 O   0  0  0  0  0  0  0  0  0  0  0  0
    6.1912   49.0174   53.6755 C   0  0  0  0  0  3  0  0  0  0  0  0
    5.4906   47.9519   52.9113 C   0  0  0  0  0  2  0  0  0  0  0  0
    5.3317   50.1243   54.1171 C   0  0  0  0  0  0  0  0  0  0  0  0
    4.0042   47.9506   52.9963 C   0  0  0  0  0  2  0  0  0  0  0  0
    5.8766   51.0613   54.9740 C   0  0  0  0  0  3  0  0  0  0  0  0
    4.0234   50.3045   53.7451 C   0  0  0  0  0  0  0  0  0  0  0  0
    3.3954   49.3216   52.8248 C   0  0  0  0  0  2  0  0  0  0  0  0
    5.1865   52.1395   55.4600 C   0  0  0  0  0  3  0  0  0  0  0  0
    3.3110   51.3860   54.2248 C   0  0  0  0  0  3  0  0  0  0  0  0
    3.8655   52.3011   55.0703 C   0  0  0  0  0  3  0  0  0  0  0  0
    9.0162   45.3591   51.0128 C   0  0  0  0  0  0  0  0  0  0  0  0
    9.5884   45.0820   49.9516 N   0  0  0  0  0  0  0  0  0  0  0  0
    7.6651   44.0216   51.0031 S   0  0  0  0  0  0  0  0  0  0  0  0
    9.2252   44.1170   49.1844 N   0  0  0  0  0  0  0  0  0  0  0  0
    8.3231   43.3594   49.3488 C   0  0  0  0  0  0  0  0  0  0  0  0
    7.5968   42.2514   48.8523 N   0  0  0  0  0  0  0  0  0  0  0  0
    6.1877   42.1064   48.9869 C   0  0  0  0  0  0  0  0  0  0  0  0
    5.5321   42.2875   50.1868 C   0  0  0  0  0  3  0  0  0  0  0  0
    5.4297   41.7715   47.8839 C   0  0  0  0  0  3  0  0  0  0  0  0
    4.1645   42.1386   50.2800 C   0  0  0  0  0  3  0  0  0  0  0  0
    4.0627   41.6231   47.9794 C   0  0  0  0  0  3  0  0  0  0  0  0
    3.4081   41.8041   49.1778 C   0  0  0  0  0  3  0  0  0  0  0  0
  1 16  1  0
  2  3  1  0
  2  1  1  0
  3  5  2  0
  4  3  1  0
  6  4  1  0
  6  7  1  0
  7  9  1  0
  8 11  2  0
  8  6  1  0
 10  8  1  0
 11 12  1  0
 12  9  1  0
 13 15  1  0
 13 10  2  0
 14 11  1  0
 15 14  2  0
 16 17  2  0
 17 19  1  0
 18 16  1  0
 18 20  1  0
 20 21  1  0
 20 19  2  0
 22 23  2  0
 22 21  1  0
 24 22  1  0
 25 23  1  0
 26 27  1  0
 26 24  2  0
 27 25  2  0
M  RAD  8   2   3   6   2   7   3   9   3  10   2  12   3  13   2  14   2
M  RAD  6  15   2  23   2  24   2  25   2  26   2  27   2
M  END
>  <REMARK>  (1) 
 SMILES O=C(CSc1nnc(Nc2ccccc2)s1)NC1CCCc2ccccc21
 SMILES IDX 4 1 3 2 2 3 17 4 1 5 18 7 19 8 27 9 20 10 26 11 22 12 21 13
 SMILES IDX 25 14 23 15 24 16 5 17 6 18 16 19 7 20 8 21 9 22 10 24 11 25
 SMILES IDX 15 26 12 27 14 28 13 29
 H PARENT 17 6 9 23

>  <TORSDO>  (1) 
F 6

$$$$
