/home/pchatterjee/Documents/git/vs_workflow/DiffDock/diffdock_run/pdbqt_scrubbed/Z25402869.pdbqt
     RDKit          3D

 27 30  0  0  1  0  0  0  0  0999 V2000
    9.2308   46.9821   51.8850 S   0  0  0  0  0  0  0  0  0  0  0  0
    8.4596   46.8413   53.5196 C   0  0  0  0  0  2  0  0  0  0  0  0
    7.3915   47.8731   53.6252 C   0  0  0  0  0  0  0  0  0  0  0  0
    6.0903   47.5633   54.1616 N   0  0  0  0  0  0  0  0  0  0  0  0
    7.6639   49.0430   53.2252 O   0  0  0  0  0  0  0  0  0  0  0  0
    5.5110   46.2562   54.1069 C   0  0  0  0  0  3  0  0  0  0  0  0
    5.4113   45.5353   55.4032 C   0  0  0  0  0  2  0  0  0  0  0  0
    4.2921   46.2196   53.2871 C   0  0  0  0  0  0  0  0  0  0  0  0
    4.0370   45.1901   55.8598 C   0  0  0  0  0  2  0  0  0  0  0  0
    4.2546   47.0070   52.1523 C   0  0  0  0  0  3  0  0  0  0  0  0
    3.1809   45.4621   53.5587 C   0  0  0  0  0  0  0  0  0  0  0  0
    3.1762   44.5999   54.7687 C   0  0  0  0  0  2  0  0  0  0  0  0
    3.1822   47.0659   51.3029 C   0  0  0  0  0  3  0  0  0  0  0  0
    2.0895   45.5082   52.7137 C   0  0  0  0  0  3  0  0  0  0  0  0
    2.0702   46.2915   51.5976 C   0  0  0  0  0  3  0  0  0  0  0  0
    9.0058   45.5742   50.8861 C   0  0  0  0  0  0  0  0  0  0  0  0
    9.6757   44.6209   50.4704 N   0  0  0  0  0  0  0  0  0  0  0  0
    7.3330   45.1602   50.0829 S   0  0  0  0  0  0  0  0  0  0  0  0
    9.1984   43.6996   49.7120 N   0  0  0  0  0  0  0  0  0  0  0  0
    8.0878   43.6043   49.2971 C   0  0  0  0  0  0  0  0  0  0  0  0
    7.1708   42.8612   48.5168 N   0  0  0  0  0  0  0  0  0  0  0  0
    5.9024   42.4245   48.9913 C   0  0  0  0  0  0  0  0  0  0  0  0
    5.2772   41.2931   48.5105 C   0  0  0  0  0  3  0  0  0  0  0  0
    5.2564   43.1490   49.9717 C   0  0  0  0  0  3  0  0  0  0  0  0
    4.0473   40.8998   48.9941 C   0  0  0  0  0  3  0  0  0  0  0  0
    4.0270   42.7540   50.4537 C   0  0  0  0  0  3  0  0  0  0  0  0
    3.4027   41.6239   49.9734 C   0  0  0  0  0  3  0  0  0  0  0  0
  1 16  1  0
  2  3  1  0
  2  1  1  0
  3  5  2  0
  4  3  1  0
  6  4  1  0
  6  7  1  0
  7  9  1  0
  8 11  2  0
  8  6  1  0
 10  8  1  0
 11 12  1  0
 12  9  1  0
 13 15  1  0
 13 10  2  0
 14 11  1  0
 15 14  2  0
 16 17  2  0
 17 19  1  0
 18 16  1  0
 18 20  1  0
 20 21  1  0
 20 19  2  0
 22 23  2  0
 22 21  1  0
 24 22  1  0
 25 23  1  0
 26 27  1  0
 26 24  2  0
 27 25  2  0
M  RAD  8   2   3   6   2   7   3   9   3  10   2  12   3  13   2  14   2
M  RAD  6  15   2  23   2  24   2  25   2  26   2  27   2
M  END
>  <REMARK>  (1) 
 SMILES O=C(CSc1nnc(Nc2ccccc2)s1)NC1CCCc2ccccc21
 SMILES IDX 4 1 3 2 2 3 17 4 1 5 18 7 19 8 27 9 20 10 26 11 22 12 21 13
 SMILES IDX 25 14 23 15 24 16 5 17 6 18 16 19 7 20 8 21 9 22 10 24 11 25
 SMILES IDX 15 26 12 27 14 28 13 29
 H PARENT 17 6 9 23

>  <TORSDO>  (1) 
F 6

$$$$
