/home/pchatterjee/Documents/git/vs_workflow/DiffDock/diffdock_run/pdbqt_scrubbed/Z25402869.pdbqt
     RDKit          3D

 27 30  0  0  1  0  0  0  0  0999 V2000
    9.2235   46.6994   52.1500 S   0  0  0  0  0  0  0  0  0  0  0  0
    8.0794   46.5279   53.5458 C   0  0  0  0  0  2  0  0  0  0  0  0
    8.1418   47.7733   54.3595 C   0  0  0  0  0  0  0  0  0  0  0  0
    7.0251   48.6806   54.4410 N   0  0  0  0  0  0  0  0  0  0  0  0
    9.2166   48.0132   54.9840 O   0  0  0  0  0  0  0  0  0  0  0  0
    5.9950   48.7467   53.4503 C   0  0  0  0  0  3  0  0  0  0  0  0
    5.3147   47.4632   53.1343 C   0  0  0  0  0  2  0  0  0  0  0  0
    5.0919   49.8867   53.6591 C   0  0  0  0  0  0  0  0  0  0  0  0
    3.8538   47.4065   53.4156 C   0  0  0  0  0  2  0  0  0  0  0  0
    5.6406   51.0675   54.1216 C   0  0  0  0  0  3  0  0  0  0  0  0
    3.7391   49.8740   53.4307 C   0  0  0  0  0  0  0  0  0  0  0  0
    3.1053   48.6258   52.9329 C   0  0  0  0  0  2  0  0  0  0  0  0
    4.9126   52.2030   54.3580 C   0  0  0  0  0  3  0  0  0  0  0  0
    2.9881   51.0095   53.6632 C   0  0  0  0  0  3  0  0  0  0  0  0
    3.5469   52.1665   54.1199 C   0  0  0  0  0  3  0  0  0  0  0  0
    9.0120   45.4820   50.9237 C   0  0  0  0  0  0  0  0  0  0  0  0
    9.4804   45.1983   49.8144 N   0  0  0  0  0  0  0  0  0  0  0  0
    7.7550   44.0676   51.1081 S   0  0  0  0  0  0  0  0  0  0  0  0
    9.0965   44.1846   49.1238 N   0  0  0  0  0  0  0  0  0  0  0  0
    8.2676   43.3820   49.4124 C   0  0  0  0  0  0  0  0  0  0  0  0
    7.5624   42.2146   49.0359 N   0  0  0  0  0  0  0  0  0  0  0  0
    6.1442   42.1038   49.0684 C   0  0  0  0  0  0  0  0  0  0  0  0
    5.3993   42.4082   50.1885 C   0  0  0  0  0  3  0  0  0  0  0  0
    5.4692   41.6762   47.9437 C   0  0  0  0  0  3  0  0  0  0  0  0
    4.0257   42.2890   50.1836 C   0  0  0  0  0  3  0  0  0  0  0  0
    4.0960   41.5577   47.9411 C   0  0  0  0  0  3  0  0  0  0  0  0
    3.3521   41.8618   49.0599 C   0  0  0  0  0  3  0  0  0  0  0  0
  1 16  1  0
  2  3  1  0
  2  1  1  0
  3  5  2  0
  4  3  1  0
  6  4  1  0
  6  7  1  0
  7  9  1  0
  8 11  2  0
  8  6  1  0
 10  8  1  0
 11 12  1  0
 12  9  1  0
 13 15  1  0
 13 10  2  0
 14 11  1  0
 15 14  2  0
 16 17  2  0
 17 19  1  0
 18 16  1  0
 18 20  1  0
 20 21  1  0
 20 19  2  0
 22 23  2  0
 22 21  1  0
 24 22  1  0
 25 23  1  0
 26 27  1  0
 26 24  2  0
 27 25  2  0
M  RAD  8   2   3   6   2   7   3   9   3  10   2  12   3  13   2  14   2
M  RAD  6  15   2  23   2  24   2  25   2  26   2  27   2
M  END
>  <REMARK>  (1) 
 SMILES O=C(CSc1nnc(Nc2ccccc2)s1)NC1CCCc2ccccc21
 SMILES IDX 4 1 3 2 2 3 17 4 1 5 18 7 19 8 27 9 20 10 26 11 22 12 21 13
 SMILES IDX 25 14 23 15 24 16 5 17 6 18 16 19 7 20 8 21 9 22 10 24 11 25
 SMILES IDX 15 26 12 27 14 28 13 29
 H PARENT 17 6 9 23

>  <TORSDO>  (1) 
F 6

$$$$
