/home/pchatterjee/Documents/git/vs_workflow/DiffDock/diffdock_run/pdbqt_scrubbed/Z25402869.pdbqt
     RDKit          3D

 27 30  0  0  1  0  0  0  0  0999 V2000
    6.8360   42.4533   50.4989 S   0  0  0  0  0  0  0  0  0  0  0  0
    5.4679   42.8770   49.3875 C   0  0  0  0  0  2  0  0  0  0  0  0
    4.7818   41.6180   48.9864 C   0  0  0  0  0  0  0  0  0  0  0  0
    3.9580   41.5480   47.8060 N   0  0  0  0  0  0  0  0  0  0  0  0
    4.9459   40.6003   49.7214 O   0  0  0  0  0  0  0  0  0  0  0  0
    3.1242   40.4271   47.4975 C   0  0  0  0  0  3  0  0  0  0  0  0
    2.2699   39.9283   48.6072 C   0  0  0  0  0  2  0  0  0  0  0  0
    2.4323   40.5833   46.2107 C   0  0  0  0  0  0  0  0  0  0  0  0
    0.7992   39.9929   48.3851 C   0  0  0  0  0  2  0  0  0  0  0  0
    3.1169   41.2007   45.1815 C   0  0  0  0  0  3  0  0  0  0  0  0
    1.1532   40.1633   45.9464 C   0  0  0  0  0  0  0  0  0  0  0  0
    0.3787   39.4941   47.0234 C   0  0  0  0  0  2  0  0  0  0  0  0
    2.5897   41.4090   43.9350 C   0  0  0  0  0  3  0  0  0  0  0  0
    0.6042   40.3645   44.6952 C   0  0  0  0  0  3  0  0  0  0  0  0
    1.2951   40.9759   43.6909 C   0  0  0  0  0  3  0  0  0  0  0  0
    8.1064   43.6434   50.5234 C   0  0  0  0  0  0  0  0  0  0  0  0
    9.2072   43.8294   49.9904 N   0  0  0  0  0  0  0  0  0  0  0  0
    8.0099   45.2044   51.6045 S   0  0  0  0  0  0  0  0  0  0  0  0
    9.9419   44.8569   50.2271 N   0  0  0  0  0  0  0  0  0  0  0  0
    9.7075   45.7631   50.9608 C   0  0  0  0  0  0  0  0  0  0  0  0
   10.1444   46.9929   51.5073 N   0  0  0  0  0  0  0  0  0  0  0  0
    9.6593   47.5293   52.7327 C   0  0  0  0  0  0  0  0  0  0  0  0
   10.3996   47.5149   53.8963 C   0  0  0  0  0  3  0  0  0  0  0  0
    8.3999   48.0908   52.7785 C   0  0  0  0  0  3  0  0  0  0  0  0
    9.8970   48.0442   55.0661 C   0  0  0  0  0  3  0  0  0  0  0  0
    7.8995   48.6193   53.9489 C   0  0  0  0  0  3  0  0  0  0  0  0
    8.6390   48.6048   55.1110 C   0  0  0  0  0  3  0  0  0  0  0  0
  1 16  1  0
  2  3  1  0
  2  1  1  0
  3  5  2  0
  4  3  1  0
  6  4  1  0
  6  7  1  0
  7  9  1  0
  8 11  2  0
  8  6  1  0
 10  8  1  0
 11 12  1  0
 12  9  1  0
 13 15  1  0
 13 10  2  0
 14 11  1  0
 15 14  2  0
 16 17  2  0
 17 19  1  0
 18 16  1  0
 18 20  1  0
 20 21  1  0
 20 19  2  0
 22 23  2  0
 22 21  1  0
 24 22  1  0
 25 23  1  0
 26 27  1  0
 26 24  2  0
 27 25  2  0
M  RAD  8   2   3   6   2   7   3   9   3  10   2  12   3  13   2  14   2
M  RAD  6  15   2  23   2  24   2  25   2  26   2  27   2
M  END
>  <REMARK>  (1) 
 SMILES O=C(CSc1nnc(Nc2ccccc2)s1)NC1CCCc2ccccc21
 SMILES IDX 4 1 3 2 2 3 17 4 1 5 18 7 19 8 27 9 20 10 26 11 22 12 21 13
 SMILES IDX 25 14 23 15 24 16 5 17 6 18 16 19 7 20 8 21 9 22 10 24 11 25
 SMILES IDX 15 26 12 27 14 28 13 29
 H PARENT 17 6 9 23

>  <TORSDO>  (1) 
F 6

$$$$
