/home/pchatterjee/Documents/git/vs_workflow/DiffDock/diffdock_run/pdbqt_scrubbed/Z25402869.pdbqt
     RDKit          3D

 27 30  0  0  1  0  0  0  0  0999 V2000
    9.8352   46.7649   51.8864 S   0  0  0  0  0  0  0  0  0  0  0  0
    9.3022   46.7236   53.6187 C   0  0  0  0  0  2  0  0  0  0  0  0
    7.8183   46.8398   53.6560 C   0  0  0  0  0  0  0  0  0  0  0  0
    7.1529   48.1022   53.4554 N   0  0  0  0  0  0  0  0  0  0  0  0
    7.1522   45.7850   53.8717 O   0  0  0  0  0  0  0  0  0  0  0  0
    5.8741   48.4121   54.0173 C   0  0  0  0  0  3  0  0  0  0  0  0
    5.5899   49.8561   54.2274 C   0  0  0  0  0  2  0  0  0  0  0  0
    4.7864   47.6573   53.3799 C   0  0  0  0  0  0  0  0  0  0  0  0
    4.4370   50.4166   53.4702 C   0  0  0  0  0  2  0  0  0  0  0  0
    5.0428   46.3538   52.9999 C   0  0  0  0  0  3  0  0  0  0  0  0
    3.5286   48.1448   53.1297 C   0  0  0  0  0  0  0  0  0  0  0  0
    3.2075   49.5416   53.5212 C   0  0  0  0  0  2  0  0  0  0  0  0
    4.1194   45.5418   52.3975 C   0  0  0  0  0  3  0  0  0  0  0  0
    2.5837   47.3409   52.5229 C   0  0  0  0  0  3  0  0  0  0  0  0
    2.8547   46.0561   52.1546 C   0  0  0  0  0  3  0  0  0  0  0  0
    9.3651   45.3549   50.9800 C   0  0  0  0  0  0  0  0  0  0  0  0
    9.8534   44.2695   50.6426 N   0  0  0  0  0  0  0  0  0  0  0  0
    7.6506   45.1954   50.1739 S   0  0  0  0  0  0  0  0  0  0  0  0
    9.2219   43.3992   49.9386 N   0  0  0  0  0  0  0  0  0  0  0  0
    8.1156   43.4777   49.5093 C   0  0  0  0  0  0  0  0  0  0  0  0
    7.0843   42.8603   48.7629 N   0  0  0  0  0  0  0  0  0  0  0  0
    5.7880   42.5878   49.2823 C   0  0  0  0  0  0  0  0  0  0  0  0
    4.9574   41.6271   48.7442 C   0  0  0  0  0  3  0  0  0  0  0  0
    5.3256   43.3030   50.3677 C   0  0  0  0  0  3  0  0  0  0  0  0
    3.7067   41.3901   49.2741 C   0  0  0  0  0  3  0  0  0  0  0  0
    4.0750   43.0644   50.8957 C   0  0  0  0  0  3  0  0  0  0  0  0
    3.2456   42.1049   50.3582 C   0  0  0  0  0  3  0  0  0  0  0  0
  1 16  1  0
  2  3  1  0
  2  1  1  0
  3  5  2  0
  4  3  1  0
  6  4  1  0
  6  7  1  0
  7  9  1  0
  8 11  2  0
  8  6  1  0
 10  8  1  0
 11 12  1  0
 12  9  1  0
 13 15  1  0
 13 10  2  0
 14 11  1  0
 15 14  2  0
 16 17  2  0
 17 19  1  0
 18 16  1  0
 18 20  1  0
 20 21  1  0
 20 19  2  0
 22 23  2  0
 22 21  1  0
 24 22  1  0
 25 23  1  0
 26 27  1  0
 26 24  2  0
 27 25  2  0
M  RAD  8   2   3   6   2   7   3   9   3  10   2  12   3  13   2  14   2
M  RAD  6  15   2  23   2  24   2  25   2  26   2  27   2
M  END
>  <REMARK>  (1) 
 SMILES O=C(CSc1nnc(Nc2ccccc2)s1)NC1CCCc2ccccc21
 SMILES IDX 4 1 3 2 2 3 17 4 1 5 18 7 19 8 27 9 20 10 26 11 22 12 21 13
 SMILES IDX 25 14 23 15 24 16 5 17 6 18 16 19 7 20 8 21 9 22 10 24 11 25
 SMILES IDX 15 26 12 27 14 28 13 29
 H PARENT 17 6 9 23

>  <TORSDO>  (1) 
F 6

$$$$
