/home/pchatterjee/Documents/git/vs_workflow/DiffDock/diffdock_run/pdbqt_scrubbed/Z1576583090.pdbqt
     RDKit          3D

 24 27  0  0  0  0  0  0  0  0999 V2000
    4.0606   45.2512   52.8004 C   0  0  0  0  0  0  0  0  0  0  0  0
    4.5146   44.0861   53.3829 C   0  0  0  0  0  3  0  0  0  0  0  0
    3.6226   43.0370   53.5667 C   0  0  0  0  0  3  0  0  0  0  0  0
    2.2993   43.1583   53.1719 C   0  0  0  0  0  3  0  0  0  0  0  0
    1.8602   44.3312   52.5902 C   0  0  0  0  0  0  0  0  0  0  0  0
    2.7393   45.3952   52.3971 C   0  0  0  0  0  3  0  0  0  0  0  0
    4.9346   46.3548   52.5903 N   0  0  0  0  0  0  0  0  0  0  0  0
    8.3375   44.0888   49.9655 N   0  0  0  0  0  0  0  0  0  0  0  0
    9.6419   44.3084   49.8374 N   0  0  0  0  0  0  0  0  0  0  0  0
    7.7783   44.9613   50.8003 C   0  0  0  0  0  0  0  0  0  0  0  0
    9.9798   45.3660   50.6114 C   0  0  0  0  0  3  0  0  0  0  0  0
    6.5175   45.1611   51.2567 N   0  0  0  0  0  0  0  0  0  0  0  0
    8.8140   45.7850   51.2224 C   0  0  0  0  0  0  0  0  0  0  0  0
    6.2624   46.1578   52.1205 C   0  0  0  0  0  0  0  0  0  0  0  0
    8.4958   46.7951   52.1117 C   0  0  0  0  0  0  0  0  0  0  0  0
    7.2396   46.9699   52.5469 N   0  0  0  0  0  0  0  0  0  0  0  0
    7.6724   43.0081   49.2495 C   0  0  0  0  0  1  0  0  0  0  0  0
    9.3864   47.5683   52.5270 O   0  0  0  0  0  0  0  0  0  0  0  0
    0.5238   44.4808   52.1807 O   0  0  0  0  0  0  0  0  0  0  0  0
    0.2292   44.3202   50.8113 C   0  0  0  0  0  3  0  0  0  0  0  0
   -1.2381   44.4281   50.5059 C   0  0  0  0  0  2  0  0  0  0  0  0
    0.6370   42.9757   50.2639 C   0  0  0  0  0  2  0  0  0  0  0  0
   -1.5207   43.4648   49.3790 C   0  0  0  0  0  2  0  0  0  0  0  0
   -0.1996   42.8201   49.0004 C   0  0  0  0  0  2  0  0  0  0  0  0
  1  7  1  0
  2  1  2  0
  3  2  1  0
  4  5  1  0
  4  3  2  0
  5  6  2  0
  6  1  1  0
  7 14  1  0
  8  9  1  0
  9 11  2  0
 10  8  1  0
 10 13  2  0
 12 10  1  0
 13 11  1  0
 14 12  2  0
 14 16  1  0
 15 13  1  0
 15 18  2  0
 16 15  1  0
 17  8  1  0
 19 20  1  0
 19  5  1  0
 21 23  1  0
 21 20  1  0
 22 24  1  0
 22 20  1  0
 24 23  1  0
M  RAD  8   2   2   3   2   4   2   6   2  11   2  17   2  20   2  21   3
M  RAD  3  22   3  23   3  24   3
M  END
>  <REMARK>  (1) 
 SMILES Cn1ncc2c(=O)[nH]c(Nc3cccc(OC4CCCC4)c3)nc21
 SMILES IDX 11 1 12 2 13 3 14 4 15 5 22 6 10 7 2 8 3 9 24 10 4 11 23 12
 SMILES IDX 5 13 9 14 6 15 8 16 1 17 7 18 16 21 17 22 18 23 21 24 19 25
 SMILES IDX 20 26
 H PARENT 8 19 10 20

>  <TORSDO>  (1) 
F 3

$$$$
