/home/pchatterjee/Documents/git/vs_workflow/DiffDock/diffdock_run/pdbqt_scrubbed/Z1576583090.pdbqt
     RDKit          3D

 24 27  0  0  0  0  0  0  0  0999 V2000
    4.7010   41.5185   48.6487 C   0  0  0  0  0  0  0  0  0  0  0  0
    3.9522   41.6581   49.7988 C   0  0  0  0  0  3  0  0  0  0  0  0
    2.6067   41.3132   49.7684 C   0  0  0  0  0  3  0  0  0  0  0  0
    2.0262   40.8372   48.6029 C   0  0  0  0  0  3  0  0  0  0  0  0
    2.7893   40.7032   47.4599 C   0  0  0  0  0  0  0  0  0  0  0  0
    4.1406   41.0437   47.4697 C   0  0  0  0  0  3  0  0  0  0  0  0
    6.0831   41.8580   48.6280 N   0  0  0  0  0  0  0  0  0  0  0  0
    5.7229   45.3423   51.9945 N   0  0  0  0  0  0  0  0  0  0  0  0
    6.5955   46.2506   52.4182 N   0  0  0  0  0  0  0  0  0  0  0  0
    6.2465   44.5733   51.0430 C   0  0  0  0  0  0  0  0  0  0  0  0
    7.7508   46.0931   51.7311 C   0  0  0  0  0  3  0  0  0  0  0  0
    5.7858   43.5335   50.3051 N   0  0  0  0  0  0  0  0  0  0  0  0
    7.5423   45.0397   50.8623 C   0  0  0  0  0  0  0  0  0  0  0  0
    6.5807   42.9477   49.3942 C   0  0  0  0  0  0  0  0  0  0  0  0
    8.3173   44.4006   49.9118 C   0  0  0  0  0  0  0  0  0  0  0  0
    7.8358   43.3740   49.1959 N   0  0  0  0  0  0  0  0  0  0  0  0
    4.3784   45.2593   52.5499 C   0  0  0  0  0  1  0  0  0  0  0  0
    9.4919   44.7762   49.7048 O   0  0  0  0  0  0  0  0  0  0  0  0
    2.2260   40.2230   46.2649 O   0  0  0  0  0  0  0  0  0  0  0  0
    2.1430   41.1074   45.1700 C   0  0  0  0  0  3  0  0  0  0  0  0
    1.2688   42.2998   45.4384 C   0  0  0  0  0  2  0  0  0  0  0  0
    1.5597   40.4753   43.9314 C   0  0  0  0  0  2  0  0  0  0  0  0
    0.5829   42.6389   44.1375 C   0  0  0  0  0  2  0  0  0  0  0  0
    1.0921   41.6597   43.0953 C   0  0  0  0  0  2  0  0  0  0  0  0
  1  7  1  0
  2  1  2  0
  3  2  1  0
  4  5  1  0
  4  3  2  0
  5  6  2  0
  6  1  1  0
  7 14  1  0
  8  9  1  0
  9 11  2  0
 10  8  1  0
 10 13  2  0
 12 10  1  0
 13 11  1  0
 14 12  2  0
 14 16  1  0
 15 13  1  0
 15 18  2  0
 16 15  1  0
 17  8  1  0
 19 20  1  0
 19  5  1  0
 21 23  1  0
 21 20  1  0
 22 24  1  0
 22 20  1  0
 24 23  1  0
M  RAD  8   2   2   3   2   4   2   6   2  11   2  17   2  20   2  21   3
M  RAD  3  22   3  23   3  24   3
M  END
>  <REMARK>  (1) 
 SMILES Cn1ncc2c(=O)[nH]c(Nc3cccc(OC4CCCC4)c3)nc21
 SMILES IDX 11 1 12 2 13 3 14 4 15 5 22 6 10 7 2 8 3 9 24 10 4 11 23 12
 SMILES IDX 5 13 9 14 6 15 8 16 1 17 7 18 16 21 17 22 18 23 21 24 19 25
 SMILES IDX 20 26
 H PARENT 8 19 10 20

>  <TORSDO>  (1) 
F 3

$$$$
