/home/pchatterjee/Documents/git/vs_workflow/DiffDock/diffdock_run/pdbqt_scrubbed/Z1576583090.pdbqt
     RDKit          3D

 24 27  0  0  0  0  0  0  0  0999 V2000
    3.8774   43.8204   51.4452 C   0  0  0  0  0  0  0  0  0  0  0  0
    2.8698   43.3360   52.2534 C   0  0  0  0  0  3  0  0  0  0  0  0
    2.3067   42.1014   51.9552 C   0  0  0  0  0  3  0  0  0  0  0  0
    2.7490   41.3687   50.8647 C   0  0  0  0  0  3  0  0  0  0  0  0
    3.7585   41.8674   50.0652 C   0  0  0  0  0  0  0  0  0  0  0  0
    4.3364   43.1037   50.3475 C   0  0  0  0  0  3  0  0  0  0  0  0
    4.4867   45.0795   51.7082 N   0  0  0  0  0  0  0  0  0  0  0  0
    8.7981   44.2174   49.6411 N   0  0  0  0  0  0  0  0  0  0  0  0
   10.0089   44.7027   49.8950 N   0  0  0  0  0  0  0  0  0  0  0  0
    7.8866   44.7340   50.4616 C   0  0  0  0  0  0  0  0  0  0  0  0
    9.9164   45.5785   50.9227 C   0  0  0  0  0  3  0  0  0  0  0  0
    6.5489   44.5738   50.6124 N   0  0  0  0  0  0  0  0  0  0  0  0
    8.5844   45.6060   51.2873 C   0  0  0  0  0  0  0  0  0  0  0  0
    5.8900   45.2582   51.5622 C   0  0  0  0  0  0  0  0  0  0  0  0
    7.8573   46.2849   52.2480 C   0  0  0  0  0  0  0  0  0  0  0  0
    6.5342   46.1072   52.3750 N   0  0  0  0  0  0  0  0  0  0  0  0
    8.5739   43.2439   48.5805 C   0  0  0  0  0  1  0  0  0  0  0  0
    8.4310   47.0834   53.0205 O   0  0  0  0  0  0  0  0  0  0  0  0
    4.2258   41.1452   48.9535 O   0  0  0  0  0  0  0  0  0  0  0  0
    3.3767   41.0307   47.8339 C   0  0  0  0  0  3  0  0  0  0  0  0
    3.7105   39.8575   46.9564 C   0  0  0  0  0  2  0  0  0  0  0  0
    3.4318   42.2249   46.9148 C   0  0  0  0  0  2  0  0  0  0  0  0
    3.4290   40.2818   45.5357 C   0  0  0  0  0  2  0  0  0  0  0  0
    2.8904   41.6999   45.5912 C   0  0  0  0  0  2  0  0  0  0  0  0
  1  7  1  0
  2  1  2  0
  3  2  1  0
  4  5  1  0
  4  3  2  0
  5  6  2  0
  6  1  1  0
  7 14  1  0
  8  9  1  0
  9 11  2  0
 10  8  1  0
 10 13  2  0
 12 10  1  0
 13 11  1  0
 14 12  2  0
 14 16  1  0
 15 13  1  0
 15 18  2  0
 16 15  1  0
 17  8  1  0
 19 20  1  0
 19  5  1  0
 21 23  1  0
 21 20  1  0
 22 24  1  0
 22 20  1  0
 24 23  1  0
M  RAD  8   2   2   3   2   4   2   6   2  11   2  17   2  20   2  21   3
M  RAD  3  22   3  23   3  24   3
M  END
>  <REMARK>  (1) 
 SMILES Cn1ncc2c(=O)[nH]c(Nc3cccc(OC4CCCC4)c3)nc21
 SMILES IDX 11 1 12 2 13 3 14 4 15 5 22 6 10 7 2 8 3 9 24 10 4 11 23 12
 SMILES IDX 5 13 9 14 6 15 8 16 1 17 7 18 16 21 17 22 18 23 21 24 19 25
 SMILES IDX 20 26
 H PARENT 8 19 10 20

>  <TORSDO>  (1) 
F 3

$$$$
