/home/pchatterjee/Documents/git/vs_workflow/DiffDock/diffdock_run/pdbqt_scrubbed/Z1576583090.pdbqt
     RDKit          3D

 24 27  0  0  0  0  0  0  0  0999 V2000
    5.0275   41.7002   49.2872 C   0  0  0  0  0  0  0  0  0  0  0  0
    4.2788   40.9551   48.3999 C   0  0  0  0  0  3  0  0  0  0  0  0
    2.9702   40.6303   48.7350 C   0  0  0  0  0  3  0  0  0  0  0  0
    2.4258   41.0474   49.9398 C   0  0  0  0  0  3  0  0  0  0  0  0
    3.1882   41.7927   50.8173 C   0  0  0  0  0  0  0  0  0  0  0  0
    4.5029   42.1289   50.4998 C   0  0  0  0  0  3  0  0  0  0  0  0
    6.3726   42.0590   48.9907 N   0  0  0  0  0  0  0  0  0  0  0  0
    6.4656   45.8463   52.0324 N   0  0  0  0  0  0  0  0  0  0  0  0
    7.4464   46.6733   52.3789 N   0  0  0  0  0  0  0  0  0  0  0  0
    6.8847   44.9368   51.1559 C   0  0  0  0  0  0  0  0  0  0  0  0
    8.5696   46.3131   51.7152 C   0  0  0  0  0  3  0  0  0  0  0  0
    6.2945   43.9008   50.5107 N   0  0  0  0  0  0  0  0  0  0  0  0
    8.2274   45.2207   50.9422 C   0  0  0  0  0  0  0  0  0  0  0  0
    7.0057   43.1423   49.6601 C   0  0  0  0  0  0  0  0  0  0  0  0
    8.9120   44.4084   50.0567 C   0  0  0  0  0  0  0  0  0  0  0  0
    8.3029   43.3901   49.4321 N   0  0  0  0  0  0  0  0  0  0  0  0
    5.1242   45.9806   52.5850 C   0  0  0  0  0  1  0  0  0  0  0  0
   10.1230   44.6153   49.8240 O   0  0  0  0  0  0  0  0  0  0  0  0
    2.6611   42.2284   52.0454 O   0  0  0  0  0  0  0  0  0  0  0  0
    2.5589   43.6171   52.2665 C   0  0  0  0  0  3  0  0  0  0  0  0
    2.1120   43.9625   53.6589 C   0  0  0  0  0  2  0  0  0  0  0  0
    1.5603   44.2963   51.3636 C   0  0  0  0  0  2  0  0  0  0  0  0
    1.2552   45.1999   53.5472 C   0  0  0  0  0  2  0  0  0  0  0  0
    1.2358   45.5993   52.0829 C   0  0  0  0  0  2  0  0  0  0  0  0
  1  7  1  0
  2  1  2  0
  3  2  1  0
  4  5  1  0
  4  3  2  0
  5  6  2  0
  6  1  1  0
  7 14  1  0
  8  9  1  0
  9 11  2  0
 10  8  1  0
 10 13  2  0
 12 10  1  0
 13 11  1  0
 14 12  2  0
 14 16  1  0
 15 13  1  0
 15 18  2  0
 16 15  1  0
 17  8  1  0
 19 20  1  0
 19  5  1  0
 21 23  1  0
 21 20  1  0
 22 24  1  0
 22 20  1  0
 24 23  1  0
M  RAD  8   2   2   3   2   4   2   6   2  11   2  17   2  20   2  21   3
M  RAD  3  22   3  23   3  24   3
M  END
>  <REMARK>  (1) 
 SMILES Cn1ncc2c(=O)[nH]c(Nc3cccc(OC4CCCC4)c3)nc21
 SMILES IDX 11 1 12 2 13 3 14 4 15 5 22 6 10 7 2 8 3 9 24 10 4 11 23 12
 SMILES IDX 5 13 9 14 6 15 8 16 1 17 7 18 16 21 17 22 18 23 21 24 19 25
 SMILES IDX 20 26
 H PARENT 8 19 10 20

>  <TORSDO>  (1) 
F 3

$$$$
