/home/pchatterjee/Documents/git/vs_workflow/DiffDock/diffdock_run/pdbqt_scrubbed/Z1576583090.pdbqt
     RDKit          3D

 24 27  0  0  0  0  0  0  0  0999 V2000
    4.7087   41.5669   49.2535 C   0  0  0  0  0  0  0  0  0  0  0  0
    3.9455   41.0654   48.2195 C   0  0  0  0  0  3  0  0  0  0  0  0
    2.5814   40.8909   48.4169 C   0  0  0  0  0  3  0  0  0  0  0  0
    1.9968   41.2148   49.6314 C   0  0  0  0  0  3  0  0  0  0  0  0
    2.7744   41.7158   50.6567 C   0  0  0  0  0  0  0  0  0  0  0  0
    4.1445   41.8982   50.4788 C   0  0  0  0  0  3  0  0  0  0  0  0
    6.1100   41.7642   49.1017 N   0  0  0  0  0  0  0  0  0  0  0  0
    6.3277   45.6780   51.9719 N   0  0  0  0  0  0  0  0  0  0  0  0
    7.2952   46.5651   52.1790 N   0  0  0  0  0  0  0  0  0  0  0  0
    6.6982   44.7531   51.0898 C   0  0  0  0  0  0  0  0  0  0  0  0
    8.3588   46.2312   51.4115 C   0  0  0  0  0  3  0  0  0  0  0  0
    6.0978   43.6634   50.5513 N   0  0  0  0  0  0  0  0  0  0  0  0
    7.9939   45.0917   50.7215 C   0  0  0  0  0  0  0  0  0  0  0  0
    6.7532   42.9041   49.6577 C   0  0  0  0  0  0  0  0  0  0  0  0
    8.6221   44.2760   49.7980 C   0  0  0  0  0  0  0  0  0  0  0  0
    8.0042   43.2039   49.2814 N   0  0  0  0  0  0  0  0  0  0  0  0
    5.0474   45.7713   52.6611 C   0  0  0  0  0  1  0  0  0  0  0  0
    9.7891   44.5306   49.4281 O   0  0  0  0  0  0  0  0  0  0  0  0
    2.2073   42.0523   51.8981 O   0  0  0  0  0  0  0  0  0  0  0  0
    2.1010   43.4187   52.2287 C   0  0  0  0  0  3  0  0  0  0  0  0
    1.5385   43.6524   53.6024 C   0  0  0  0  0  2  0  0  0  0  0  0
    1.1917   44.1900   51.3057 C   0  0  0  0  0  2  0  0  0  0  0  0
    0.7077   44.9100   53.5249 C   0  0  0  0  0  2  0  0  0  0  0  0
    0.8198   45.4328   52.1042 C   0  0  0  0  0  2  0  0  0  0  0  0
  1  7  1  0
  2  1  2  0
  3  2  1  0
  4  5  1  0
  4  3  2  0
  5  6  2  0
  6  1  1  0
  7 14  1  0
  8  9  1  0
  9 11  2  0
 10  8  1  0
 10 13  2  0
 12 10  1  0
 13 11  1  0
 14 12  2  0
 14 16  1  0
 15 13  1  0
 15 18  2  0
 16 15  1  0
 17  8  1  0
 19 20  1  0
 19  5  1  0
 21 23  1  0
 21 20  1  0
 22 24  1  0
 22 20  1  0
 24 23  1  0
M  RAD  8   2   2   3   2   4   2   6   2  11   2  17   2  20   2  21   3
M  RAD  3  22   3  23   3  24   3
M  END
>  <REMARK>  (1) 
 SMILES Cn1ncc2c(=O)[nH]c(Nc3cccc(OC4CCCC4)c3)nc21
 SMILES IDX 11 1 12 2 13 3 14 4 15 5 22 6 10 7 2 8 3 9 24 10 4 11 23 12
 SMILES IDX 5 13 9 14 6 15 8 16 1 17 7 18 16 21 17 22 18 23 21 24 19 25
 SMILES IDX 20 26
 H PARENT 8 19 10 20

>  <TORSDO>  (1) 
F 3

$$$$
