/home/pchatterjee/Documents/git/vs_workflow/DiffDock/diffdock_run/pdbqt_scrubbed/Z1576583090.pdbqt
     RDKit          3D

 24 27  0  0  0  0  0  0  0  0999 V2000
    5.0154   41.7474   49.2861 C   0  0  0  0  0  0  0  0  0  0  0  0
    4.2524   41.0809   48.3498 C   0  0  0  0  0  3  0  0  0  0  0  0
    2.9287   40.7859   48.6511 C   0  0  0  0  0  3  0  0  0  0  0  0
    2.3834   41.1545   49.8713 C   0  0  0  0  0  3  0  0  0  0  0  0
    3.1603   41.8212   50.7980 C   0  0  0  0  0  0  0  0  0  0  0  0
    4.4902   42.1264   50.5149 C   0  0  0  0  0  3  0  0  0  0  0  0
    6.3763   42.0728   49.0257 N   0  0  0  0  0  0  0  0  0  0  0  0
    6.5321   45.7330   52.2167 N   0  0  0  0  0  0  0  0  0  0  0  0
    7.5134   46.5609   52.5595 N   0  0  0  0  0  0  0  0  0  0  0  0
    6.9300   44.8672   51.2877 C   0  0  0  0  0  0  0  0  0  0  0  0
    8.6151   46.2466   51.8389 C   0  0  0  0  0  3  0  0  0  0  0  0
    6.3304   43.8491   50.6229 N   0  0  0  0  0  0  0  0  0  0  0  0
    8.2591   45.1815   51.0347 C   0  0  0  0  0  0  0  0  0  0  0  0
    7.0190   43.1378   49.7149 C   0  0  0  0  0  0  0  0  0  0  0  0
    8.9206   44.4175   50.0907 C   0  0  0  0  0  0  0  0  0  0  0  0
    8.3026   43.4158   49.4479 N   0  0  0  0  0  0  0  0  0  0  0  0
    5.2113   45.8227   52.8253 C   0  0  0  0  0  1  0  0  0  0  0  0
   10.1184   44.6534   49.8206 O   0  0  0  0  0  0  0  0  0  0  0  0
    2.6326   42.2066   52.0427 O   0  0  0  0  0  0  0  0  0  0  0  0
    1.6975   43.2614   52.0673 C   0  0  0  0  0  3  0  0  0  0  0  0
    2.2091   44.5198   51.4248 C   0  0  0  0  0  2  0  0  0  0  0  0
    1.2990   43.6770   53.4609 C   0  0  0  0  0  2  0  0  0  0  0  0
    1.6272   45.6742   52.2035 C   0  0  0  0  0  2  0  0  0  0  0  0
    0.7393   45.0826   53.2832 C   0  0  0  0  0  2  0  0  0  0  0  0
  1  7  1  0
  2  1  2  0
  3  2  1  0
  4  5  1  0
  4  3  2  0
  5  6  2  0
  6  1  1  0
  7 14  1  0
  8  9  1  0
  9 11  2  0
 10  8  1  0
 10 13  2  0
 12 10  1  0
 13 11  1  0
 14 12  2  0
 14 16  1  0
 15 13  1  0
 15 18  2  0
 16 15  1  0
 17  8  1  0
 19 20  1  0
 19  5  1  0
 21 23  1  0
 21 20  1  0
 22 24  1  0
 22 20  1  0
 24 23  1  0
M  RAD  8   2   2   3   2   4   2   6   2  11   2  17   2  20   2  21   3
M  RAD  3  22   3  23   3  24   3
M  END
>  <REMARK>  (1) 
 SMILES Cn1ncc2c(=O)[nH]c(Nc3cccc(OC4CCCC4)c3)nc21
 SMILES IDX 11 1 12 2 13 3 14 4 15 5 22 6 10 7 2 8 3 9 24 10 4 11 23 12
 SMILES IDX 5 13 9 14 6 15 8 16 1 17 7 18 16 21 17 22 18 23 21 24 19 25
 SMILES IDX 20 26
 H PARENT 8 19 10 20

>  <TORSDO>  (1) 
F 3

$$$$
