/home/pchatterjee/Documents/git/vs_workflow/DiffDock/diffdock_run/pdbqt_scrubbed/Z1576583090.pdbqt
     RDKit          3D

 24 27  0  0  0  0  0  0  0  0999 V2000
    3.8651   45.3109   52.6235 C   0  0  0  0  0  0  0  0  0  0  0  0
    2.9925   45.5072   53.6738 C   0  0  0  0  0  3  0  0  0  0  0  0
    2.1524   44.4668   54.0505 C   0  0  0  0  0  3  0  0  0  0  0  0
    2.1900   43.2523   53.3831 C   0  0  0  0  0  3  0  0  0  0  0  0
    3.0691   43.0714   52.3337 C   0  0  0  0  0  0  0  0  0  0  0  0
    3.9200   44.1027   51.9405 C   0  0  0  0  0  3  0  0  0  0  0  0
    4.7460   46.3451   52.1991 N   0  0  0  0  0  0  0  0  0  0  0  0
    8.2895   44.0764   49.7700 N   0  0  0  0  0  0  0  0  0  0  0  0
    9.6126   44.1690   49.8528 N   0  0  0  0  0  0  0  0  0  0  0  0
    7.6910   44.8915   50.6352 C   0  0  0  0  0  0  0  0  0  0  0  0
    9.9230   45.0777   50.8066 C   0  0  0  0  0  3  0  0  0  0  0  0
    6.3987   45.1664   50.9391 N   0  0  0  0  0  0  0  0  0  0  0  0
    8.7206   45.5390   51.3059 C   0  0  0  0  0  0  0  0  0  0  0  0
    6.1064   46.0675   51.8916 C   0  0  0  0  0  0  0  0  0  0  0  0
    8.3636   46.4569   52.2767 C   0  0  0  0  0  0  0  0  0  0  0  0
    7.0767   46.7094   52.5570 N   0  0  0  0  0  0  0  0  0  0  0  0
    7.6461   43.1729   48.8254 C   0  0  0  0  0  1  0  0  0  0  0  0
    9.2468   47.0711   52.9139 O   0  0  0  0  0  0  0  0  0  0  0  0
    3.1278   41.8503   51.6399 O   0  0  0  0  0  0  0  0  0  0  0  0
    2.6940   41.8296   50.2986 C   0  0  0  0  0  3  0  0  0  0  0  0
    1.2769   42.2996   50.1285 C   0  0  0  0  0  2  0  0  0  0  0  0
    2.7184   40.4539   49.6816 C   0  0  0  0  0  2  0  0  0  0  0  0
    0.6798   41.4860   49.0063 C   0  0  0  0  0  2  0  0  0  0  0  0
    1.7704   40.5627   48.4942 C   0  0  0  0  0  2  0  0  0  0  0  0
  1  7  1  0
  2  1  2  0
  3  2  1  0
  4  5  1  0
  4  3  2  0
  5  6  2  0
  6  1  1  0
  7 14  1  0
  8  9  1  0
  9 11  2  0
 10  8  1  0
 10 13  2  0
 12 10  1  0
 13 11  1  0
 14 12  2  0
 14 16  1  0
 15 13  1  0
 15 18  2  0
 16 15  1  0
 17  8  1  0
 19 20  1  0
 19  5  1  0
 21 23  1  0
 21 20  1  0
 22 24  1  0
 22 20  1  0
 24 23  1  0
M  RAD  8   2   2   3   2   4   2   6   2  11   2  17   2  20   2  21   3
M  RAD  3  22   3  23   3  24   3
M  END
>  <REMARK>  (1) 
 SMILES Cn1ncc2c(=O)[nH]c(Nc3cccc(OC4CCCC4)c3)nc21
 SMILES IDX 11 1 12 2 13 3 14 4 15 5 22 6 10 7 2 8 3 9 24 10 4 11 23 12
 SMILES IDX 5 13 9 14 6 15 8 16 1 17 7 18 16 21 17 22 18 23 21 24 19 25
 SMILES IDX 20 26
 H PARENT 8 19 10 20

>  <TORSDO>  (1) 
F 3

$$$$
