/home/pchatterjee/Documents/git/vs_workflow/DiffDock/diffdock_run/pdbqt_scrubbed/Z1576583090.pdbqt
     RDKit          3D

 24 27  0  0  0  0  0  0  0  0999 V2000
    4.9554   41.6649   49.3352 C   0  0  0  0  0  0  0  0  0  0  0  0
    4.1979   41.1627   48.2974 C   0  0  0  0  0  3  0  0  0  0  0  0
    2.8322   40.9918   48.4861 C   0  0  0  0  0  3  0  0  0  0  0  0
    2.2403   41.3201   49.6960 C   0  0  0  0  0  3  0  0  0  0  0  0
    3.0122   41.8219   50.7252 C   0  0  0  0  0  0  0  0  0  0  0  0
    4.3838   42.0007   50.5558 C   0  0  0  0  0  3  0  0  0  0  0  0
    6.3582   41.8586   49.1922 N   0  0  0  0  0  0  0  0  0  0  0  0
    6.5263   45.7547   52.0898 N   0  0  0  0  0  0  0  0  0  0  0  0
    7.5300   46.5569   52.4289 N   0  0  0  0  0  0  0  0  0  0  0  0
    6.9303   44.7967   51.2590 C   0  0  0  0  0  0  0  0  0  0  0  0
    8.6536   46.1292   51.8075 C   0  0  0  0  0  3  0  0  0  0  0  0
    6.3158   43.7595   50.6390 N   0  0  0  0  0  0  0  0  0  0  0  0
    8.2876   45.0214   51.0681 C   0  0  0  0  0  0  0  0  0  0  0  0
    7.0168   42.9423   49.8356 C   0  0  0  0  0  0  0  0  0  0  0  0
    8.9609   44.1501   50.2312 C   0  0  0  0  0  0  0  0  0  0  0  0
    8.3277   43.1320   49.6306 N   0  0  0  0  0  0  0  0  0  0  0  0
    5.1785   45.9607   52.6034 C   0  0  0  0  0  1  0  0  0  0  0  0
   10.1841   44.3021   50.0210 O   0  0  0  0  0  0  0  0  0  0  0  0
    2.4377   42.1628   51.9620 O   0  0  0  0  0  0  0  0  0  0  0  0
    1.5843   43.2841   52.0088 C   0  0  0  0  0  3  0  0  0  0  0  0
    2.2567   44.5570   51.5781 C   0  0  0  0  0  2  0  0  0  0  0  0
    1.0556   43.5780   53.3900 C   0  0  0  0  0  2  0  0  0  0  0  0
    1.6717   45.6651   52.4192 C   0  0  0  0  0  2  0  0  0  0  0  0
    0.6229   45.0369   53.3191 C   0  0  0  0  0  2  0  0  0  0  0  0
  1  7  1  0
  2  1  2  0
  3  2  1  0
  4  5  1  0
  4  3  2  0
  5  6  2  0
  6  1  1  0
  7 14  1  0
  8  9  1  0
  9 11  2  0
 10  8  1  0
 10 13  2  0
 12 10  1  0
 13 11  1  0
 14 12  2  0
 14 16  1  0
 15 13  1  0
 15 18  2  0
 16 15  1  0
 17  8  1  0
 19 20  1  0
 19  5  1  0
 21 23  1  0
 21 20  1  0
 22 24  1  0
 22 20  1  0
 24 23  1  0
M  RAD  8   2   2   3   2   4   2   6   2  11   2  17   2  20   2  21   3
M  RAD  3  22   3  23   3  24   3
M  END
>  <REMARK>  (1) 
 SMILES Cn1ncc2c(=O)[nH]c(Nc3cccc(OC4CCCC4)c3)nc21
 SMILES IDX 11 1 12 2 13 3 14 4 15 5 22 6 10 7 2 8 3 9 24 10 4 11 23 12
 SMILES IDX 5 13 9 14 6 15 8 16 1 17 7 18 16 21 17 22 18 23 21 24 19 25
 SMILES IDX 20 26
 H PARENT 8 19 10 20

>  <TORSDO>  (1) 
F 3

$$$$
