/home/pchatterjee/Documents/git/vs_workflow/DiffDock/diffdock_run/pdbqt_scrubbed/Z1576583090.pdbqt
     RDKit          3D

 24 27  0  0  0  0  0  0  0  0999 V2000
    5.0226   41.3646   48.5726 C   0  0  0  0  0  0  0  0  0  0  0  0
    4.2841   41.4556   49.7343 C   0  0  0  0  0  3  0  0  0  0  0  0
    2.9588   41.0391   49.7202 C   0  0  0  0  0  3  0  0  0  0  0  0
    2.3879   40.5407   48.5594 C   0  0  0  0  0  3  0  0  0  0  0  0
    3.1403   40.4560   47.4046 C   0  0  0  0  0  0  0  0  0  0  0  0
    4.4715   40.8686   47.3981 C   0  0  0  0  0  3  0  0  0  0  0  0
    6.3840   41.7781   48.5351 N   0  0  0  0  0  0  0  0  0  0  0  0
    5.7911   45.4520   51.6583 N   0  0  0  0  0  0  0  0  0  0  0  0
    6.6205   46.4104   52.0578 N   0  0  0  0  0  0  0  0  0  0  0  0
    6.3741   44.6415   50.7785 C   0  0  0  0  0  0  0  0  0  0  0  0
    7.8069   46.2451   51.4278 C   0  0  0  0  0  3  0  0  0  0  0  0
    5.9726   43.5447   50.0902 N   0  0  0  0  0  0  0  0  0  0  0  0
    7.6631   45.1342   50.6198 C   0  0  0  0  0  0  0  0  0  0  0  0
    6.8199   42.9275   49.2500 C   0  0  0  0  0  0  0  0  0  0  0  0
    8.4936   44.4607   49.7427 C   0  0  0  0  0  0  0  0  0  0  0  0
    8.0700   43.3779   49.0746 N   0  0  0  0  0  0  0  0  0  0  0  0
    4.4277   45.3637   52.1645 C   0  0  0  0  0  1  0  0  0  0  0  0
    9.6650   44.8575   49.5586 O   0  0  0  0  0  0  0  0  0  0  0  0
    2.5864   39.9546   46.2140 O   0  0  0  0  0  0  0  0  0  0  0  0
    2.4595   40.8356   45.1205 C   0  0  0  0  0  3  0  0  0  0  0  0
    1.5256   41.9815   45.3901 C   0  0  0  0  0  2  0  0  0  0  0  0
    1.9103   40.1769   43.8803 C   0  0  0  0  0  2  0  0  0  0  0  0
    0.8245   42.2876   44.0892 C   0  0  0  0  0  2  0  0  0  0  0  0
    1.3838   41.3374   43.0458 C   0  0  0  0  0  2  0  0  0  0  0  0
  1  7  1  0
  2  1  2  0
  3  2  1  0
  4  5  1  0
  4  3  2  0
  5  6  2  0
  6  1  1  0
  7 14  1  0
  8  9  1  0
  9 11  2  0
 10  8  1  0
 10 13  2  0
 12 10  1  0
 13 11  1  0
 14 12  2  0
 14 16  1  0
 15 13  1  0
 15 18  2  0
 16 15  1  0
 17  8  1  0
 19 20  1  0
 19  5  1  0
 21 23  1  0
 21 20  1  0
 22 24  1  0
 22 20  1  0
 24 23  1  0
M  RAD  8   2   2   3   2   4   2   6   2  11   2  17   2  20   2  21   3
M  RAD  3  22   3  23   3  24   3
M  END
>  <REMARK>  (1) 
 SMILES Cn1ncc2c(=O)[nH]c(Nc3cccc(OC4CCCC4)c3)nc21
 SMILES IDX 11 1 12 2 13 3 14 4 15 5 22 6 10 7 2 8 3 9 24 10 4 11 23 12
 SMILES IDX 5 13 9 14 6 15 8 16 1 17 7 18 16 21 17 22 18 23 21 24 19 25
 SMILES IDX 20 26
 H PARENT 8 19 10 20

>  <TORSDO>  (1) 
F 3

$$$$
