/home/pchatterjee/Documents/git/vs_workflow/DiffDock/diffdock_run/pdbqt_scrubbed/Z1576583090.pdbqt
     RDKit          3D

 24 27  0  0  0  0  0  0  0  0999 V2000
    4.1273   45.4670   52.9469 C   0  0  0  0  0  0  0  0  0  0  0  0
    3.4041   45.5872   54.1155 C   0  0  0  0  0  3  0  0  0  0  0  0
    2.5788   44.5392   54.5036 C   0  0  0  0  0  3  0  0  0  0  0  0
    2.4831   43.3925   53.7305 C   0  0  0  0  0  3  0  0  0  0  0  0
    3.2135   43.2875   52.5633 C   0  0  0  0  0  0  0  0  0  0  0  0
    4.0471   44.3275   52.1566 C   0  0  0  0  0  3  0  0  0  0  0  0
    4.9869   46.5122   52.5059 N   0  0  0  0  0  0  0  0  0  0  0  0
    8.3134   44.2061   49.8189 N   0  0  0  0  0  0  0  0  0  0  0  0
    9.6375   44.3109   49.7763 N   0  0  0  0  0  0  0  0  0  0  0  0
    7.7892   45.0395   50.7142 C   0  0  0  0  0  0  0  0  0  0  0  0
   10.0256   45.2472   50.6732 C   0  0  0  0  0  3  0  0  0  0  0  0
    6.5279   45.3126   51.1293 N   0  0  0  0  0  0  0  0  0  0  0  0
    8.8699   45.7126   51.2696 C   0  0  0  0  0  0  0  0  0  0  0  0
    6.3158   46.2367   52.0810 C   0  0  0  0  0  0  0  0  0  0  0  0
    8.5948   46.6535   52.2451 C   0  0  0  0  0  0  0  0  0  0  0  0
    7.3369   46.9036   52.6367 N   0  0  0  0  0  0  0  0  0  0  0  0
    7.5945   43.2726   48.9617 C   0  0  0  0  0  1  0  0  0  0  0  0
    9.5270   47.2913   52.7815 O   0  0  0  0  0  0  0  0  0  0  0  0
    3.1352   42.1361   51.7607 O   0  0  0  0  0  0  0  0  0  0  0  0
    2.2769   42.1657   50.6426 C   0  0  0  0  0  3  0  0  0  0  0  0
    0.8518   42.4811   50.9996 C   0  0  0  0  0  2  0  0  0  0  0  0
    2.2060   40.8519   49.9061 C   0  0  0  0  0  2  0  0  0  0  0  0
   -0.0195   41.6903   50.0545 C   0  0  0  0  0  2  0  0  0  0  0  0
    0.9069   40.9392   49.1153 C   0  0  0  0  0  2  0  0  0  0  0  0
  1  7  1  0
  2  1  2  0
  3  2  1  0
  4  5  1  0
  4  3  2  0
  5  6  2  0
  6  1  1  0
  7 14  1  0
  8  9  1  0
  9 11  2  0
 10  8  1  0
 10 13  2  0
 12 10  1  0
 13 11  1  0
 14 12  2  0
 14 16  1  0
 15 13  1  0
 15 18  2  0
 16 15  1  0
 17  8  1  0
 19 20  1  0
 19  5  1  0
 21 23  1  0
 21 20  1  0
 22 24  1  0
 22 20  1  0
 24 23  1  0
M  RAD  8   2   2   3   2   4   2   6   2  11   2  17   2  20   2  21   3
M  RAD  3  22   3  23   3  24   3
M  END
>  <REMARK>  (1) 
 SMILES Cn1ncc2c(=O)[nH]c(Nc3cccc(OC4CCCC4)c3)nc21
 SMILES IDX 11 1 12 2 13 3 14 4 15 5 22 6 10 7 2 8 3 9 24 10 4 11 23 12
 SMILES IDX 5 13 9 14 6 15 8 16 1 17 7 18 16 21 17 22 18 23 21 24 19 25
 SMILES IDX 20 26
 H PARENT 8 19 10 20

>  <TORSDO>  (1) 
F 3

$$$$
