/home/pchatterjee/Documents/git/vs_workflow/DiffDock/diffdock_run/pdbqt_scrubbed/Z1627224447.pdbqt
     RDKit          3D

 22 24  0  0  0  0  0  0  0  0999 V2000
    6.5018   45.2915   52.8969 N   0  0  0  0  0  0  0  0  0  0  0  0
    6.5477   46.9114   53.4505 S   0  0  2  0  0  0  0  0  0  0  0  0
    5.7530   47.1059   54.7083 O   0  0  0  0  0  0  0  0  0  0  0  0
    5.9434   47.8372   52.4224 O   0  0  0  0  0  0  0  0  0  0  0  0
    8.1876   47.4614   53.6964 C   0  0  0  0  0  0  0  0  0  0  0  0
    9.1922   47.5955   52.7490 C   0  0  0  0  0  3  0  0  0  0  0  0
    8.7288   47.8470   54.8807 N   0  0  0  0  0  0  0  0  0  0  0  0
   10.3062   48.0542   53.3751 N   0  0  0  0  0  0  0  0  0  0  0  0
   10.0256   48.2125   54.6987 C   0  0  0  0  0  3  0  0  0  0  0  0
    7.2740   44.8820   51.7822 C   0  0  0  0  0  0  0  0  0  0  0  0
    8.4265   45.6108   51.4926 C   0  0  0  0  0  3  0  0  0  0  0  0
    6.9524   43.8119   50.9755 C   0  0  0  0  0  0  0  0  0  0  0  0
    9.1844   45.2196   50.4106 C   0  0  0  0  0  3  0  0  0  0  0  0
    7.7237   43.4766   49.9386 N   0  0  0  0  0  0  0  0  0  0  0  0
    8.8468   44.1492   49.6177 C   0  0  0  0  0  3  0  0  0  0  0  0
    5.7867   43.0518   51.2538 N   0  0  0  0  0  0  0  0  0  0  0  0
    5.1330   42.3177   50.2197 C   0  0  0  0  0  0  0  0  0  0  0  0
    5.6937   42.0231   49.0142 C   0  0  0  0  0  3  0  0  0  0  0  0
    3.8495   41.8806   50.4631 C   0  0  0  0  0  3  0  0  0  0  0  0
    4.9657   41.3075   48.0934 C   0  0  0  0  0  3  0  0  0  0  0  0
    3.1115   41.1637   49.5488 C   0  0  0  0  0  3  0  0  0  0  0  0
    3.6887   40.8724   48.3347 C   0  0  0  0  0  3  0  0  0  0  0  0
  1 10  1  0
  2  1  1  6
  2  4  2  0
  2  5  1  0
  3  2  2  0
  5  7  1  0
  5  6  2  0
  6  8  1  0
  7  9  2  0
  9  8  1  0
 10 12  1  0
 11 10  2  0
 11 13  1  0
 12 16  1  0
 12 14  2  0
 13 15  2  0
 15 14  1  0
 16 17  1  0
 17 18  2  0
 18 20  1  0
 19 21  2  0
 19 17  1  0
 21 22  1  0
 22 20  2  0
M  RAD  8   6   2   9   2  11   2  13   2  15   2  18   2  19   2  20   2
M  RAD  2  21   2  22   2
M  END
>  <REMARK>  (1) 
 SMILES O=S(=O)(Nc1cccnc1Nc1ccccc1)c1c[nH]cn1
 SMILES IDX 4 1 2 3 1 4 3 5 18 6 19 7 22 8 20 9 21 10 5 12 6 13 10 14
 SMILES IDX 7 15 9 16 8 17 11 18 12 20 13 21 17 22 14 23 16 24 15 25
 H PARENT 4 2 20 11 11 19

>  <TORSDO>  (1) 
F 5

$$$$
