/home/pchatterjee/Documents/git/vs_workflow/DiffDock/diffdock_run/pdbqt_scrubbed/Z1627224447.pdbqt
     RDKit          3D

 22 24  0  0  0  0  0  0  0  0999 V2000
    8.5822   46.0485   50.7170 N   0  0  0  0  0  0  0  0  0  0  0  0
    8.8390   44.3609   50.5808 S   0  0  2  0  0  0  0  0  0  0  0  0
    9.4888   43.7834   51.8037 O   0  0  0  0  0  0  0  0  0  0  0  0
    9.7668   44.0601   49.4283 O   0  0  0  0  0  0  0  0  0  0  0  0
    7.3517   43.5086   50.2433 C   0  0  0  0  0  0  0  0  0  0  0  0
    6.9729   42.8922   49.0595 C   0  0  0  0  0  3  0  0  0  0  0  0
    6.3262   43.3219   51.1136 N   0  0  0  0  0  0  0  0  0  0  0  0
    5.7401   42.3525   49.2388 N   0  0  0  0  0  0  0  0  0  0  0  0
    5.3325   42.6154   50.5118 C   0  0  0  0  0  3  0  0  0  0  0  0
    8.4151   46.6585   51.9845 C   0  0  0  0  0  0  0  0  0  0  0  0
    9.5261   47.2789   52.5537 C   0  0  0  0  0  3  0  0  0  0  0  0
    7.2253   46.6733   52.6798 C   0  0  0  0  0  0  0  0  0  0  0  0
    9.3731   47.8755   53.7861 C   0  0  0  0  0  3  0  0  0  0  0  0
    7.1334   47.2668   53.8723 N   0  0  0  0  0  0  0  0  0  0  0  0
    8.1778   47.8795   54.4641 C   0  0  0  0  0  3  0  0  0  0  0  0
    6.0793   46.0527   52.1181 N   0  0  0  0  0  0  0  0  0  0  0  0
    4.8503   46.0046   52.8411 C   0  0  0  0  0  0  0  0  0  0  0  0
    4.6765   45.3424   54.0183 C   0  0  0  0  0  3  0  0  0  0  0  0
    3.7713   46.6745   52.3076 C   0  0  0  0  0  3  0  0  0  0  0  0
    3.4433   45.3664   54.6251 C   0  0  0  0  0  3  0  0  0  0  0  0
    2.5322   46.7053   52.9064 C   0  0  0  0  0  3  0  0  0  0  0  0
    2.3693   46.0326   54.0950 C   0  0  0  0  0  3  0  0  0  0  0  0
  1 10  1  0
  2  1  1  1
  2  4  2  0
  2  5  1  0
  3  2  2  0
  5  7  1  0
  5  6  2  0
  6  8  1  0
  7  9  2  0
  9  8  1  0
 10 12  1  0
 11 10  2  0
 11 13  1  0
 12 16  1  0
 12 14  2  0
 13 15  2  0
 15 14  1  0
 16 17  1  0
 17 18  2  0
 18 20  1  0
 19 21  2  0
 19 17  1  0
 21 22  1  0
 22 20  2  0
M  RAD  8   6   2   9   2  11   2  13   2  15   2  18   2  19   2  20   2
M  RAD  2  21   2  22   2
M  END
>  <REMARK>  (1) 
 SMILES O=S(=O)(Nc1cccnc1Nc1ccccc1)c1c[nH]cn1
 SMILES IDX 4 1 2 3 1 4 3 5 18 6 19 7 22 8 20 9 21 10 5 12 6 13 10 14
 SMILES IDX 7 15 9 16 8 17 11 18 12 20 13 21 17 22 14 23 16 24 15 25
 H PARENT 4 2 20 11 11 19

>  <TORSDO>  (1) 
F 5

$$$$
