/home/pchatterjee/Documents/git/vs_workflow/DiffDock/diffdock_run/pdbqt_scrubbed/Z1627224447.pdbqt
     RDKit          3D

 22 24  0  0  0  0  0  0  0  0999 V2000
    7.8109   44.7899   49.7166 N   0  0  0  0  0  0  0  0  0  0  0  0
    9.3692   44.8320   50.4253 S   0  0  2  0  0  0  0  0  0  0  0  0
   10.4515   45.0475   49.4085 O   0  0  0  0  0  0  0  0  0  0  0  0
    9.6784   43.5161   51.0978 O   0  0  0  0  0  0  0  0  0  0  0  0
    9.4771   46.0522   51.6710 C   0  0  0  0  0  0  0  0  0  0  0  0
    9.7194   45.8685   53.0246 C   0  0  0  0  0  3  0  0  0  0  0  0
    9.3359   47.3905   51.4888 N   0  0  0  0  0  0  0  0  0  0  0  0
    9.7192   47.0867   53.6239 N   0  0  0  0  0  0  0  0  0  0  0  0
    9.4818   48.0362   52.6764 C   0  0  0  0  0  3  0  0  0  0  0  0
    6.6571   44.5739   50.5096 C   0  0  0  0  0  0  0  0  0  0  0  0
    6.3321   45.5459   51.4544 C   0  0  0  0  0  3  0  0  0  0  0  0
    5.8448   43.4661   50.3994 C   0  0  0  0  0  0  0  0  0  0  0  0
    5.2112   45.3449   52.2300 C   0  0  0  0  0  3  0  0  0  0  0  0
    4.7695   43.3221   51.1776 N   0  0  0  0  0  0  0  0  0  0  0  0
    4.4135   44.2330   52.1051 C   0  0  0  0  0  3  0  0  0  0  0  0
    6.1526   42.4657   49.4410 N   0  0  0  0  0  0  0  0  0  0  0  0
    5.1185   41.6748   48.8573 C   0  0  0  0  0  0  0  0  0  0  0  0
    3.9308   41.3951   49.4620 C   0  0  0  0  0  3  0  0  0  0  0  0
    5.3425   41.1630   47.5982 C   0  0  0  0  0  3  0  0  0  0  0  0
    3.0081   40.6200   48.8006 C   0  0  0  0  0  3  0  0  0  0  0  0
    4.4260   40.3859   46.9266 C   0  0  0  0  0  3  0  0  0  0  0  0
    3.2301   40.1104   47.5478 C   0  0  0  0  0  3  0  0  0  0  0  0
  1 10  1  0
  2  1  1  6
  2  4  2  0
  2  5  1  0
  3  2  2  0
  5  7  1  0
  5  6  2  0
  6  8  1  0
  7  9  2  0
  9  8  1  0
 10 12  1  0
 11 10  2  0
 11 13  1  0
 12 16  1  0
 12 14  2  0
 13 15  2  0
 15 14  1  0
 16 17  1  0
 17 18  2  0
 18 20  1  0
 19 21  2  0
 19 17  1  0
 21 22  1  0
 22 20  2  0
M  RAD  8   6   2   9   2  11   2  13   2  15   2  18   2  19   2  20   2
M  RAD  2  21   2  22   2
M  END
>  <REMARK>  (1) 
 SMILES O=S(=O)(Nc1cccnc1Nc1ccccc1)c1c[nH]cn1
 SMILES IDX 4 1 2 3 1 4 3 5 18 6 19 7 22 8 20 9 21 10 5 12 6 13 10 14
 SMILES IDX 7 15 9 16 8 17 11 18 12 20 13 21 17 22 14 23 16 24 15 25
 H PARENT 4 2 20 11 11 19

>  <TORSDO>  (1) 
F 5

$$$$
