/home/pchatterjee/Documents/git/vs_workflow/DiffDock/diffdock_run/pdbqt_scrubbed/Z1627224447.pdbqt
     RDKit          3D

 22 24  0  0  0  0  0  0  0  0999 V2000
    8.1614   44.5706   49.8035 N   0  0  0  0  0  0  0  0  0  0  0  0
    9.6310   44.6623   50.6777 S   0  0  2  0  0  0  0  0  0  0  0  0
   10.8152   44.8719   49.7803 O   0  0  0  0  0  0  0  0  0  0  0  0
    9.8859   43.3712   51.4176 O   0  0  0  0  0  0  0  0  0  0  0  0
    9.5804   45.9172   51.8922 C   0  0  0  0  0  0  0  0  0  0  0  0
    9.3438   45.7775   53.2521 C   0  0  0  0  0  3  0  0  0  0  0  0
    9.7703   47.2441   51.6742 N   0  0  0  0  0  0  0  0  0  0  0  0
    9.3955   47.0098   53.8196 N   0  0  0  0  0  0  0  0  0  0  0  0
    9.6599   47.9250   52.8459 C   0  0  0  0  0  3  0  0  0  0  0  0
    6.9160   44.5305   50.4773 C   0  0  0  0  0  0  0  0  0  0  0  0
    6.5675   45.6329   51.2559 C   0  0  0  0  0  3  0  0  0  0  0  0
    6.0368   43.4715   50.4057 C   0  0  0  0  0  0  0  0  0  0  0  0
    5.3577   45.6034   51.9145 C   0  0  0  0  0  3  0  0  0  0  0  0
    4.8763   43.4958   51.0655 N   0  0  0  0  0  0  0  0  0  0  0  0
    4.4944   44.5376   51.8307 C   0  0  0  0  0  3  0  0  0  0  0  0
    6.3675   42.3403   49.6151 N   0  0  0  0  0  0  0  0  0  0  0  0
    5.3467   41.5798   48.9708 C   0  0  0  0  0  0  0  0  0  0  0  0
    5.4367   41.0916   47.7027 C   0  0  0  0  0  3  0  0  0  0  0  0
    4.1960   41.3258   49.6841 C   0  0  0  0  0  3  0  0  0  0  0  0
    4.3866   40.3705   47.1860 C   0  0  0  0  0  3  0  0  0  0  0  0
    3.1385   40.6051   49.1770 C   0  0  0  0  0  3  0  0  0  0  0  0
    3.2413   40.1174   47.8950 C   0  0  0  0  0  3  0  0  0  0  0  0
  1 10  1  0
  2  1  1  6
  2  4  2  0
  2  5  1  0
  3  2  2  0
  5  7  1  0
  5  6  2  0
  6  8  1  0
  7  9  2  0
  9  8  1  0
 10 12  1  0
 11 10  2  0
 11 13  1  0
 12 16  1  0
 12 14  2  0
 13 15  2  0
 15 14  1  0
 16 17  1  0
 17 18  2  0
 18 20  1  0
 19 21  2  0
 19 17  1  0
 21 22  1  0
 22 20  2  0
M  RAD  8   6   2   9   2  11   2  13   2  15   2  18   2  19   2  20   2
M  RAD  2  21   2  22   2
M  END
>  <REMARK>  (1) 
 SMILES O=S(=O)(Nc1cccnc1Nc1ccccc1)c1c[nH]cn1
 SMILES IDX 4 1 2 3 1 4 3 5 18 6 19 7 22 8 20 9 21 10 5 12 6 13 10 14
 SMILES IDX 7 15 9 16 8 17 11 18 12 20 13 21 17 22 14 23 16 24 15 25
 H PARENT 4 2 20 11 11 19

>  <TORSDO>  (1) 
F 5

$$$$
