/home/pchatterjee/Documents/git/vs_workflow/DiffDock/diffdock_run/pdbqt_scrubbed/Z1627224447.pdbqt
     RDKit          3D

 22 24  0  0  0  0  0  0  0  0999 V2000
    7.6594   45.7033   53.7043 N   0  0  0  0  0  0  0  0  0  0  0  0
    6.6034   47.0402   53.8780 S   0  0  2  0  0  0  0  0  0  0  0  0
    7.0733   48.2404   53.1098 O   0  0  0  0  0  0  0  0  0  0  0  0
    6.5278   47.4680   55.3239 O   0  0  0  0  0  0  0  0  0  0  0  0
    4.9710   46.6369   53.4038 C   0  0  0  0  0  0  0  0  0  0  0  0
    4.0860   45.7794   54.0413 C   0  0  0  0  0  3  0  0  0  0  0  0
    4.3166   47.1171   52.3152 N   0  0  0  0  0  0  0  0  0  0  0  0
    2.9289   45.7608   53.3313 N   0  0  0  0  0  0  0  0  0  0  0  0
    3.0650   46.5890   52.2584 C   0  0  0  0  0  3  0  0  0  0  0  0
    8.2600   45.4086   52.4557 C   0  0  0  0  0  0  0  0  0  0  0  0
    9.4167   46.1079   52.1148 C   0  0  0  0  0  3  0  0  0  0  0  0
    7.7690   44.4764   51.5673 C   0  0  0  0  0  0  0  0  0  0  0  0
   10.0085   45.8276   50.9025 C   0  0  0  0  0  3  0  0  0  0  0  0
    8.3834   44.2446   50.4048 N   0  0  0  0  0  0  0  0  0  0  0  0
    9.5033   44.8941   50.0298 C   0  0  0  0  0  3  0  0  0  0  0  0
    6.5957   43.7484   51.8949 N   0  0  0  0  0  0  0  0  0  0  0  0
    5.8066   43.1423   50.8723 C   0  0  0  0  0  0  0  0  0  0  0  0
    4.4452   43.1528   50.8444 C   0  0  0  0  0  3  0  0  0  0  0  0
    6.4722   42.5057   49.8479 C   0  0  0  0  0  3  0  0  0  0  0  0
    3.7913   42.5340   49.8056 C   0  0  0  0  0  3  0  0  0  0  0  0
    5.8279   41.8830   48.8030 C   0  0  0  0  0  3  0  0  0  0  0  0
    4.4527   41.9004   48.7860 C   0  0  0  0  0  3  0  0  0  0  0  0
  1 10  1  0
  2  1  1  1
  2  4  2  0
  2  5  1  0
  3  2  2  0
  5  7  1  0
  5  6  2  0
  6  8  1  0
  7  9  2  0
  9  8  1  0
 10 12  1  0
 11 10  2  0
 11 13  1  0
 12 16  1  0
 12 14  2  0
 13 15  2  0
 15 14  1  0
 16 17  1  0
 17 18  2  0
 18 20  1  0
 19 21  2  0
 19 17  1  0
 21 22  1  0
 22 20  2  0
M  RAD  8   6   2   9   2  11   2  13   2  15   2  18   2  19   2  20   2
M  RAD  2  21   2  22   2
M  END
>  <REMARK>  (1) 
 SMILES O=S(=O)(Nc1cccnc1Nc1ccccc1)c1c[nH]cn1
 SMILES IDX 4 1 2 3 1 4 3 5 18 6 19 7 22 8 20 9 21 10 5 12 6 13 10 14
 SMILES IDX 7 15 9 16 8 17 11 18 12 20 13 21 17 22 14 23 16 24 15 25
 H PARENT 4 2 20 11 11 19

>  <TORSDO>  (1) 
F 5

$$$$
