/home/pchatterjee/Documents/git/vs_workflow/DiffDock/diffdock_run/pdbqt_scrubbed/Z1627224447.pdbqt
     RDKit          3D

 22 24  0  0  0  0  0  0  0  0999 V2000
    7.2104   45.9113   54.0834 N   0  0  0  0  0  0  0  0  0  0  0  0
    5.5681   45.6346   54.4819 S   0  0  2  0  0  0  0  0  0  0  0  0
    5.2162   46.1598   55.8427 O   0  0  0  0  0  0  0  0  0  0  0  0
    5.2752   44.1538   54.5126 O   0  0  0  0  0  0  0  0  0  0  0  0
    4.4918   46.3188   53.2878 C   0  0  0  0  0  0  0  0  0  0  0  0
    3.5317   45.6628   52.5311 C   0  0  0  0  0  3  0  0  0  0  0  0
    4.4387   47.6247   52.9192 N   0  0  0  0  0  0  0  0  0  0  0  0
    2.9262   46.5771   51.7306 N   0  0  0  0  0  0  0  0  0  0  0  0
    3.4843   47.7972   51.9663 C   0  0  0  0  0  3  0  0  0  0  0  0
    7.6492   45.8674   52.7372 C   0  0  0  0  0  0  0  0  0  0  0  0
    8.4549   46.9118   52.2866 C   0  0  0  0  0  3  0  0  0  0  0  0
    7.3272   44.8578   51.8561 C   0  0  0  0  0  0  0  0  0  0  0  0
    8.8872   46.8775   50.9789 C   0  0  0  0  0  3  0  0  0  0  0  0
    7.7741   44.8749   50.5981 N   0  0  0  0  0  0  0  0  0  0  0  0
    8.5551   45.8616   50.1152 C   0  0  0  0  0  3  0  0  0  0  0  0
    6.5125   43.7812   52.2936 N   0  0  0  0  0  0  0  0  0  0  0  0
    5.9009   42.9022   51.3508 C   0  0  0  0  0  0  0  0  0  0  0  0
    6.5036   42.4536   50.2151 C   0  0  0  0  0  3  0  0  0  0  0  0
    4.6151   42.4829   51.6126 C   0  0  0  0  0  3  0  0  0  0  0  0
    5.8139   41.6073   49.3797 C   0  0  0  0  0  3  0  0  0  0  0  0
    3.9151   41.6360   50.7834 C   0  0  0  0  0  3  0  0  0  0  0  0
    4.5346   41.1898   49.6393 C   0  0  0  0  0  3  0  0  0  0  0  0
  1 10  1  0
  2  1  1  6
  2  4  2  0
  2  5  1  0
  3  2  2  0
  5  7  1  0
  5  6  2  0
  6  8  1  0
  7  9  2  0
  9  8  1  0
 10 12  1  0
 11 10  2  0
 11 13  1  0
 12 16  1  0
 12 14  2  0
 13 15  2  0
 15 14  1  0
 16 17  1  0
 17 18  2  0
 18 20  1  0
 19 21  2  0
 19 17  1  0
 21 22  1  0
 22 20  2  0
M  RAD  8   6   2   9   2  11   2  13   2  15   2  18   2  19   2  20   2
M  RAD  2  21   2  22   2
M  END
>  <REMARK>  (1) 
 SMILES O=S(=O)(Nc1cccnc1Nc1ccccc1)c1c[nH]cn1
 SMILES IDX 4 1 2 3 1 4 3 5 18 6 19 7 22 8 20 9 21 10 5 12 6 13 10 14
 SMILES IDX 7 15 9 16 8 17 11 18 12 20 13 21 17 22 14 23 16 24 15 25
 H PARENT 4 2 20 11 11 19

>  <TORSDO>  (1) 
F 5

$$$$
