/home/pchatterjee/Documents/git/vs_workflow/DiffDock/diffdock_run/pdbqt_scrubbed/Z1627224447.pdbqt
     RDKit          3D

 22 24  0  0  0  0  0  0  0  0999 V2000
   10.3903   85.0027   69.6177 N   0  0  0  0  0  0  0  0  0  0  0  0
   10.7676   86.6613   69.4203 S   0  0  2  0  0  0  0  0  0  0  0  0
    9.9771   87.5390   70.3457 O   0  0  0  0  0  0  0  0  0  0  0  0
   10.4327   87.1152   68.0199 O   0  0  0  0  0  0  0  0  0  0  0  0
   12.4751   86.9630   69.6343 C   0  0  0  0  0  0  0  0  0  0  0  0
   13.0949   87.6583   70.6625 C   0  0  0  0  0  3  0  0  0  0  0  0
   13.4667   86.5496   68.8038 N   0  0  0  0  0  0  0  0  0  0  0  0
   14.4330   87.6497   70.4329 N   0  0  0  0  0  0  0  0  0  0  0  0
   14.6710   86.9632   69.2806 C   0  0  0  0  0  3  0  0  0  0  0  0
   10.4416   84.3924   70.8951 C   0  0  0  0  0  0  0  0  0  0  0  0
    9.2574   84.3277   71.6275 C   0  0  0  0  0  3  0  0  0  0  0  0
   11.5872   83.8629   71.4487 C   0  0  0  0  0  0  0  0  0  0  0  0
    9.2972   83.7353   72.8708 C   0  0  0  0  0  3  0  0  0  0  0  0
   11.5688   83.2997   72.6591 N   0  0  0  0  0  0  0  0  0  0  0  0
   10.4501   83.2129   73.4059 C   0  0  0  0  0  3  0  0  0  0  0  0
   12.8038   83.9124   70.7196 N   0  0  0  0  0  0  0  0  0  0  0  0
   14.0332   83.5216   71.3288 C   0  0  0  0  0  0  0  0  0  0  0  0
   14.3817   83.8132   72.6125 C   0  0  0  0  0  3  0  0  0  0  0  0
   14.9228   82.8014   70.5622 C   0  0  0  0  0  3  0  0  0  0  0  0
   15.5961   83.3828   73.0917 C   0  0  0  0  0  3  0  0  0  0  0  0
   16.1412   82.3654   71.0314 C   0  0  0  0  0  3  0  0  0  0  0  0
   16.4818   82.6663   72.3296 C   0  0  0  0  0  3  0  0  0  0  0  0
  1 10  1  0
  2  1  1  6
  2  4  2  0
  2  5  1  0
  3  2  2  0
  5  7  1  0
  5  6  2  0
  6  8  1  0
  7  9  2  0
  9  8  1  0
 10 12  1  0
 11 10  2  0
 11 13  1  0
 12 16  1  0
 12 14  2  0
 13 15  2  0
 15 14  1  0
 16 17  1  0
 17 18  2  0
 18 20  1  0
 19 21  2  0
 19 17  1  0
 21 22  1  0
 22 20  2  0
M  RAD  8   6   2   9   2  11   2  13   2  15   2  18   2  19   2  20   2
M  RAD  2  21   2  22   2
M  END
>  <REMARK>  (1) 
 SMILES O=S(=O)(Nc1cccnc1Nc1ccccc1)c1c[nH]cn1
 SMILES IDX 4 1 2 3 1 4 3 5 18 6 19 7 22 8 20 9 21 10 5 12 6 13 10 14
 SMILES IDX 7 15 9 16 8 17 11 18 12 20 13 21 17 22 14 23 16 24 15 25
 H PARENT 4 2 20 11 11 19

>  <TORSDO>  (1) 
F 5

$$$$
