/home/pchatterjee/Documents/git/vs_workflow/DiffDock/diffdock_run/pdbqt_scrubbed/Z1627224447.pdbqt
     RDKit          3D

 22 24  0  0  0  0  0  0  0  0999 V2000
    7.7061   44.8089   49.8511 N   0  0  0  0  0  0  0  0  0  0  0  0
    9.2402   44.7780   50.6114 S   0  0  2  0  0  0  0  0  0  0  0  0
   10.3632   44.9743   49.6359 O   0  0  0  0  0  0  0  0  0  0  0  0
    9.4781   43.4375   51.2642 O   0  0  0  0  0  0  0  0  0  0  0  0
    9.3506   45.9668   51.8869 C   0  0  0  0  0  0  0  0  0  0  0  0
    9.5615   45.7468   53.2404 C   0  0  0  0  0  3  0  0  0  0  0  0
    9.2433   47.3117   51.7331 N   0  0  0  0  0  0  0  0  0  0  0  0
    9.5768   46.9508   53.8677 N   0  0  0  0  0  0  0  0  0  0  0  0
    9.3798   47.9268   52.9379 C   0  0  0  0  0  3  0  0  0  0  0  0
    6.5176   44.6488   50.6051 C   0  0  0  0  0  0  0  0  0  0  0  0
    6.1573   45.6816   51.4691 C   0  0  0  0  0  3  0  0  0  0  0  0
    5.7044   43.5386   50.5318 C   0  0  0  0  0  0  0  0  0  0  0  0
    5.0024   45.5352   52.2061 C   0  0  0  0  0  3  0  0  0  0  0  0
    4.5953   43.4490   51.2698 N   0  0  0  0  0  0  0  0  0  0  0  0
    4.2045   44.4198   52.1192 C   0  0  0  0  0  3  0  0  0  0  0  0
    6.0480   42.4766   49.6553 N   0  0  0  0  0  0  0  0  0  0  0  0
    5.0374   41.7696   48.9381 C   0  0  0  0  0  0  0  0  0  0  0  0
    3.8335   41.4082   49.4619 C   0  0  0  0  0  3  0  0  0  0  0  0
    5.3033   41.4330   47.6290 C   0  0  0  0  0  3  0  0  0  0  0  0
    2.9365   40.7276   48.6733 C   0  0  0  0  0  3  0  0  0  0  0  0
    4.4129   40.7519   46.8303 C   0  0  0  0  0  3  0  0  0  0  0  0
    3.2003   40.3923   47.3708 C   0  0  0  0  0  3  0  0  0  0  0  0
  1 10  1  0
  2  1  1  6
  2  4  2  0
  2  5  1  0
  3  2  2  0
  5  7  1  0
  5  6  2  0
  6  8  1  0
  7  9  2  0
  9  8  1  0
 10 12  1  0
 11 10  2  0
 11 13  1  0
 12 16  1  0
 12 14  2  0
 13 15  2  0
 15 14  1  0
 16 17  1  0
 17 18  2  0
 18 20  1  0
 19 21  2  0
 19 17  1  0
 21 22  1  0
 22 20  2  0
M  RAD  8   6   2   9   2  11   2  13   2  15   2  18   2  19   2  20   2
M  RAD  2  21   2  22   2
M  END
>  <REMARK>  (1) 
 SMILES O=S(=O)(Nc1cccnc1Nc1ccccc1)c1c[nH]cn1
 SMILES IDX 4 1 2 3 1 4 3 5 18 6 19 7 22 8 20 9 21 10 5 12 6 13 10 14
 SMILES IDX 7 15 9 16 8 17 11 18 12 20 13 21 17 22 14 23 16 24 15 25
 H PARENT 4 2 20 11 11 19

>  <TORSDO>  (1) 
F 5

$$$$
