/home/pchatterjee/Documents/git/vs_workflow/DiffDock/diffdock_run/pdbqt_scrubbed/Z1627224447.pdbqt
     RDKit          3D

 22 24  0  0  0  0  0  0  0  0999 V2000
   10.5542   84.2984   72.8165 N   0  0  0  0  0  0  0  0  0  0  0  0
    9.4745   84.8180   71.5931 S   0  0  2  0  0  0  0  0  0  0  0  0
    8.3348   85.6237   72.1441 O   0  0  0  0  0  0  0  0  0  0  0  0
    8.8538   83.6299   70.8983 O   0  0  0  0  0  0  0  0  0  0  0  0
   10.2986   85.7313   70.3526 C   0  0  0  0  0  0  0  0  0  0  0  0
   11.1536   85.2541   69.3697 C   0  0  0  0  0  3  0  0  0  0  0  0
   10.2187   87.0741   70.1670 N   0  0  0  0  0  0  0  0  0  0  0  0
   11.5669   86.3079   68.6200 N   0  0  0  0  0  0  0  0  0  0  0  0
   10.9904   87.4410   69.1094 C   0  0  0  0  0  3  0  0  0  0  0  0
   11.7023   85.0606   73.1446 C   0  0  0  0  0  0  0  0  0  0  0  0
   11.5064   86.2657   73.8172 C   0  0  0  0  0  3  0  0  0  0  0  0
   12.9910   84.6797   72.8391 C   0  0  0  0  0  0  0  0  0  0  0  0
   12.6172   87.0137   74.1412 C   0  0  0  0  0  3  0  0  0  0  0  0
   14.0321   85.4442   73.1773 N   0  0  0  0  0  0  0  0  0  0  0  0
   13.8949   86.6167   73.8276 C   0  0  0  0  0  3  0  0  0  0  0  0
   13.2156   83.4543   72.1594 N   0  0  0  0  0  0  0  0  0  0  0  0
   14.5257   83.0930   71.7250 C   0  0  0  0  0  0  0  0  0  0  0  0
   14.8226   81.9500   71.0470 C   0  0  0  0  0  3  0  0  0  0  0  0
   15.5544   83.9625   72.0136 C   0  0  0  0  0  3  0  0  0  0  0  0
   16.1248   81.7079   70.6791 C   0  0  0  0  0  3  0  0  0  0  0  0
   16.8617   83.7304   71.6503 C   0  0  0  0  0  3  0  0  0  0  0  0
   17.1489   82.5724   70.9660 C   0  0  0  0  0  3  0  0  0  0  0  0
  1 10  1  0
  2  1  1  1
  2  4  2  0
  2  5  1  0
  3  2  2  0
  5  7  1  0
  5  6  2  0
  6  8  1  0
  7  9  2  0
  9  8  1  0
 10 12  1  0
 11 10  2  0
 11 13  1  0
 12 16  1  0
 12 14  2  0
 13 15  2  0
 15 14  1  0
 16 17  1  0
 17 18  2  0
 18 20  1  0
 19 21  2  0
 19 17  1  0
 21 22  1  0
 22 20  2  0
M  RAD  8   6   2   9   2  11   2  13   2  15   2  18   2  19   2  20   2
M  RAD  2  21   2  22   2
M  END
>  <REMARK>  (1) 
 SMILES O=S(=O)(Nc1cccnc1Nc1ccccc1)c1c[nH]cn1
 SMILES IDX 4 1 2 3 1 4 3 5 18 6 19 7 22 8 20 9 21 10 5 12 6 13 10 14
 SMILES IDX 7 15 9 16 8 17 11 18 12 20 13 21 17 22 14 23 16 24 15 25
 H PARENT 4 2 20 11 11 19

>  <TORSDO>  (1) 
F 5

$$$$
