/home/pchatterjee/Documents/git/vs_workflow/DiffDock/diffdock_run/pdbqt_scrubbed/Z1627224447.pdbqt
     RDKit          3D

 22 24  0  0  0  0  0  0  0  0999 V2000
    8.6505   46.0759   50.7986 N   0  0  0  0  0  0  0  0  0  0  0  0
    8.8959   44.3966   50.5702 S   0  0  2  0  0  0  0  0  0  0  0  0
    9.5864   43.7579   51.7393 O   0  0  0  0  0  0  0  0  0  0  0  0
    9.7813   44.1513   49.3720 O   0  0  0  0  0  0  0  0  0  0  0  0
    7.3945   43.5650   50.2441 C   0  0  0  0  0  0  0  0  0  0  0  0
    6.9971   42.9562   49.0624 C   0  0  0  0  0  3  0  0  0  0  0  0
    6.3741   43.3903   51.1229 N   0  0  0  0  0  0  0  0  0  0  0  0
    5.7588   42.4327   49.2514 N   0  0  0  0  0  0  0  0  0  0  0  0
    5.3658   42.6986   50.5284 C   0  0  0  0  0  3  0  0  0  0  0  0
    8.4594   46.6129   52.0954 C   0  0  0  0  0  0  0  0  0  0  0  0
    9.5580   47.2032   52.7179 C   0  0  0  0  0  3  0  0  0  0  0  0
    7.2577   46.5853   52.7696 C   0  0  0  0  0  0  0  0  0  0  0  0
    9.3817   47.7290   53.9791 C   0  0  0  0  0  3  0  0  0  0  0  0
    7.1430   47.1104   53.9918 N   0  0  0  0  0  0  0  0  0  0  0  0
    8.1749   47.6915   54.6353 C   0  0  0  0  0  3  0  0  0  0  0  0
    6.1238   45.9942   52.1539 N   0  0  0  0  0  0  0  0  0  0  0  0
    4.8840   45.8977   52.8533 C   0  0  0  0  0  0  0  0  0  0  0  0
    4.6942   45.1613   53.9829 C   0  0  0  0  0  3  0  0  0  0  0  0
    3.8114   46.5984   52.3471 C   0  0  0  0  0  3  0  0  0  0  0  0
    3.4518   45.1442   54.5710 C   0  0  0  0  0  3  0  0  0  0  0  0
    2.5633   46.5886   52.9274 C   0  0  0  0  0  3  0  0  0  0  0  0
    2.3841   45.8410   54.0680 C   0  0  0  0  0  3  0  0  0  0  0  0
  1 10  1  0
  2  1  1  1
  2  4  2  0
  2  5  1  0
  3  2  2  0
  5  7  1  0
  5  6  2  0
  6  8  1  0
  7  9  2  0
  9  8  1  0
 10 12  1  0
 11 10  2  0
 11 13  1  0
 12 16  1  0
 12 14  2  0
 13 15  2  0
 15 14  1  0
 16 17  1  0
 17 18  2  0
 18 20  1  0
 19 21  2  0
 19 17  1  0
 21 22  1  0
 22 20  2  0
M  RAD  8   6   2   9   2  11   2  13   2  15   2  18   2  19   2  20   2
M  RAD  2  21   2  22   2
M  END
>  <REMARK>  (1) 
 SMILES O=S(=O)(Nc1cccnc1Nc1ccccc1)c1c[nH]cn1
 SMILES IDX 4 1 2 3 1 4 3 5 18 6 19 7 22 8 20 9 21 10 5 12 6 13 10 14
 SMILES IDX 7 15 9 16 8 17 11 18 12 20 13 21 17 22 14 23 16 24 15 25
 H PARENT 4 2 20 11 11 19

>  <TORSDO>  (1) 
F 5

$$$$
