/home/pchatterjee/Documents/git/vs_workflow/DiffDock/diffdock_run/pdbqt_scrubbed/Z2611593143.pdbqt
     RDKit          3D

 26 29  0  0  1  0  0  0  0  0999 V2000
   11.6226   63.9660   83.1879 C   0  0  0  0  0  0  0  0  0  0  0  0
   11.3639   65.0782   82.6378 N   0  0  0  0  0  0  0  0  0  0  0  0
   10.0353   65.5886   82.3753 C   0  0  0  0  0  0  0  0  0  0  0  0
    9.0131   64.8397   82.7354 C   0  0  0  0  0  0  0  0  0  0  0  0
    7.6129   64.9942   82.6475 N   0  0  0  0  0  0  0  0  0  0  0  0
    6.9619   63.8291   83.2241 C   0  0  0  0  0  2  0  0  0  0  0  0
    8.0633   63.0017   83.6366 N   0  0  0  0  0  0  0  0  0  0  0  0
    9.1952   63.5235   83.3858 C   0  0  0  0  0  0  0  0  0  0  0  0
   10.5287   63.1131   83.5986 N   0  0  0  0  0  2  0  0  0  0  0  0
   12.9143   63.4467   83.4541 N   0  0  0  0  0  0  0  0  0  0  0  0
   14.3329   61.5930   83.6331 C   0  0  0  0  0  3  0  0  0  0  0  0
   14.1660   61.6310   82.1275 C   0  0  0  0  0  2  0  0  0  0  0  0
   13.1888   62.3153   84.3211 C   0  0  0  0  0  2  0  0  0  0  0  0
   14.5212   63.0671   81.7258 C   0  0  0  0  0  2  0  0  0  0  0  0
   14.0958   64.0621   82.8160 C   0  0  0  0  0  2  0  0  0  0  0  0
   14.6656   60.2898   84.1812 C   0  0  0  0  0  0  0  0  0  0  0  0
   15.7706   60.0565   85.0563 N   0  0  0  0  0  0  0  0  0  0  0  0
   15.4780   59.6219   86.4101 C   0  0  0  0  0  1  0  0  0  0  0  0
   13.9414   59.3018   83.8745 O   0  0  0  0  0  0  0  0  0  0  0  0
    9.9038   66.8326   81.7513 N   0  0  0  0  0  0  0  0  0  0  0  0
   10.9198   67.7140   81.3623 C   0  0  0  0  0  0  0  0  0  0  0  0
   10.6996   68.5102   80.2582 C   0  0  0  0  0  3  0  0  0  0  0  0
   12.1227   67.7487   82.0787 C   0  0  0  0  0  3  0  0  0  0  0  0
   11.7064   69.3630   79.8568 C   0  0  0  0  0  3  0  0  0  0  0  0
   13.0937   68.6175   81.6348 C   0  0  0  0  0  3  0  0  0  0  0  0
   12.9046   69.4248   80.5359 C   0  0  0  0  0  3  0  0  0  0  0  0
  1  2  2  0
  1 10  1  0
  3  2  1  0
  3 20  1  0
  4  3  2  0
  5  4  1  0
  6  7  1  0
  6  5  1  0
  7  8  2  0
  8  9  1  0
  8  4  1  0
  9  1  1  0
 10 13  1  0
 11 16  1  0
 12 11  1  0
 13 11  1  0
 14 12  1  0
 15 14  1  0
 15 10  1  0
 16 17  1  0
 17 18  1  0
 19 16  2  0
 20 21  1  0
 21 22  2  0
 21 23  1  0
 22 24  1  0
 23 25  2  0
 24 26  2  0
 25 26  1  0
M  RAD  8   6   3   9   2  11   2  12   3  13   3  14   3  15   3  18   2
M  RAD  5  22   2  23   2  24   2  25   2  26   2
M  END
>  <REMARK>  (1) 
 SMILES CNC(=O)C1CCCN(c2nc(Nc3ccccc3)c3[nH]cnc3n2)C1
 SMILES IDX 10 1 11 2 12 3 20 4 21 5 22 6 23 7 24 8 25 9 9 11 5 12 6 13
 SMILES IDX 26 14 7 15 8 16 3 17 2 18 1 19 4 21 13 22 14 24 15 25 19 26
 SMILES IDX 16 27 18 28 17 29
 H PARENT 21 10 2 20 13 23

>  <TORSDO>  (1) 
F 4

$$$$
