/home/pchatterjee/Documents/git/vs_workflow/DiffDock/diffdock_run/pdbqt_scrubbed/Z2611593143.pdbqt
     RDKit          3D

 26 29  0  0  1  0  0  0  0  0999 V2000
   11.5566   63.7363   83.1393 C   0  0  0  0  0  0  0  0  0  0  0  0
   11.3128   64.8527   82.5910 N   0  0  0  0  0  0  0  0  0  0  0  0
    9.9913   65.3847   82.3359 C   0  0  0  0  0  0  0  0  0  0  0  0
    8.9591   64.6523   82.7014 C   0  0  0  0  0  0  0  0  0  0  0  0
    7.5611   64.8296   82.6213 N   0  0  0  0  0  0  0  0  0  0  0  0
    6.8945   63.6749   83.2012 C   0  0  0  0  0  2  0  0  0  0  0  0
    7.9846   62.8297   83.6075 N   0  0  0  0  0  0  0  0  0  0  0  0
    9.1234   63.3332   83.3505 C   0  0  0  0  0  0  0  0  0  0  0  0
   10.4513   62.9012   83.5559 N   0  0  0  0  0  2  0  0  0  0  0  0
   12.8412   63.1960   83.3983 N   0  0  0  0  0  0  0  0  0  0  0  0
   14.2713   61.3427   83.4147 C   0  0  0  0  0  3  0  0  0  0  0  0
   14.1701   61.5624   81.9189 C   0  0  0  0  0  2  0  0  0  0  0  0
   13.0901   61.9693   84.1332 C   0  0  0  0  0  2  0  0  0  0  0  0
   14.5263   63.0388   81.7105 C   0  0  0  0  0  2  0  0  0  0  0  0
   14.0424   63.8914   82.8931 C   0  0  0  0  0  2  0  0  0  0  0  0
   14.5943   59.9845   83.8151 C   0  0  0  0  0  0  0  0  0  0  0  0
   15.3167   59.6592   85.0041 N   0  0  0  0  0  0  0  0  0  0  0  0
   14.5828   59.0317   86.0881 C   0  0  0  0  0  1  0  0  0  0  0  0
   14.2173   59.0308   83.0784 O   0  0  0  0  0  0  0  0  0  0  0  0
    9.8765   66.6308   81.7129 N   0  0  0  0  0  0  0  0  0  0  0  0
   10.9030   67.5100   81.3473 C   0  0  0  0  0  0  0  0  0  0  0  0
   10.6836   68.3544   80.2795 C   0  0  0  0  0  3  0  0  0  0  0  0
   12.1149   67.4949   82.0493 C   0  0  0  0  0  3  0  0  0  0  0  0
   11.7003   69.2057   79.9004 C   0  0  0  0  0  3  0  0  0  0  0  0
   13.0955   68.3646   81.6289 C   0  0  0  0  0  3  0  0  0  0  0  0
   12.9075   69.2192   80.5663 C   0  0  0  0  0  3  0  0  0  0  0  0
  1  2  2  0
  1 10  1  0
  3  2  1  0
  3 20  1  0
  4  3  2  0
  5  4  1  0
  6  7  1  0
  6  5  1  0
  7  8  2  0
  8  9  1  0
  8  4  1  0
  9  1  1  0
 10 13  1  0
 11 16  1  0
 12 11  1  0
 13 11  1  0
 14 12  1  0
 15 14  1  0
 15 10  1  0
 16 17  1  0
 17 18  1  0
 19 16  2  0
 20 21  1  0
 21 22  2  0
 21 23  1  0
 22 24  1  0
 23 25  2  0
 24 26  2  0
 25 26  1  0
M  RAD  8   6   3   9   2  11   2  12   3  13   3  14   3  15   3  18   2
M  RAD  5  22   2  23   2  24   2  25   2  26   2
M  END
>  <REMARK>  (1) 
 SMILES CNC(=O)C1CCCN(c2nc(Nc3ccccc3)c3[nH]cnc3n2)C1
 SMILES IDX 10 1 11 2 12 3 20 4 21 5 22 6 23 7 24 8 25 9 9 11 5 12 6 13
 SMILES IDX 26 14 7 15 8 16 3 17 2 18 1 19 4 21 13 22 14 24 15 25 19 26
 SMILES IDX 16 27 18 28 17 29
 H PARENT 21 10 2 20 13 23

>  <TORSDO>  (1) 
F 4

$$$$
