/home/pchatterjee/Documents/git/vs_workflow/DiffDock/diffdock_run/pdbqt_scrubbed/Z2611593143.pdbqt
     RDKit          3D

 26 29  0  0  1  0  0  0  0  0999 V2000
    6.1383   45.4644   51.8757 C   0  0  0  0  0  0  0  0  0  0  0  0
    6.1779   44.4430   51.1264 N   0  0  0  0  0  0  0  0  0  0  0  0
    7.3813   43.8685   50.5640 C   0  0  0  0  0  0  0  0  0  0  0  0
    8.5267   44.4519   50.8523 C   0  0  0  0  0  0  0  0  0  0  0  0
    9.8688   44.1907   50.5017 N   0  0  0  0  0  0  0  0  0  0  0  0
   10.7320   45.1789   51.1282 C   0  0  0  0  0  2  0  0  0  0  0  0
    9.8114   46.0188   51.8456 N   0  0  0  0  0  0  0  0  0  0  0  0
    8.6016   45.6497   51.7172 C   0  0  0  0  0  0  0  0  0  0  0  0
    7.3740   46.1348   52.2168 N   0  0  0  0  0  2  0  0  0  0  0  0
    4.9726   46.0437   52.4367 N   0  0  0  0  0  0  0  0  0  0  0  0
    2.8058   45.7732   53.2807 C   0  0  0  0  0  3  0  0  0  0  0  0
    3.5924   45.1555   54.4191 C   0  0  0  0  0  2  0  0  0  0  0  0
    3.6171   45.7658   51.9979 C   0  0  0  0  0  2  0  0  0  0  0  0
    4.6372   46.2117   54.7974 C   0  0  0  0  0  2  0  0  0  0  0  0
    5.0965   46.9960   53.5590 C   0  0  0  0  0  2  0  0  0  0  0  0
    1.4372   45.3036   53.1545 C   0  0  0  0  0  0  0  0  0  0  0  0
    0.9100   44.7076   51.9679 N   0  0  0  0  0  0  0  0  0  0  0  0
    0.9236   43.2588   51.8780 C   0  0  0  0  0  1  0  0  0  0  0  0
    0.6632   45.4222   54.1451 O   0  0  0  0  0  0  0  0  0  0  0  0
    7.2693   42.7415   49.7445 N   0  0  0  0  0  0  0  0  0  0  0  0
    6.1141   42.0162   49.4287 C   0  0  0  0  0  0  0  0  0  0  0  0
    5.9834   41.5323   48.1441 C   0  0  0  0  0  3  0  0  0  0  0  0
    5.1264   41.8224   50.4026 C   0  0  0  0  0  3  0  0  0  0  0  0
    4.8365   40.8376   47.8214 C   0  0  0  0  0  3  0  0  0  0  0  0
    4.0022   41.1226   50.0270 C   0  0  0  0  0  3  0  0  0  0  0  0
    3.8418   40.6274   48.7526 C   0  0  0  0  0  3  0  0  0  0  0  0
  1  2  2  0
  1 10  1  0
  3  2  1  0
  3 20  1  0
  4  3  2  0
  5  4  1  0
  6  7  1  0
  6  5  1  0
  7  8  2  0
  8  9  1  0
  8  4  1  0
  9  1  1  0
 10 13  1  0
 11 16  1  0
 12 11  1  0
 13 11  1  0
 14 12  1  0
 15 14  1  0
 15 10  1  0
 16 17  1  0
 17 18  1  0
 19 16  2  0
 20 21  1  0
 21 22  2  0
 21 23  1  0
 22 24  1  0
 23 25  2  0
 24 26  2  0
 25 26  1  0
M  RAD  8   6   3   9   2  11   2  12   3  13   3  14   3  15   3  18   2
M  RAD  5  22   2  23   2  24   2  25   2  26   2
M  END
>  <REMARK>  (1) 
 SMILES CNC(=O)C1CCCN(c2nc(Nc3ccccc3)c3[nH]cnc3n2)C1
 SMILES IDX 10 1 11 2 12 3 20 4 21 5 22 6 23 7 24 8 25 9 9 11 5 12 6 13
 SMILES IDX 26 14 7 15 8 16 3 17 2 18 1 19 4 21 13 22 14 24 15 25 19 26
 SMILES IDX 16 27 18 28 17 29
 H PARENT 21 10 2 20 13 23

>  <TORSDO>  (1) 
F 4

$$$$
