/home/pchatterjee/Documents/git/vs_workflow/DiffDock/diffdock_run/pdbqt_scrubbed/Z2611593143.pdbqt
     RDKit          3D

 26 29  0  0  1  0  0  0  0  0999 V2000
    6.1875   45.1448   52.0950 C   0  0  0  0  0  0  0  0  0  0  0  0
    6.1394   44.1758   51.2794 N   0  0  0  0  0  0  0  0  0  0  0  0
    7.2175   43.7699   50.4033 C   0  0  0  0  0  0  0  0  0  0  0  0
    8.3378   44.4610   50.4560 C   0  0  0  0  0  0  0  0  0  0  0  0
    9.5717   44.3701   49.7766 N   0  0  0  0  0  0  0  0  0  0  0  0
   10.4640   45.4134   50.2557 C   0  0  0  0  0  2  0  0  0  0  0  0
    9.6715   46.1059   51.2356 N   0  0  0  0  0  0  0  0  0  0  0  0
    8.5079   45.6116   51.3700 C   0  0  0  0  0  0  0  0  0  0  0  0
    7.3996   45.9295   52.1840 N   0  0  0  0  0  2  0  0  0  0  0  0
    5.1451   45.5597   52.9611 N   0  0  0  0  0  0  0  0  0  0  0  0
    3.8423   47.2923   53.8451 C   0  0  0  0  0  3  0  0  0  0  0  0
    3.2684   47.2431   52.4435 C   0  0  0  0  0  2  0  0  0  0  0  0
    5.2302   46.6788   53.8817 C   0  0  0  0  0  2  0  0  0  0  0  0
    2.8812   45.7759   52.2254 C   0  0  0  0  0  2  0  0  0  0  0  0
    3.8564   44.8380   52.9527 C   0  0  0  0  0  2  0  0  0  0  0  0
    3.7096   48.5724   54.5182 C   0  0  0  0  0  0  0  0  0  0  0  0
    4.8183   49.3312   55.0041 N   0  0  0  0  0  0  0  0  0  0  0  0
    5.1181   50.5871   54.3406 C   0  0  0  0  0  1  0  0  0  0  0  0
    2.5530   49.0509   54.6854 O   0  0  0  0  0  0  0  0  0  0  0  0
    7.0160   42.6830   49.5477 N   0  0  0  0  0  0  0  0  0  0  0  0
    5.8106   42.0421   49.2368 C   0  0  0  0  0  0  0  0  0  0  0  0
    4.8800   41.8882   50.2427 C   0  0  0  0  0  3  0  0  0  0  0  0
    5.5926   41.5616   47.9395 C   0  0  0  0  0  3  0  0  0  0  0  0
    3.7009   41.2366   49.9475 C   0  0  0  0  0  3  0  0  0  0  0  0
    4.3993   40.9188   47.6996 C   0  0  0  0  0  3  0  0  0  0  0  0
    3.4505   40.7489   48.6825 C   0  0  0  0  0  3  0  0  0  0  0  0
  1  2  2  0
  1 10  1  0
  3  2  1  0
  3 20  1  0
  4  3  2  0
  5  4  1  0
  6  7  1  0
  6  5  1  0
  7  8  2  0
  8  9  1  0
  8  4  1  0
  9  1  1  0
 10 13  1  0
 11 16  1  0
 12 11  1  0
 13 11  1  0
 14 12  1  0
 15 14  1  0
 15 10  1  0
 16 17  1  0
 17 18  1  0
 19 16  2  0
 20 21  1  0
 21 22  2  0
 21 23  1  0
 22 24  1  0
 23 25  2  0
 24 26  2  0
 25 26  1  0
M  RAD  8   6   3   9   2  11   2  12   3  13   3  14   3  15   3  18   2
M  RAD  5  22   2  23   2  24   2  25   2  26   2
M  END
>  <REMARK>  (1) 
 SMILES CNC(=O)C1CCCN(c2nc(Nc3ccccc3)c3[nH]cnc3n2)C1
 SMILES IDX 10 1 11 2 12 3 20 4 21 5 22 6 23 7 24 8 25 9 9 11 5 12 6 13
 SMILES IDX 26 14 7 15 8 16 3 17 2 18 1 19 4 21 13 22 14 24 15 25 19 26
 SMILES IDX 16 27 18 28 17 29
 H PARENT 21 10 2 20 13 23

>  <TORSDO>  (1) 
F 4

$$$$
