/home/pchatterjee/Documents/git/vs_workflow/DiffDock/diffdock_run/pdbqt_scrubbed/Z2611593143.pdbqt
     RDKit          3D

 26 29  0  0  1  0  0  0  0  0999 V2000
    7.4021   45.1147   50.7167 C   0  0  0  0  0  0  0  0  0  0  0  0
    6.2071   44.8446   51.0413 N   0  0  0  0  0  0  0  0  0  0  0  0
    5.4169   43.7660   50.4876 C   0  0  0  0  0  0  0  0  0  0  0  0
    5.9824   43.0038   49.5739 C   0  0  0  0  0  0  0  0  0  0  0  0
    5.5437   41.8897   48.8265 N   0  0  0  0  0  0  0  0  0  0  0  0
    6.6172   41.4408   47.9547 C   0  0  0  0  0  2  0  0  0  0  0  0
    7.6848   42.3612   48.2392 N   0  0  0  0  0  0  0  0  0  0  0  0
    7.3722   43.2252   49.1179 C   0  0  0  0  0  0  0  0  0  0  0  0
    8.0601   44.3021   49.7170 N   0  0  0  0  0  2  0  0  0  0  0  0
    8.1938   46.1650   51.2451 N   0  0  0  0  0  0  0  0  0  0  0  0
    8.7309   47.5603   53.0465 C   0  0  0  0  0  3  0  0  0  0  0  0
    9.3104   46.2586   53.5620 C   0  0  0  0  0  2  0  0  0  0  0  0
    7.6749   47.2991   51.9879 C   0  0  0  0  0  2  0  0  0  0  0  0
   10.2253   45.7596   52.4376 C   0  0  0  0  0  2  0  0  0  0  0  0
    9.6591   46.1401   51.0612 C   0  0  0  0  0  2  0  0  0  0  0  0
    8.3585   48.5162   54.0746 C   0  0  0  0  0  0  0  0  0  0  0  0
    7.0141   48.9324   54.3205 N   0  0  0  0  0  0  0  0  0  0  0  0
    6.0801   47.9370   54.8148 C   0  0  0  0  0  1  0  0  0  0  0  0
    9.2673   49.0106   54.7986 O   0  0  0  0  0  0  0  0  0  0  0  0
    4.1047   43.5937   50.9375 N   0  0  0  0  0  0  0  0  0  0  0  0
    3.4222   44.3346   51.9100 C   0  0  0  0  0  0  0  0  0  0  0  0
    2.7188   45.4481   51.5012 C   0  0  0  0  0  3  0  0  0  0  0  0
    3.4878   43.9460   53.2538 C   0  0  0  0  0  3  0  0  0  0  0  0
    2.0644   46.1948   52.4584 C   0  0  0  0  0  3  0  0  0  0  0  0
    2.8168   44.7269   54.1674 C   0  0  0  0  0  3  0  0  0  0  0  0
    2.1065   45.8445   53.7911 C   0  0  0  0  0  3  0  0  0  0  0  0
  1  2  2  0
  1 10  1  0
  3  2  1  0
  3 20  1  0
  4  3  2  0
  5  4  1  0
  6  7  1  0
  6  5  1  0
  7  8  2  0
  8  9  1  0
  8  4  1  0
  9  1  1  0
 10 13  1  0
 11 16  1  0
 12 11  1  0
 13 11  1  0
 14 12  1  0
 15 14  1  0
 15 10  1  0
 16 17  1  0
 17 18  1  0
 19 16  2  0
 20 21  1  0
 21 22  2  0
 21 23  1  0
 22 24  1  0
 23 25  2  0
 24 26  2  0
 25 26  1  0
M  RAD  8   6   3   9   2  11   2  12   3  13   3  14   3  15   3  18   2
M  RAD  5  22   2  23   2  24   2  25   2  26   2
M  END
>  <REMARK>  (1) 
 SMILES CNC(=O)C1CCCN(c2nc(Nc3ccccc3)c3[nH]cnc3n2)C1
 SMILES IDX 10 1 11 2 12 3 20 4 21 5 22 6 23 7 24 8 25 9 9 11 5 12 6 13
 SMILES IDX 26 14 7 15 8 16 3 17 2 18 1 19 4 21 13 22 14 24 15 25 19 26
 SMILES IDX 16 27 18 28 17 29
 H PARENT 21 10 2 20 13 23

>  <TORSDO>  (1) 
F 4

$$$$
