/home/pchatterjee/Documents/git/vs_workflow/DiffDock/diffdock_run/pdbqt_scrubbed/Z2611593143.pdbqt
     RDKit          3D

 26 29  0  0  1  0  0  0  0  0999 V2000
    7.3225   45.5733   52.6750 C   0  0  0  0  0  0  0  0  0  0  0  0
    6.1676   45.2264   52.2846 N   0  0  0  0  0  0  0  0  0  0  0  0
    5.8817   44.5173   51.0558 C   0  0  0  0  0  0  0  0  0  0  0  0
    6.9007   44.2073   50.2805 C   0  0  0  0  0  0  0  0  0  0  0  0
    7.0154   43.5391   49.0425 N   0  0  0  0  0  0  0  0  0  0  0  0
    8.4156   43.4778   48.6555 C   0  0  0  0  0  2  0  0  0  0  0  0
    9.0891   44.1519   49.7325 N   0  0  0  0  0  0  0  0  0  0  0  0
    8.2927   44.5610   50.6351 C   0  0  0  0  0  0  0  0  0  0  0  0
    8.4687   45.2521   51.8530 N   0  0  0  0  0  2  0  0  0  0  0  0
    7.6252   46.2677   53.8730 N   0  0  0  0  0  0  0  0  0  0  0  0
    8.7031   48.0513   54.9396 C   0  0  0  0  0  3  0  0  0  0  0  0
    7.5912   48.8137   54.2477 C   0  0  0  0  0  2  0  0  0  0  0  0
    8.9508   46.7192   54.2554 C   0  0  0  0  0  2  0  0  0  0  0  0
    6.3016   48.0953   54.6612 C   0  0  0  0  0  2  0  0  0  0  0  0
    6.5433   46.5874   54.8265 C   0  0  0  0  0  2  0  0  0  0  0  0
    9.8926   48.8315   55.2322 C   0  0  0  0  0  0  0  0  0  0  0  0
   11.2225   48.3220   55.1188 N   0  0  0  0  0  0  0  0  0  0  0  0
   11.7845   47.6426   56.2721 C   0  0  0  0  0  1  0  0  0  0  0  0
    9.7533   50.0296   55.6060 O   0  0  0  0  0  0  0  0  0  0  0  0
    4.5529   44.2081   50.7511 N   0  0  0  0  0  0  0  0  0  0  0  0
    3.4068   44.4944   51.5026 C   0  0  0  0  0  0  0  0  0  0  0  0
    3.0414   45.8159   51.6496 C   0  0  0  0  0  3  0  0  0  0  0  0
    2.6846   43.4508   52.0949 C   0  0  0  0  0  3  0  0  0  0  0  0
    1.9267   46.1047   52.4086 C   0  0  0  0  0  3  0  0  0  0  0  0
    1.5809   43.7951   52.8420 C   0  0  0  0  0  3  0  0  0  0  0  0
    1.1908   45.1048   53.0080 C   0  0  0  0  0  3  0  0  0  0  0  0
  1  2  2  0
  1 10  1  0
  3  2  1  0
  3 20  1  0
  4  3  2  0
  5  4  1  0
  6  7  1  0
  6  5  1  0
  7  8  2  0
  8  9  1  0
  8  4  1  0
  9  1  1  0
 10 13  1  0
 11 16  1  0
 12 11  1  0
 13 11  1  0
 14 12  1  0
 15 14  1  0
 15 10  1  0
 16 17  1  0
 17 18  1  0
 19 16  2  0
 20 21  1  0
 21 22  2  0
 21 23  1  0
 22 24  1  0
 23 25  2  0
 24 26  2  0
 25 26  1  0
M  RAD  8   6   3   9   2  11   2  12   3  13   3  14   3  15   3  18   2
M  RAD  5  22   2  23   2  24   2  25   2  26   2
M  END
>  <REMARK>  (1) 
 SMILES CNC(=O)C1CCCN(c2nc(Nc3ccccc3)c3[nH]cnc3n2)C1
 SMILES IDX 10 1 11 2 12 3 20 4 21 5 22 6 23 7 24 8 25 9 9 11 5 12 6 13
 SMILES IDX 26 14 7 15 8 16 3 17 2 18 1 19 4 21 13 22 14 24 15 25 19 26
 SMILES IDX 16 27 18 28 17 29
 H PARENT 21 10 2 20 13 23

>  <TORSDO>  (1) 
F 4

$$$$
