/home/pchatterjee/Documents/git/vs_workflow/DiffDock/diffdock_run/pdbqt_scrubbed/Z2611593143.pdbqt
     RDKit          3D

 26 29  0  0  1  0  0  0  0  0999 V2000
    7.4678   45.7556   52.7317 C   0  0  0  0  0  0  0  0  0  0  0  0
    6.3258   45.4056   52.3077 N   0  0  0  0  0  0  0  0  0  0  0  0
    6.0703   44.7609   51.0375 C   0  0  0  0  0  0  0  0  0  0  0  0
    7.1050   44.5180   50.2590 C   0  0  0  0  0  0  0  0  0  0  0  0
    7.2493   43.9234   48.9870 N   0  0  0  0  0  0  0  0  0  0  0  0
    8.6548   43.9153   48.6150 C   0  0  0  0  0  2  0  0  0  0  0  0
    9.3002   44.5424   49.7366 N   0  0  0  0  0  0  0  0  0  0  0  0
    8.4843   44.8821   50.6506 C   0  0  0  0  0  0  0  0  0  0  0  0
    8.6305   45.5070   51.9076 N   0  0  0  0  0  2  0  0  0  0  0  0
    7.7408   46.3878   53.9706 N   0  0  0  0  0  0  0  0  0  0  0  0
    8.8946   48.0334   55.1711 C   0  0  0  0  0  3  0  0  0  0  0  0
    7.9152   48.9153   54.4234 C   0  0  0  0  0  2  0  0  0  0  0  0
    9.0692   46.7013   54.4647 C   0  0  0  0  0  2  0  0  0  0  0  0
    6.5363   48.3129   54.7167 C   0  0  0  0  0  2  0  0  0  0  0  0
    6.6232   46.7851   54.8509 C   0  0  0  0  0  2  0  0  0  0  0  0
   10.1256   48.6893   55.5761 C   0  0  0  0  0  0  0  0  0  0  0  0
   11.3531   47.9965   55.8098 N   0  0  0  0  0  0  0  0  0  0  0  0
   12.4317   48.1972   54.8592 C   0  0  0  0  0  1  0  0  0  0  0  0
   10.1207   49.9425   55.7304 O   0  0  0  0  0  0  0  0  0  0  0  0
    4.7526   44.4398   50.6990 N   0  0  0  0  0  0  0  0  0  0  0  0
    3.5895   44.6759   51.4418 C   0  0  0  0  0  0  0  0  0  0  0  0
    3.0540   43.6266   52.1586 C   0  0  0  0  0  3  0  0  0  0  0  0
    2.9963   45.9444   51.4211 C   0  0  0  0  0  3  0  0  0  0  0  0
    1.8952   43.8477   52.8730 C   0  0  0  0  0  3  0  0  0  0  0  0
    1.8411   46.1100   52.1512 C   0  0  0  0  0  3  0  0  0  0  0  0
    1.2817   45.0823   52.8764 C   0  0  0  0  0  3  0  0  0  0  0  0
  1  2  2  0
  1 10  1  0
  3  2  1  0
  3 20  1  0
  4  3  2  0
  5  4  1  0
  6  7  1  0
  6  5  1  0
  7  8  2  0
  8  9  1  0
  8  4  1  0
  9  1  1  0
 10 13  1  0
 11 16  1  0
 12 11  1  0
 13 11  1  0
 14 12  1  0
 15 14  1  0
 15 10  1  0
 16 17  1  0
 17 18  1  0
 19 16  2  0
 20 21  1  0
 21 22  2  0
 21 23  1  0
 22 24  1  0
 23 25  2  0
 24 26  2  0
 25 26  1  0
M  RAD  8   6   3   9   2  11   2  12   3  13   3  14   3  15   3  18   2
M  RAD  5  22   2  23   2  24   2  25   2  26   2
M  END
>  <REMARK>  (1) 
 SMILES CNC(=O)C1CCCN(c2nc(Nc3ccccc3)c3[nH]cnc3n2)C1
 SMILES IDX 10 1 11 2 12 3 20 4 21 5 22 6 23 7 24 8 25 9 9 11 5 12 6 13
 SMILES IDX 26 14 7 15 8 16 3 17 2 18 1 19 4 21 13 22 14 24 15 25 19 26
 SMILES IDX 16 27 18 28 17 29
 H PARENT 21 10 2 20 13 23

>  <TORSDO>  (1) 
F 4

$$$$
