/home/pchatterjee/Documents/git/vs_workflow/DiffDock/diffdock_run/pdbqt_scrubbed/Z2611593143.pdbqt
     RDKit          3D

 26 29  0  0  1  0  0  0  0  0999 V2000
    6.3660   45.6712   52.0198 C   0  0  0  0  0  0  0  0  0  0  0  0
    6.3269   44.6606   51.2558 N   0  0  0  0  0  0  0  0  0  0  0  0
    7.4714   44.0715   50.5943 C   0  0  0  0  0  0  0  0  0  0  0  0
    8.6473   44.6282   50.8011 C   0  0  0  0  0  0  0  0  0  0  0  0
    9.9528   44.3464   50.3443 N   0  0  0  0  0  0  0  0  0  0  0  0
   10.8817   45.3081   50.9154 C   0  0  0  0  0  2  0  0  0  0  0  0
   10.0365   46.1548   51.7133 N   0  0  0  0  0  0  0  0  0  0  0  0
    8.8131   45.8111   51.6738 C   0  0  0  0  0  0  0  0  0  0  0  0
    7.6378   46.3123   52.2733 N   0  0  0  0  0  2  0  0  0  0  0  0
    5.2591   46.2644   52.6770 N   0  0  0  0  0  0  0  0  0  0  0  0
    3.1670   46.0204   53.6988 C   0  0  0  0  0  3  0  0  0  0  0  0
    4.0376   45.3896   54.7666 C   0  0  0  0  0  2  0  0  0  0  0  0
    3.8681   46.0055   52.3526 C   0  0  0  0  0  2  0  0  0  0  0  0
    5.1244   46.4309   55.0577 C   0  0  0  0  0  2  0  0  0  0  0  0
    5.4891   47.2122   53.7863 C   0  0  0  0  0  2  0  0  0  0  0  0
    1.7865   45.5691   53.6867 C   0  0  0  0  0  0  0  0  0  0  0  0
    1.1323   45.0504   52.5274 N   0  0  0  0  0  0  0  0  0  0  0  0
    0.8410   43.6285   52.4975 C   0  0  0  0  0  1  0  0  0  0  0  0
    1.1200   45.6328   54.7573 O   0  0  0  0  0  0  0  0  0  0  0  0
    7.2736   42.9594   49.7708 N   0  0  0  0  0  0  0  0  0  0  0  0
    6.0718   42.2996   49.4866 C   0  0  0  0  0  0  0  0  0  0  0  0
    5.9346   41.7069   48.2491 C   0  0  0  0  0  3  0  0  0  0  0  0
    5.0478   42.2772   50.4418 C   0  0  0  0  0  3  0  0  0  0  0  0
    4.7438   41.0761   47.9556 C   0  0  0  0  0  3  0  0  0  0  0  0
    3.8805   41.6345   50.0968 C   0  0  0  0  0  3  0  0  0  0  0  0
    3.7125   41.0339   48.8695 C   0  0  0  0  0  3  0  0  0  0  0  0
  1  2  2  0
  1 10  1  0
  3  2  1  0
  3 20  1  0
  4  3  2  0
  5  4  1  0
  6  7  1  0
  6  5  1  0
  7  8  2  0
  8  9  1  0
  8  4  1  0
  9  1  1  0
 10 13  1  0
 11 16  1  0
 12 11  1  0
 13 11  1  0
 14 12  1  0
 15 14  1  0
 15 10  1  0
 16 17  1  0
 17 18  1  0
 19 16  2  0
 20 21  1  0
 21 22  2  0
 21 23  1  0
 22 24  1  0
 23 25  2  0
 24 26  2  0
 25 26  1  0
M  RAD  8   6   3   9   2  11   2  12   3  13   3  14   3  15   3  18   2
M  RAD  5  22   2  23   2  24   2  25   2  26   2
M  END
>  <REMARK>  (1) 
 SMILES CNC(=O)C1CCCN(c2nc(Nc3ccccc3)c3[nH]cnc3n2)C1
 SMILES IDX 10 1 11 2 12 3 20 4 21 5 22 6 23 7 24 8 25 9 9 11 5 12 6 13
 SMILES IDX 26 14 7 15 8 16 3 17 2 18 1 19 4 21 13 22 14 24 15 25 19 26
 SMILES IDX 16 27 18 28 17 29
 H PARENT 21 10 2 20 13 23

>  <TORSDO>  (1) 
F 4

$$$$
