/home/pchatterjee/Documents/git/vs_workflow/DiffDock/diffdock_run/pdbqt_scrubbed/Z2611593143.pdbqt
     RDKit          3D

 26 29  0  0  1  0  0  0  0  0999 V2000
    7.2685   44.6935   50.4946 C   0  0  0  0  0  0  0  0  0  0  0  0
    6.0771   44.4946   50.8788 N   0  0  0  0  0  0  0  0  0  0  0  0
    5.2116   43.4394   50.3972 C   0  0  0  0  0  0  0  0  0  0  0  0
    5.6985   42.6202   49.4876 C   0  0  0  0  0  0  0  0  0  0  0  0
    5.1734   41.5055   48.7990 N   0  0  0  0  0  0  0  0  0  0  0  0
    6.1843   40.9747   47.8988 C   0  0  0  0  0  2  0  0  0  0  0  0
    7.3070   41.8492   48.1054 N   0  0  0  0  0  0  0  0  0  0  0  0
    7.0760   42.7562   48.9657 C   0  0  0  0  0  0  0  0  0  0  0  0
    7.8414   43.8163   49.4971 N   0  0  0  0  0  2  0  0  0  0  0  0
    8.1330   45.7195   50.9519 N   0  0  0  0  0  0  0  0  0  0  0  0
    8.7915   47.1710   52.6665 C   0  0  0  0  0  3  0  0  0  0  0  0
    9.3027   45.8648   53.2397 C   0  0  0  0  0  2  0  0  0  0  0  0
    7.6993   46.9202   51.6427 C   0  0  0  0  0  2  0  0  0  0  0  0
   10.1616   45.2531   52.1269 C   0  0  0  0  0  2  0  0  0  0  0  0
    9.5899   45.5955   50.7428 C   0  0  0  0  0  2  0  0  0  0  0  0
    8.4994   48.2000   53.6490 C   0  0  0  0  0  0  0  0  0  0  0  0
    7.1811   48.6689   53.9377 N   0  0  0  0  0  0  0  0  0  0  0  0
    6.2826   47.7669   54.6352 C   0  0  0  0  0  1  0  0  0  0  0  0
    9.4582   48.7129   54.2910 O   0  0  0  0  0  0  0  0  0  0  0  0
    3.9136   43.3483   50.9080 N   0  0  0  0  0  0  0  0  0  0  0  0
    3.3204   44.1371   51.9012 C   0  0  0  0  0  0  0  0  0  0  0  0
    3.2482   43.6242   53.1792 C   0  0  0  0  0  3  0  0  0  0  0  0
    2.8039   45.3968   51.5729 C   0  0  0  0  0  3  0  0  0  0  0  0
    2.6435   44.3874   54.1559 C   0  0  0  0  0  3  0  0  0  0  0  0
    2.2108   46.1162   52.5856 C   0  0  0  0  0  3  0  0  0  0  0  0
    2.1226   45.6316   53.8711 C   0  0  0  0  0  3  0  0  0  0  0  0
  1  2  2  0
  1 10  1  0
  3  2  1  0
  3 20  1  0
  4  3  2  0
  5  4  1  0
  6  7  1  0
  6  5  1  0
  7  8  2  0
  8  9  1  0
  8  4  1  0
  9  1  1  0
 10 13  1  0
 11 16  1  0
 12 11  1  0
 13 11  1  0
 14 12  1  0
 15 14  1  0
 15 10  1  0
 16 17  1  0
 17 18  1  0
 19 16  2  0
 20 21  1  0
 21 22  2  0
 21 23  1  0
 22 24  1  0
 23 25  2  0
 24 26  2  0
 25 26  1  0
M  RAD  8   6   3   9   2  11   2  12   3  13   3  14   3  15   3  18   2
M  RAD  5  22   2  23   2  24   2  25   2  26   2
M  END
>  <REMARK>  (1) 
 SMILES CNC(=O)C1CCCN(c2nc(Nc3ccccc3)c3[nH]cnc3n2)C1
 SMILES IDX 10 1 11 2 12 3 20 4 21 5 22 6 23 7 24 8 25 9 9 11 5 12 6 13
 SMILES IDX 26 14 7 15 8 16 3 17 2 18 1 19 4 21 13 22 14 24 15 25 19 26
 SMILES IDX 16 27 18 28 17 29
 H PARENT 21 10 2 20 13 23

>  <TORSDO>  (1) 
F 4

$$$$
