/home/pchatterjee/Documents/git/vs_workflow/DiffDock/diffdock_run/pdbqt_scrubbed/Z2611593143.pdbqt
     RDKit          3D

 26 29  0  0  1  0  0  0  0  0999 V2000
    7.4131   44.9679   50.7405 C   0  0  0  0  0  0  0  0  0  0  0  0
    6.2193   44.7151   51.0835 N   0  0  0  0  0  0  0  0  0  0  0  0
    5.4105   43.6384   50.5534 C   0  0  0  0  0  0  0  0  0  0  0  0
    5.9561   42.8587   49.6425 C   0  0  0  0  0  0  0  0  0  0  0  0
    5.4958   41.7402   48.9148 N   0  0  0  0  0  0  0  0  0  0  0  0
    6.5532   41.2685   48.0354 C   0  0  0  0  0  2  0  0  0  0  0  0
    7.6343   42.1806   48.2948 N   0  0  0  0  0  0  0  0  0  0  0  0
    7.3423   43.0589   49.1663 C   0  0  0  0  0  0  0  0  0  0  0  0
    8.0495   44.1356   49.7431 N   0  0  0  0  0  2  0  0  0  0  0  0
    8.2227   46.0160   51.2456 N   0  0  0  0  0  0  0  0  0  0  0  0
    8.8198   47.4060   53.0321 C   0  0  0  0  0  3  0  0  0  0  0  0
    9.4140   46.1023   53.5253 C   0  0  0  0  0  2  0  0  0  0  0  0
    7.7296   47.1488   52.0077 C   0  0  0  0  0  2  0  0  0  0  0  0
   10.2913   45.6052   52.3706 C   0  0  0  0  0  2  0  0  0  0  0  0
    9.6813   45.9898   51.0142 C   0  0  0  0  0  2  0  0  0  0  0  0
    8.4821   48.3597   54.0742 C   0  0  0  0  0  0  0  0  0  0  0  0
    7.1542   48.8238   54.3241 N   0  0  0  0  0  0  0  0  0  0  0  0
    6.2477   47.9296   55.0213 C   0  0  0  0  0  1  0  0  0  0  0  0
    9.4076   48.8074   54.8074 O   0  0  0  0  0  0  0  0  0  0  0  0
    4.1023   43.4863   51.0220 N   0  0  0  0  0  0  0  0  0  0  0  0
    3.4389   44.2495   51.9904 C   0  0  0  0  0  0  0  0  0  0  0  0
    2.8245   45.4163   51.5872 C   0  0  0  0  0  3  0  0  0  0  0  0
    3.4348   43.8275   53.3259 C   0  0  0  0  0  3  0  0  0  0  0  0
    2.1900   46.1837   52.5415 C   0  0  0  0  0  3  0  0  0  0  0  0
    2.7874   44.6311   54.2369 C   0  0  0  0  0  3  0  0  0  0  0  0
    2.1653   45.8017   53.8659 C   0  0  0  0  0  3  0  0  0  0  0  0
  1  2  2  0
  1 10  1  0
  3  2  1  0
  3 20  1  0
  4  3  2  0
  5  4  1  0
  6  7  1  0
  6  5  1  0
  7  8  2  0
  8  9  1  0
  8  4  1  0
  9  1  1  0
 10 13  1  0
 11 16  1  0
 12 11  1  0
 13 11  1  0
 14 12  1  0
 15 14  1  0
 15 10  1  0
 16 17  1  0
 17 18  1  0
 19 16  2  0
 20 21  1  0
 21 22  2  0
 21 23  1  0
 22 24  1  0
 23 25  2  0
 24 26  2  0
 25 26  1  0
M  RAD  8   6   3   9   2  11   2  12   3  13   3  14   3  15   3  18   2
M  RAD  5  22   2  23   2  24   2  25   2  26   2
M  END
>  <REMARK>  (1) 
 SMILES CNC(=O)C1CCCN(c2nc(Nc3ccccc3)c3[nH]cnc3n2)C1
 SMILES IDX 10 1 11 2 12 3 20 4 21 5 22 6 23 7 24 8 25 9 9 11 5 12 6 13
 SMILES IDX 26 14 7 15 8 16 3 17 2 18 1 19 4 21 13 22 14 24 15 25 19 26
 SMILES IDX 16 27 18 28 17 29
 H PARENT 21 10 2 20 13 23

>  <TORSDO>  (1) 
F 4

$$$$
