/home/pchatterjee/Documents/git/vs_workflow/DiffDock/diffdock_run/pdbqt_scrubbed/Z1624951105.pdbqt
     RDKit          3D

 22 24  0  0  0  0  0  0  0  0999 V2000
    8.8896   45.6601   50.9143 C   0  0  0  0  0  2  0  0  0  0  0  0
    8.1036   46.4048   51.9100 N   0  0  0  0  0  0  0  0  0  0  0  0
    7.6350   47.6466   53.6900 C   0  0  0  0  0  0  0  0  0  0  0  0
    6.4711   47.3200   53.0543 N   0  0  0  0  0  0  0  0  0  0  0  0
    8.6540   47.0518   52.9408 C   0  0  0  0  0  0  0  0  0  0  0  0
    6.7698   46.5602   51.9662 C   0  0  0  0  0  3  0  0  0  0  0  0
    7.7733   48.4373   54.8815 C   0  0  0  0  0  0  0  0  0  0  0  0
    7.9049   49.0866   55.8470 N   0  0  0  0  0  0  0  0  0  0  0  0
   10.0402   47.1415   53.2564 C   0  0  0  0  0  0  0  0  0  0  0  0
   11.1696   47.2006   53.5276 N   0  0  0  0  0  0  0  0  0  0  0  0
    8.0349   44.5333   50.4293 C   0  0  0  0  0  0  0  0  0  0  0  0
    6.9989   44.0638   51.3536 C   0  0  0  0  0  3  0  0  0  0  0  0
    8.0509   43.8927   49.3235 N   0  0  0  0  0  0  0  0  0  0  0  0
    6.2458   42.7013   50.3046 S   0  0  0  0  0  0  0  0  0  0  0  0
    7.4431   43.0328   48.8805 C   0  0  0  0  0  0  0  0  0  0  0  0
    7.1715   42.1341   47.8079 N   0  0  0  0  0  0  0  0  0  0  0  0
    5.8287   41.7565   47.5376 C   0  0  0  0  0  0  0  0  0  0  0  0
    4.8161   41.7733   48.4515 C   0  0  0  0  0  3  0  0  0  0  0  0
    5.5146   41.3360   46.2497 C   0  0  0  0  0  3  0  0  0  0  0  0
    3.5362   41.3895   48.1126 C   0  0  0  0  0  3  0  0  0  0  0  0
    4.2352   40.9515   45.9078 C   0  0  0  0  0  3  0  0  0  0  0  0
    3.2116   40.9707   46.8400 C   0  0  0  0  0  3  0  0  0  0  0  0
  1 11  1  0
  1  2  1  0
  2  5  1  0
  2  6  1  0
  3  4  1  0
  3  7  1  0
  5  3  2  0
  6  4  2  0
  7  8  3  0
  9  5  1  0
 10  9  3  0
 11 13  1  0
 12 11  2  0
 12 14  1  0
 13 15  2  0
 14 15  1  0
 15 16  1  0
 16 17  1  0
 17 19  2  0
 18 20  2  0
 18 17  1  0
 19 21  1  0
 20 22  1  0
 22 21  2  0
M  RAD  8   1   3   6   2  12   2  18   2  19   2  20   2  21   2  22   2
M  END
>  <REMARK>  (1) 
 SMILES N#Cc1ncn(Cc2csc(Nc3ccccc3)n2)c1C#N
 SMILES IDX 7 1 6 2 3 3 4 4 20 5 5 6 2 7 1 8 21 9 22 10 8 11 9 12 19 13
 SMILES IDX 10 14 11 15 12 16 13 18 14 19 18 20 15 21 17 22 16 23
 H PARENT 12 17

>  <TORSDO>  (1) 
F 6

$$$$
