/home/pchatterjee/Documents/git/vs_workflow/DiffDock/diffdock_run/pdbqt_scrubbed/Z1624951105.pdbqt
     RDKit          3D

 22 24  0  0  0  0  0  0  0  0999 V2000
    7.4398   47.2783   51.9710 C   0  0  0  0  0  2  0  0  0  0  0  0
    6.2765   46.7072   52.6668 N   0  0  0  0  0  0  0  0  0  0  0  0
    4.7139   46.4104   54.2161 C   0  0  0  0  0  0  0  0  0  0  0  0
    4.5462   45.4816   53.2289 N   0  0  0  0  0  0  0  0  0  0  0  0
    5.8196   47.1742   53.8319 C   0  0  0  0  0  0  0  0  0  0  0  0
    5.5078   45.6727   52.2858 C   0  0  0  0  0  3  0  0  0  0  0  0
    3.9150   46.5627   55.4004 C   0  0  0  0  0  0  0  0  0  0  0  0
    3.2807   46.6916   56.3761 N   0  0  0  0  0  0  0  0  0  0  0  0
    6.3449   48.2629   54.5855 C   0  0  0  0  0  0  0  0  0  0  0  0
    6.7909   49.1422   55.2023 N   0  0  0  0  0  0  0  0  0  0  0  0
    8.1467   46.1495   51.2916 C   0  0  0  0  0  0  0  0  0  0  0  0
    9.5768   46.0139   51.5829 C   0  0  0  0  0  3  0  0  0  0  0  0
    7.7115   45.2617   50.4819 N   0  0  0  0  0  0  0  0  0  0  0  0
    9.9647   44.5123   50.5252 S   0  0  0  0  0  0  0  0  0  0  0  0
    8.1772   44.3790   49.9261 C   0  0  0  0  0  0  0  0  0  0  0  0
    8.0520   43.2723   49.0365 N   0  0  0  0  0  0  0  0  0  0  0  0
    6.8011   42.6084   48.9212 C   0  0  0  0  0  0  0  0  0  0  0  0
    5.8214   42.6230   49.8702 C   0  0  0  0  0  3  0  0  0  0  0  0
    6.5487   41.8869   47.7593 C   0  0  0  0  0  3  0  0  0  0  0  0
    4.6320   41.9508   49.6854 C   0  0  0  0  0  3  0  0  0  0  0  0
    5.3600   41.2135   47.5716 C   0  0  0  0  0  3  0  0  0  0  0  0
    4.3694   41.2320   48.5388 C   0  0  0  0  0  3  0  0  0  0  0  0
  1 11  1  0
  1  2  1  0
  2  5  1  0
  2  6  1  0
  3  4  1  0
  3  7  1  0
  5  3  2  0
  6  4  2  0
  7  8  3  0
  9  5  1  0
 10  9  3  0
 11 13  1  0
 12 11  2  0
 12 14  1  0
 13 15  2  0
 14 15  1  0
 15 16  1  0
 16 17  1  0
 17 19  2  0
 18 20  2  0
 18 17  1  0
 19 21  1  0
 20 22  1  0
 22 21  2  0
M  RAD  8   1   3   6   2  12   2  18   2  19   2  20   2  21   2  22   2
M  END
>  <REMARK>  (1) 
 SMILES N#Cc1ncn(Cc2csc(Nc3ccccc3)n2)c1C#N
 SMILES IDX 7 1 6 2 3 3 4 4 20 5 5 6 2 7 1 8 21 9 22 10 8 11 9 12 19 13
 SMILES IDX 10 14 11 15 12 16 13 18 14 19 18 20 15 21 17 22 16 23
 H PARENT 12 17

>  <TORSDO>  (1) 
F 6

$$$$
