/home/pchatterjee/Documents/git/vs_workflow/DiffDock/diffdock_run/pdbqt_scrubbed/Z1624951105.pdbqt
     RDKit          3D

 22 24  0  0  0  0  0  0  0  0999 V2000
    5.6244   44.5157   50.2625 C   0  0  0  0  0  2  0  0  0  0  0  0
    7.0951   44.5377   50.2442 N   0  0  0  0  0  0  0  0  0  0  0  0
    9.1791   45.0404   50.8223 C   0  0  0  0  0  0  0  0  0  0  0  0
    9.2044   44.2074   49.7402 N   0  0  0  0  0  0  0  0  0  0  0  0
    7.8269   45.2322   51.1195 C   0  0  0  0  0  0  0  0  0  0  0  0
    7.9234   43.9059   49.3951 C   0  0  0  0  0  3  0  0  0  0  0  0
   10.3123   45.5992   51.5059 C   0  0  0  0  0  0  0  0  0  0  0  0
   11.2287   46.0475   52.0807 N   0  0  0  0  0  0  0  0  0  0  0  0
    7.3463   46.0434   52.1873 C   0  0  0  0  0  0  0  0  0  0  0  0
    6.9602   46.7216   53.0495 N   0  0  0  0  0  0  0  0  0  0  0  0
    5.1941   43.2163   49.6610 C   0  0  0  0  0  0  0  0  0  0  0  0
    5.8242   42.8531   48.3885 C   0  0  0  0  0  3  0  0  0  0  0  0
    4.3526   42.3468   50.0724 N   0  0  0  0  0  0  0  0  0  0  0  0
    4.9709   41.2095   48.0813 S   0  0  0  0  0  0  0  0  0  0  0  0
    3.9715   41.3441   49.6796 C   0  0  0  0  0  0  0  0  0  0  0  0
    3.1380   40.1964   49.8209 N   0  0  0  0  0  0  0  0  0  0  0  0
    2.3524   39.7652   48.7183 C   0  0  0  0  0  0  0  0  0  0  0  0
    2.8543   39.2619   47.5541 C   0  0  0  0  0  3  0  0  0  0  0  0
    0.9690   39.8610   48.8243 C   0  0  0  0  0  3  0  0  0  0  0  0
    2.0253   38.8656   46.5263 C   0  0  0  0  0  3  0  0  0  0  0  0
    0.1373   39.4654   47.7980 C   0  0  0  0  0  3  0  0  0  0  0  0
    0.6528   38.9554   46.6184 C   0  0  0  0  0  3  0  0  0  0  0  0
  1 11  1  0
  1  2  1  0
  2  5  1  0
  2  6  1  0
  3  4  1  0
  3  7  1  0
  5  3  2  0
  6  4  2  0
  7  8  3  0
  9  5  1  0
 10  9  3  0
 11 13  1  0
 12 11  2  0
 12 14  1  0
 13 15  2  0
 14 15  1  0
 15 16  1  0
 16 17  1  0
 17 19  2  0
 18 20  2  0
 18 17  1  0
 19 21  1  0
 20 22  1  0
 22 21  2  0
M  RAD  8   1   3   6   2  12   2  18   2  19   2  20   2  21   2  22   2
M  END
>  <REMARK>  (1) 
 SMILES N#Cc1ncn(Cc2csc(Nc3ccccc3)n2)c1C#N
 SMILES IDX 7 1 6 2 3 3 4 4 20 5 5 6 2 7 1 8 21 9 22 10 8 11 9 12 19 13
 SMILES IDX 10 14 11 15 12 16 13 18 14 19 18 20 15 21 17 22 16 23
 H PARENT 12 17

>  <TORSDO>  (1) 
F 6

$$$$
