/home/pchatterjee/Documents/git/vs_workflow/DiffDock/diffdock_run/pdbqt_scrubbed/Z1624951105.pdbqt
     RDKit          3D

 22 24  0  0  0  0  0  0  0  0999 V2000
    8.8968   45.3418   51.9430 C   0  0  0  0  0  2  0  0  0  0  0  0
    7.7182   46.0066   52.5197 N   0  0  0  0  0  0  0  0  0  0  0  0
    6.5068   47.4250   53.7242 C   0  0  0  0  0  0  0  0  0  0  0  0
    5.6691   46.5821   53.0511 N   0  0  0  0  0  0  0  0  0  0  0  0
    7.8009   47.0357   53.3673 C   0  0  0  0  0  0  0  0  0  0  0  0
    6.4213   45.7184   52.3169 C   0  0  0  0  0  3  0  0  0  0  0  0
    6.1275   48.4879   54.6132 C   0  0  0  0  0  0  0  0  0  0  0  0
    5.8360   49.3633   55.3342 N   0  0  0  0  0  0  0  0  0  0  0  0
    8.9885   47.6571   53.8495 C   0  0  0  0  0  0  0  0  0  0  0  0
    9.9472   48.1792   54.2505 N   0  0  0  0  0  0  0  0  0  0  0  0
    8.4211   44.5251   50.7846 C   0  0  0  0  0  0  0  0  0  0  0  0
    8.6007   45.1201   49.4572 C   0  0  0  0  0  3  0  0  0  0  0  0
    7.8717   43.3717   50.7491 N   0  0  0  0  0  0  0  0  0  0  0  0
    7.8697   43.7487   48.4043 S   0  0  0  0  0  0  0  0  0  0  0  0
    7.4839   42.6880   49.9201 C   0  0  0  0  0  0  0  0  0  0  0  0
    6.8765   41.4663   49.5072 N   0  0  0  0  0  0  0  0  0  0  0  0
    5.5364   41.4786   49.0351 C   0  0  0  0  0  0  0  0  0  0  0  0
    5.1507   41.1189   47.7771 C   0  0  0  0  0  3  0  0  0  0  0  0
    4.5380   41.8874   49.9128 C   0  0  0  0  0  3  0  0  0  0  0  0
    3.8276   41.1594   47.3923 C   0  0  0  0  0  3  0  0  0  0  0  0
    3.2136   41.9288   49.5307 C   0  0  0  0  0  3  0  0  0  0  0  0
    2.8283   41.5626   48.2522 C   0  0  0  0  0  3  0  0  0  0  0  0
  1 11  1  0
  1  2  1  0
  2  5  1  0
  2  6  1  0
  3  4  1  0
  3  7  1  0
  5  3  2  0
  6  4  2  0
  7  8  3  0
  9  5  1  0
 10  9  3  0
 11 13  1  0
 12 11  2  0
 12 14  1  0
 13 15  2  0
 14 15  1  0
 15 16  1  0
 16 17  1  0
 17 19  2  0
 18 20  2  0
 18 17  1  0
 19 21  1  0
 20 22  1  0
 22 21  2  0
M  RAD  8   1   3   6   2  12   2  18   2  19   2  20   2  21   2  22   2
M  END
>  <REMARK>  (1) 
 SMILES N#Cc1ncn(Cc2csc(Nc3ccccc3)n2)c1C#N
 SMILES IDX 7 1 6 2 3 3 4 4 20 5 5 6 2 7 1 8 21 9 22 10 8 11 9 12 19 13
 SMILES IDX 10 14 11 15 12 16 13 18 14 19 18 20 15 21 17 22 16 23
 H PARENT 12 17

>  <TORSDO>  (1) 
F 6

$$$$
