/home/pchatterjee/Documents/git/vs_workflow/DiffDock/diffdock_run/pdbqt_scrubbed/Z1624951105.pdbqt
     RDKit          3D

 22 24  0  0  0  0  0  0  0  0999 V2000
    8.9927   45.4235   50.8343 C   0  0  0  0  0  2  0  0  0  0  0  0
    8.2973   46.2497   51.8330 N   0  0  0  0  0  0  0  0  0  0  0  0
    7.9872   47.6334   53.5416 C   0  0  0  0  0  0  0  0  0  0  0  0
    6.7717   47.2614   53.0418 N   0  0  0  0  0  0  0  0  0  0  0  0
    8.9364   46.9756   52.7544 C   0  0  0  0  0  0  0  0  0  0  0  0
    6.9736   46.4148   51.9963 C   0  0  0  0  0  3  0  0  0  0  0  0
    8.2298   48.5172   54.6479 C   0  0  0  0  0  0  0  0  0  0  0  0
    8.4096   49.2466   55.5462 N   0  0  0  0  0  0  0  0  0  0  0  0
   10.3451   47.0846   52.9356 C   0  0  0  0  0  0  0  0  0  0  0  0
   11.4927   47.1717   53.1031 N   0  0  0  0  0  0  0  0  0  0  0  0
    8.0175   44.3976   50.3528 C   0  0  0  0  0  0  0  0  0  0  0  0
    6.7722   44.2811   51.1169 C   0  0  0  0  0  3  0  0  0  0  0  0
    8.0821   43.5851   49.3684 N   0  0  0  0  0  0  0  0  0  0  0  0
    5.9386   42.9127   50.1388 S   0  0  0  0  0  0  0  0  0  0  0  0
    7.3927   42.7820   48.9387 C   0  0  0  0  0  0  0  0  0  0  0  0
    7.1219   41.7750   47.9667 N   0  0  0  0  0  0  0  0  0  0  0  0
    5.7744   41.4305   47.6764 C   0  0  0  0  0  0  0  0  0  0  0  0
    4.7677   41.3823   48.5955 C   0  0  0  0  0  3  0  0  0  0  0  0
    5.4489   41.1165   46.3612 C   0  0  0  0  0  3  0  0  0  0  0  0
    3.4825   41.0365   48.2359 C   0  0  0  0  0  3  0  0  0  0  0  0
    4.1643   40.7703   45.9985 C   0  0  0  0  0  3  0  0  0  0  0  0
    3.1466   40.7229   46.9362 C   0  0  0  0  0  3  0  0  0  0  0  0
  1 11  1  0
  1  2  1  0
  2  5  1  0
  2  6  1  0
  3  4  1  0
  3  7  1  0
  5  3  2  0
  6  4  2  0
  7  8  3  0
  9  5  1  0
 10  9  3  0
 11 13  1  0
 12 11  2  0
 12 14  1  0
 13 15  2  0
 14 15  1  0
 15 16  1  0
 16 17  1  0
 17 19  2  0
 18 20  2  0
 18 17  1  0
 19 21  1  0
 20 22  1  0
 22 21  2  0
M  RAD  8   1   3   6   2  12   2  18   2  19   2  20   2  21   2  22   2
M  END
>  <REMARK>  (1) 
 SMILES N#Cc1ncn(Cc2csc(Nc3ccccc3)n2)c1C#N
 SMILES IDX 7 1 6 2 3 3 4 4 20 5 5 6 2 7 1 8 21 9 22 10 8 11 9 12 19 13
 SMILES IDX 10 14 11 15 12 16 13 18 14 19 18 20 15 21 17 22 16 23
 H PARENT 12 17

>  <TORSDO>  (1) 
F 6

$$$$
