/home/pchatterjee/Documents/git/vs_workflow/DiffDock/diffdock_run/pdbqt_scrubbed/Z1624951105.pdbqt
     RDKit          3D

 22 24  0  0  0  0  0  0  0  0999 V2000
    5.6519   44.4317   50.5991 C   0  0  0  0  0  2  0  0  0  0  0  0
    7.0898   44.6339   50.3643 N   0  0  0  0  0  0  0  0  0  0  0  0
    9.1465   45.4379   50.5965 C   0  0  0  0  0  0  0  0  0  0  0  0
    9.1356   44.5258   49.5799 N   0  0  0  0  0  0  0  0  0  0  0  0
    7.8341   45.4853   51.0752 C   0  0  0  0  0  0  0  0  0  0  0  0
    7.8719   44.0400   49.4468 C   0  0  0  0  0  3  0  0  0  0  0  0
   10.2769   46.1885   51.0684 C   0  0  0  0  0  0  0  0  0  0  0  0
   11.2106   46.7868   51.4441 N   0  0  0  0  0  0  0  0  0  0  0  0
    7.3992   46.3181   52.1458 C   0  0  0  0  0  0  0  0  0  0  0  0
    7.0628   47.0013   53.0248 N   0  0  0  0  0  0  0  0  0  0  0  0
    5.2453   43.2150   49.8312 C   0  0  0  0  0  0  0  0  0  0  0  0
    4.2046   42.3832   50.4420 C   0  0  0  0  0  3  0  0  0  0  0  0
    5.6570   42.7628   48.7089 N   0  0  0  0  0  0  0  0  0  0  0  0
    4.0718   41.0456   49.1316 S   0  0  0  0  0  0  0  0  0  0  0  0
    5.4036   41.8554   48.0629 C   0  0  0  0  0  0  0  0  0  0  0  0
    5.6062   41.0818   46.8829 N   0  0  0  0  0  0  0  0  0  0  0  0
    4.4885   40.7295   46.0796 C   0  0  0  0  0  0  0  0  0  0  0  0
    4.4443   39.6615   45.2322 C   0  0  0  0  0  3  0  0  0  0  0  0
    3.3519   41.5274   46.1552 C   0  0  0  0  0  3  0  0  0  0  0  0
    3.3208   39.3853   44.4825 C   0  0  0  0  0  3  0  0  0  0  0  0
    2.2266   41.2536   45.4066 C   0  0  0  0  0  3  0  0  0  0  0  0
    2.1879   40.1680   44.5480 C   0  0  0  0  0  3  0  0  0  0  0  0
  1 11  1  0
  1  2  1  0
  2  5  1  0
  2  6  1  0
  3  4  1  0
  3  7  1  0
  5  3  2  0
  6  4  2  0
  7  8  3  0
  9  5  1  0
 10  9  3  0
 11 13  1  0
 12 11  2  0
 12 14  1  0
 13 15  2  0
 14 15  1  0
 15 16  1  0
 16 17  1  0
 17 19  2  0
 18 20  2  0
 18 17  1  0
 19 21  1  0
 20 22  1  0
 22 21  2  0
M  RAD  8   1   3   6   2  12   2  18   2  19   2  20   2  21   2  22   2
M  END
>  <REMARK>  (1) 
 SMILES N#Cc1ncn(Cc2csc(Nc3ccccc3)n2)c1C#N
 SMILES IDX 7 1 6 2 3 3 4 4 20 5 5 6 2 7 1 8 21 9 22 10 8 11 9 12 19 13
 SMILES IDX 10 14 11 15 12 16 13 18 14 19 18 20 15 21 17 22 16 23
 H PARENT 12 17

>  <TORSDO>  (1) 
F 6

$$$$
