/home/pchatterjee/Documents/git/vs_workflow/DiffDock/diffdock_run/pdbqt_scrubbed/Z1624951105.pdbqt
     RDKit          3D

 22 24  0  0  0  0  0  0  0  0999 V2000
    5.9043   43.8645   51.1441 C   0  0  0  0  0  2  0  0  0  0  0  0
    7.2760   44.0803   50.6585 N   0  0  0  0  0  0  0  0  0  0  0  0
    9.3191   44.9343   50.4967 C   0  0  0  0  0  0  0  0  0  0  0  0
    9.1626   43.9672   49.5449 N   0  0  0  0  0  0  0  0  0  0  0  0
    8.1054   44.9836   51.1880 C   0  0  0  0  0  0  0  0  0  0  0  0
    7.9085   43.4512   49.6534 C   0  0  0  0  0  3  0  0  0  0  0  0
   10.4915   45.7310   50.7306 C   0  0  0  0  0  0  0  0  0  0  0  0
   11.4446   46.3778   50.9412 N   0  0  0  0  0  0  0  0  0  0  0  0
    7.8340   45.8662   52.2727 C   0  0  0  0  0  0  0  0  0  0  0  0
    7.6089   46.5712   53.1698 N   0  0  0  0  0  0  0  0  0  0  0  0
    5.2370   42.9326   50.1841 C   0  0  0  0  0  0  0  0  0  0  0  0
    6.1169   42.2397   49.2387 C   0  0  0  0  0  3  0  0  0  0  0  0
    4.0041   42.6280   50.0404 N   0  0  0  0  0  0  0  0  0  0  0  0
    4.8342   41.2390   48.3021 S   0  0  0  0  0  0  0  0  0  0  0  0
    3.4198   41.9370   49.3432 C   0  0  0  0  0  0  0  0  0  0  0  0
    2.1836   41.3756   48.9090 N   0  0  0  0  0  0  0  0  0  0  0  0
    2.1928   40.3240   47.9535 C   0  0  0  0  0  0  0  0  0  0  0  0
    2.4512   40.4827   46.6235 C   0  0  0  0  0  3  0  0  0  0  0  0
    1.9177   39.0351   48.3974 C   0  0  0  0  0  3  0  0  0  0  0  0
    2.4397   39.4108   45.7566 C   0  0  0  0  0  3  0  0  0  0  0  0
    1.9056   37.9610   47.5327 C   0  0  0  0  0  3  0  0  0  0  0  0
    2.1686   38.1284   46.1836 C   0  0  0  0  0  3  0  0  0  0  0  0
  1 11  1  0
  1  2  1  0
  2  5  1  0
  2  6  1  0
  3  4  1  0
  3  7  1  0
  5  3  2  0
  6  4  2  0
  7  8  3  0
  9  5  1  0
 10  9  3  0
 11 13  1  0
 12 11  2  0
 12 14  1  0
 13 15  2  0
 14 15  1  0
 15 16  1  0
 16 17  1  0
 17 19  2  0
 18 20  2  0
 18 17  1  0
 19 21  1  0
 20 22  1  0
 22 21  2  0
M  RAD  8   1   3   6   2  12   2  18   2  19   2  20   2  21   2  22   2
M  END
>  <REMARK>  (1) 
 SMILES N#Cc1ncn(Cc2csc(Nc3ccccc3)n2)c1C#N
 SMILES IDX 7 1 6 2 3 3 4 4 20 5 5 6 2 7 1 8 21 9 22 10 8 11 9 12 19 13
 SMILES IDX 10 14 11 15 12 16 13 18 14 19 18 20 15 21 17 22 16 23
 H PARENT 12 17

>  <TORSDO>  (1) 
F 6

$$$$
