/home/pchatterjee/Documents/git/vs_workflow/DiffDock/diffdock_run/pdbqt_scrubbed/Z1624951105.pdbqt
     RDKit          3D

 22 24  0  0  0  0  0  0  0  0999 V2000
    9.2560   46.1556   50.2002 C   0  0  0  0  0  2  0  0  0  0  0  0
    9.4163   46.5048   51.6201 N   0  0  0  0  0  0  0  0  0  0  0  0
    8.9430   47.3103   53.6343 C   0  0  0  0  0  0  0  0  0  0  0  0
   10.1975   46.7704   53.6527 N   0  0  0  0  0  0  0  0  0  0  0  0
    8.4721   47.1269   52.3311 C   0  0  0  0  0  0  0  0  0  0  0  0
   10.4766   46.2802   52.4148 C   0  0  0  0  0  3  0  0  0  0  0  0
    8.2580   47.9354   54.7316 C   0  0  0  0  0  0  0  0  0  0  0  0
    7.6853   48.4512   55.6131 N   0  0  0  0  0  0  0  0  0  0  0  0
    7.1910   47.5488   51.8731 C   0  0  0  0  0  0  0  0  0  0  0  0
    6.1452   47.9077   51.5125 N   0  0  0  0  0  0  0  0  0  0  0  0
    8.3788   44.9464   50.1385 C   0  0  0  0  0  0  0  0  0  0  0  0
    7.5472   44.6907   51.3180 C   0  0  0  0  0  3  0  0  0  0  0  0
    8.2244   44.0763   49.2153 N   0  0  0  0  0  0  0  0  0  0  0  0
    6.6790   43.1268   50.7484 S   0  0  0  0  0  0  0  0  0  0  0  0
    7.5856   43.1375   49.0902 C   0  0  0  0  0  0  0  0  0  0  0  0
    7.1659   42.0221   48.3081 N   0  0  0  0  0  0  0  0  0  0  0  0
    5.7890   41.6736   48.2732 C   0  0  0  0  0  0  0  0  0  0  0  0
    4.9519   41.6985   49.3500 C   0  0  0  0  0  3  0  0  0  0  0  0
    5.2463   41.2750   47.0563 C   0  0  0  0  0  3  0  0  0  0  0  0
    3.6247   41.3433   49.2365 C   0  0  0  0  0  3  0  0  0  0  0  0
    3.9191   40.9192   46.9397 C   0  0  0  0  0  3  0  0  0  0  0  0
    3.0744   40.9464   48.0365 C   0  0  0  0  0  3  0  0  0  0  0  0
  1 11  1  0
  1  2  1  0
  2  5  1  0
  2  6  1  0
  3  4  1  0
  3  7  1  0
  5  3  2  0
  6  4  2  0
  7  8  3  0
  9  5  1  0
 10  9  3  0
 11 13  1  0
 12 11  2  0
 12 14  1  0
 13 15  2  0
 14 15  1  0
 15 16  1  0
 16 17  1  0
 17 19  2  0
 18 20  2  0
 18 17  1  0
 19 21  1  0
 20 22  1  0
 22 21  2  0
M  RAD  8   1   3   6   2  12   2  18   2  19   2  20   2  21   2  22   2
M  END
>  <REMARK>  (1) 
 SMILES N#Cc1ncn(Cc2csc(Nc3ccccc3)n2)c1C#N
 SMILES IDX 7 1 6 2 3 3 4 4 20 5 5 6 2 7 1 8 21 9 22 10 8 11 9 12 19 13
 SMILES IDX 10 14 11 15 12 16 13 18 14 19 18 20 15 21 17 22 16 23
 H PARENT 12 17

>  <TORSDO>  (1) 
F 6

$$$$
