/home/pchatterjee/Documents/git/vs_workflow/DiffDock/diffdock_run/pdbqt_scrubbed/Z1624951105.pdbqt
     RDKit          3D

 22 24  0  0  0  0  0  0  0  0999 V2000
    9.1158   45.6411   51.0069 C   0  0  0  0  0  2  0  0  0  0  0  0
    8.3994   46.4862   51.9745 N   0  0  0  0  0  0  0  0  0  0  0  0
    8.0484   47.8548   53.6873 C   0  0  0  0  0  0  0  0  0  0  0  0
    6.8514   47.5576   53.1006 N   0  0  0  0  0  0  0  0  0  0  0  0
    9.0125   47.1605   52.9510 C   0  0  0  0  0  0  0  0  0  0  0  0
    7.0782   46.7195   52.0532 C   0  0  0  0  0  3  0  0  0  0  0  0
    8.2624   48.7051   54.8254 C   0  0  0  0  0  0  0  0  0  0  0  0
    8.4393   49.4139   55.7404 N   0  0  0  0  0  0  0  0  0  0  0  0
   10.4096   47.1903   53.2273 C   0  0  0  0  0  0  0  0  0  0  0  0
   11.5527   47.1991   53.4408 N   0  0  0  0  0  0  0  0  0  0  0  0
    8.1196   44.6866   50.4308 C   0  0  0  0  0  0  0  0  0  0  0  0
    6.7499   44.7961   50.9409 C   0  0  0  0  0  3  0  0  0  0  0  0
    8.2573   43.7701   49.5508 N   0  0  0  0  0  0  0  0  0  0  0  0
    5.9383   43.4335   49.9366 S   0  0  0  0  0  0  0  0  0  0  0  0
    7.5592   43.0088   49.0628 C   0  0  0  0  0  0  0  0  0  0  0  0
    7.3424   41.9399   48.1451 N   0  0  0  0  0  0  0  0  0  0  0  0
    6.0156   41.5047   47.8824 C   0  0  0  0  0  0  0  0  0  0  0  0
    5.0413   41.3629   48.8266 C   0  0  0  0  0  3  0  0  0  0  0  0
    5.6766   41.1970   46.5692 C   0  0  0  0  0  3  0  0  0  0  0  0
    3.7748   40.9326   48.4929 C   0  0  0  0  0  3  0  0  0  0  0  0
    4.4106   40.7663   46.2325 C   0  0  0  0  0  3  0  0  0  0  0  0
    3.4258   40.6243   47.1954 C   0  0  0  0  0  3  0  0  0  0  0  0
  1 11  1  0
  1  2  1  0
  2  5  1  0
  2  6  1  0
  3  4  1  0
  3  7  1  0
  5  3  2  0
  6  4  2  0
  7  8  3  0
  9  5  1  0
 10  9  3  0
 11 13  1  0
 12 11  2  0
 12 14  1  0
 13 15  2  0
 14 15  1  0
 15 16  1  0
 16 17  1  0
 17 19  2  0
 18 20  2  0
 18 17  1  0
 19 21  1  0
 20 22  1  0
 22 21  2  0
M  RAD  8   1   3   6   2  12   2  18   2  19   2  20   2  21   2  22   2
M  END
>  <REMARK>  (1) 
 SMILES N#Cc1ncn(Cc2csc(Nc3ccccc3)n2)c1C#N
 SMILES IDX 7 1 6 2 3 3 4 4 20 5 5 6 2 7 1 8 21 9 22 10 8 11 9 12 19 13
 SMILES IDX 10 14 11 15 12 16 13 18 14 19 18 20 15 21 17 22 16 23
 H PARENT 12 17

>  <TORSDO>  (1) 
F 6

$$$$
