/home/pchatterjee/Documents/git/vs_workflow/DiffDock/diffdock_run/pdbqt_scrubbed/Z1624951105.pdbqt
     RDKit          3D

 22 24  0  0  0  0  0  0  0  0999 V2000
    8.9996   45.7036   50.7109 C   0  0  0  0  0  2  0  0  0  0  0  0
    8.3396   46.5029   51.7546 N   0  0  0  0  0  0  0  0  0  0  0  0
    8.0868   47.7904   53.5458 C   0  0  0  0  0  0  0  0  0  0  0  0
    6.8586   47.5213   53.0123 N   0  0  0  0  0  0  0  0  0  0  0  0
    9.0071   47.1309   52.7263 C   0  0  0  0  0  0  0  0  0  0  0  0
    7.0254   46.7328   51.9163 C   0  0  0  0  0  3  0  0  0  0  0  0
    8.3651   48.5867   54.7087 C   0  0  0  0  0  0  0  0  0  0  0  0
    8.6069   49.2450   55.6464 N   0  0  0  0  0  0  0  0  0  0  0  0
   10.4173   47.1473   52.9267 C   0  0  0  0  0  0  0  0  0  0  0  0
   11.5691   47.1411   53.0879 N   0  0  0  0  0  0  0  0  0  0  0  0
    8.0546   44.6102   50.3276 C   0  0  0  0  0  0  0  0  0  0  0  0
    6.9506   44.3549   51.2571 C   0  0  0  0  0  3  0  0  0  0  0  0
    8.0415   43.8411   49.3069 N   0  0  0  0  0  0  0  0  0  0  0  0
    6.1007   42.9506   50.3463 S   0  0  0  0  0  0  0  0  0  0  0  0
    7.3668   42.9938   48.9439 C   0  0  0  0  0  0  0  0  0  0  0  0
    7.0417   42.0003   47.9749 N   0  0  0  0  0  0  0  0  0  0  0  0
    5.6779   41.6887   47.7262 C   0  0  0  0  0  0  0  0  0  0  0  0
    5.1651   41.3554   46.5069 C   0  0  0  0  0  3  0  0  0  0  0  0
    4.7931   41.7253   48.7986 C   0  0  0  0  0  3  0  0  0  0  0  0
    3.8267   41.0674   46.3448 C   0  0  0  0  0  3  0  0  0  0  0  0
    3.4538   41.4377   48.6395 C   0  0  0  0  0  3  0  0  0  0  0  0
    2.9392   41.1000   47.3992 C   0  0  0  0  0  3  0  0  0  0  0  0
  1 11  1  0
  1  2  1  0
  2  5  1  0
  2  6  1  0
  3  4  1  0
  3  7  1  0
  5  3  2  0
  6  4  2  0
  7  8  3  0
  9  5  1  0
 10  9  3  0
 11 13  1  0
 12 11  2  0
 12 14  1  0
 13 15  2  0
 14 15  1  0
 15 16  1  0
 16 17  1  0
 17 19  2  0
 18 20  2  0
 18 17  1  0
 19 21  1  0
 20 22  1  0
 22 21  2  0
M  RAD  8   1   3   6   2  12   2  18   2  19   2  20   2  21   2  22   2
M  END
>  <REMARK>  (1) 
 SMILES N#Cc1ncn(Cc2csc(Nc3ccccc3)n2)c1C#N
 SMILES IDX 7 1 6 2 3 3 4 4 20 5 5 6 2 7 1 8 21 9 22 10 8 11 9 12 19 13
 SMILES IDX 10 14 11 15 12 16 13 18 14 19 18 20 15 21 17 22 16 23
 H PARENT 12 17

>  <TORSDO>  (1) 
F 6

$$$$
