/home/pchatterjee/Documents/git/vs_workflow/DiffDock/diffdock_run/pdbqt_scrubbed/Z3091154570.pdbqt
     RDKit          3D

 26 29  0  0  0  0  0  0  0  0999 V2000
    7.6616   44.4169   50.1144 C   0  0  0  0  0  0  0  0  0  0  0  0
    6.3114   44.3284   50.1467 N   0  0  0  0  0  0  0  0  0  0  0  0
    5.6999   43.3250   49.4676 C   0  0  0  0  0  3  0  0  0  0  0  0
    6.4345   42.3844   48.7379 C   0  0  0  0  0  0  0  0  0  0  0  0
    7.8074   42.5149   48.7342 C   0  0  0  0  0  3  0  0  0  0  0  0
    8.3726   43.5242   49.4209 N   0  0  0  0  0  0  0  0  0  0  0  0
    8.2639   45.4911   50.8453 N   0  0  0  0  0  0  0  0  0  0  0  0
    7.4351   46.1790   51.7708 C   0  0  0  0  0  0  0  0  0  0  0  0
    6.1710   46.0781   51.7666 O   0  0  0  0  0  0  0  0  0  0  0  0
    8.0216   47.0502   52.7879 C   0  0  0  0  0  0  0  0  0  0  0  0
    7.3051   47.8602   53.6401 C   0  0  0  0  0  3  0  0  0  0  0  0
    9.3292   47.2145   53.0684 N   0  0  0  0  0  0  0  0  0  0  0  0
    8.2222   48.5103   54.4345 C   0  0  0  0  0  3  0  0  0  0  0  0
    9.4584   48.0876   54.0537 N   0  0  0  0  0  0  0  0  0  0  0  0
   10.6583   48.5818   54.6949 C   0  0  0  0  0  3  0  0  0  0  0  0
   11.6399   47.4490   54.8950 C   0  0  0  0  0  2  0  0  0  0  0  0
   10.2628   49.0580   56.0801 C   0  0  0  0  0  2  0  0  0  0  0  0
   12.1656   47.7252   56.3043 C   0  0  0  0  0  2  0  0  0  0  0  0
   10.8414   48.0059   57.0151 C   0  0  0  0  0  2  0  0  0  0  0  0
    5.7403   41.4030   48.0804 O   0  0  0  0  0  0  0  0  0  0  0  0
    4.3597   41.2467   48.0958 C   0  0  0  0  0  0  0  0  0  0  0  0
    3.7889   40.8786   49.2971 C   0  0  0  0  0  3  0  0  0  0  0  0
    3.5934   41.4544   46.9457 C   0  0  0  0  0  3  0  0  0  0  0  0
    2.4279   40.7022   49.4004 C   0  0  0  0  0  3  0  0  0  0  0  0
    2.2202   41.2769   47.0478 C   0  0  0  0  0  3  0  0  0  0  0  0
    1.6790   40.9114   48.2514 C   0  0  0  0  0  3  0  0  0  0  0  0
  1  2  2  0
  2  3  1  0
  4 20  1  0
  4  3  2  0
  5  4  1  0
  6  5  2  0
  6  1  1  0
  7  1  1  0
  7  8  1  0
  8  9  2  0
 10  8  1  0
 10 11  1  0
 12 10  2  0
 13 11  2  0
 14 12  1  0
 14 13  1  0
 15 17  1  0
 15 14  1  0
 16 15  1  0
 18 16  1  0
 18 19  1  0
 19 17  1  0
 21 20  1  0
 21 23  1  0
 22 21  2  0
 24 22  1  0
 24 26  2  0
 25 23  2  0
 26 25  1  0
M  RAD  8   3   2   5   2  11   2  13   2  15   2  16   3  17   3  18   3
M  RAD  6  19   3  22   2  23   2  24   2  25   2  26   2
M  END
>  <REMARK>  (1) 
 SMILES O=C(Nc1ncc(Oc2ccccc2)cn1)c1ccn(C2CCCC2)n1
 SMILES IDX 4 1 5 2 6 3 7 4 15 5 16 6 3 7 2 8 1 9 17 11 18 12 26 13
 SMILES IDX 19 14 20 15 21 16 22 17 25 18 23 19 24 20 8 21 9 22 10 23
 SMILES IDX 14 24 11 25 13 26 12 27
 H PARENT 3 10

>  <TORSDO>  (1) 
F 5

$$$$
