/home/pchatterjee/Documents/git/vs_workflow/DiffDock/diffdock_run/pdbqt_scrubbed/Z3091154570.pdbqt
     RDKit          3D

 26 29  0  0  0  0  0  0  0  0999 V2000
    8.6835   44.3091   50.5240 C   0  0  0  0  0  0  0  0  0  0  0  0
    9.0538   43.5699   49.4525 N   0  0  0  0  0  0  0  0  0  0  0  0
    8.0963   42.9555   48.7125 C   0  0  0  0  0  3  0  0  0  0  0  0
    6.7398   43.0706   49.0341 C   0  0  0  0  0  0  0  0  0  0  0  0
    6.4105   43.8340   50.1344 C   0  0  0  0  0  3  0  0  0  0  0  0
    7.3912   44.4257   50.8400 N   0  0  0  0  0  0  0  0  0  0  0  0
    9.7270   44.9392   51.2756 N   0  0  0  0  0  0  0  0  0  0  0  0
    9.5005   46.2800   51.6851 C   0  0  0  0  0  0  0  0  0  0  0  0
   10.3251   47.2159   51.4563 O   0  0  0  0  0  0  0  0  0  0  0  0
    8.2791   46.6409   52.4029 C   0  0  0  0  0  0  0  0  0  0  0  0
    7.9244   47.9224   52.7602 C   0  0  0  0  0  3  0  0  0  0  0  0
    7.3079   45.8116   52.8326 N   0  0  0  0  0  0  0  0  0  0  0  0
    6.7164   47.8323   53.4137 C   0  0  0  0  0  3  0  0  0  0  0  0
    6.3677   46.5171   53.4394 N   0  0  0  0  0  0  0  0  0  0  0  0
    5.1381   46.0717   54.0598 C   0  0  0  0  0  3  0  0  0  0  0  0
    4.6802   44.7773   53.4259 C   0  0  0  0  0  2  0  0  0  0  0  0
    4.0750   47.1063   53.7414 C   0  0  0  0  0  2  0  0  0  0  0  0
    3.1732   45.0009   53.2928 C   0  0  0  0  0  2  0  0  0  0  0  0
    3.1797   46.4187   52.7208 C   0  0  0  0  0  2  0  0  0  0  0  0
    5.8369   42.4188   48.2357 O   0  0  0  0  0  0  0  0  0  0  0  0
    4.5489   42.0554   48.6092 C   0  0  0  0  0  0  0  0  0  0  0  0
    4.4308   41.2144   49.6971 C   0  0  0  0  0  3  0  0  0  0  0  0
    3.4320   42.5233   47.9116 C   0  0  0  0  0  3  0  0  0  0  0  0
    3.1917   40.8052   50.1341 C   0  0  0  0  0  3  0  0  0  0  0  0
    2.1809   42.1116   48.3509 C   0  0  0  0  0  3  0  0  0  0  0  0
    2.0915   41.2769   49.4328 C   0  0  0  0  0  3  0  0  0  0  0  0
  1  2  2  0
  2  3  1  0
  4 20  1  0
  4  3  2  0
  5  4  1  0
  6  5  2  0
  6  1  1  0
  7  1  1  0
  7  8  1  0
  8  9  2  0
 10  8  1  0
 10 11  1  0
 12 10  2  0
 13 11  2  0
 14 12  1  0
 14 13  1  0
 15 17  1  0
 15 14  1  0
 16 15  1  0
 18 16  1  0
 18 19  1  0
 19 17  1  0
 21 20  1  0
 21 23  1  0
 22 21  2  0
 24 22  1  0
 24 26  2  0
 25 23  2  0
 26 25  1  0
M  RAD  8   3   2   5   2  11   2  13   2  15   2  16   3  17   3  18   3
M  RAD  6  19   3  22   2  23   2  24   2  25   2  26   2
M  END
>  <REMARK>  (1) 
 SMILES O=C(Nc1ncc(Oc2ccccc2)cn1)c1ccn(C2CCCC2)n1
 SMILES IDX 4 1 5 2 6 3 7 4 15 5 16 6 3 7 2 8 1 9 17 11 18 12 26 13
 SMILES IDX 19 14 20 15 21 16 22 17 25 18 23 19 24 20 8 21 9 22 10 23
 SMILES IDX 14 24 11 25 13 26 12 27
 H PARENT 3 10

>  <TORSDO>  (1) 
F 5

$$$$
