/home/pchatterjee/Documents/git/vs_workflow/DiffDock/diffdock_run/pdbqt_scrubbed/Z3091154570.pdbqt
     RDKit          3D

 26 29  0  0  0  0  0  0  0  0999 V2000
    7.5998   44.4860   50.5211 C   0  0  0  0  0  0  0  0  0  0  0  0
    8.4090   43.7052   49.7678 N   0  0  0  0  0  0  0  0  0  0  0  0
    7.8572   42.7343   48.9967 C   0  0  0  0  0  3  0  0  0  0  0  0
    6.4743   42.5255   48.9651 C   0  0  0  0  0  0  0  0  0  0  0  0
    5.6902   43.3454   49.7492 C   0  0  0  0  0  3  0  0  0  0  0  0
    6.2782   44.2953   50.4985 N   0  0  0  0  0  0  0  0  0  0  0  0
    8.2253   45.4975   51.3190 N   0  0  0  0  0  0  0  0  0  0  0  0
    7.3653   46.4176   51.9750 C   0  0  0  0  0  0  0  0  0  0  0  0
    6.1491   46.5714   51.6502 O   0  0  0  0  0  0  0  0  0  0  0  0
    7.8610   47.2423   53.0757 C   0  0  0  0  0  0  0  0  0  0  0  0
    7.1894   48.3121   53.6235 C   0  0  0  0  0  3  0  0  0  0  0  0
    9.0289   47.1103   53.7346 N   0  0  0  0  0  0  0  0  0  0  0  0
    7.9896   48.8123   54.6255 C   0  0  0  0  0  3  0  0  0  0  0  0
    9.1142   48.0469   54.6648 N   0  0  0  0  0  0  0  0  0  0  0  0
   10.1738   48.3063   55.6162 C   0  0  0  0  0  3  0  0  0  0  0  0
   10.3173   49.7959   55.8344 C   0  0  0  0  0  2  0  0  0  0  0  0
   11.4700   47.8375   54.9824 C   0  0  0  0  0  2  0  0  0  0  0  0
   11.8363   49.9727   55.8507 C   0  0  0  0  0  2  0  0  0  0  0  0
   12.2004   49.1256   54.6311 C   0  0  0  0  0  2  0  0  0  0  0  0
    5.9981   41.5242   48.1600 O   0  0  0  0  0  0  0  0  0  0  0  0
    4.7003   41.0282   48.1762 C   0  0  0  0  0  0  0  0  0  0  0  0
    3.9944   41.0946   46.9922 C   0  0  0  0  0  3  0  0  0  0  0  0
    4.1440   40.4896   49.3395 C   0  0  0  0  0  3  0  0  0  0  0  0
    2.7026   40.6257   46.9202 C   0  0  0  0  0  3  0  0  0  0  0  0
    2.8408   40.0159   49.2691 C   0  0  0  0  0  3  0  0  0  0  0  0
    2.1625   40.0936   48.0821 C   0  0  0  0  0  3  0  0  0  0  0  0
  1  2  2  0
  2  3  1  0
  4 20  1  0
  4  3  2  0
  5  4  1  0
  6  5  2  0
  6  1  1  0
  7  1  1  0
  7  8  1  0
  8  9  2  0
 10  8  1  0
 10 11  1  0
 12 10  2  0
 13 11  2  0
 14 12  1  0
 14 13  1  0
 15 17  1  0
 15 14  1  0
 16 15  1  0
 18 16  1  0
 18 19  1  0
 19 17  1  0
 21 20  1  0
 21 23  1  0
 22 21  2  0
 24 22  1  0
 24 26  2  0
 25 23  2  0
 26 25  1  0
M  RAD  8   3   2   5   2  11   2  13   2  15   2  16   3  17   3  18   3
M  RAD  6  19   3  22   2  23   2  24   2  25   2  26   2
M  END
>  <REMARK>  (1) 
 SMILES O=C(Nc1ncc(Oc2ccccc2)cn1)c1ccn(C2CCCC2)n1
 SMILES IDX 4 1 5 2 6 3 7 4 15 5 16 6 3 7 2 8 1 9 17 11 18 12 26 13
 SMILES IDX 19 14 20 15 21 16 22 17 25 18 23 19 24 20 8 21 9 22 10 23
 SMILES IDX 14 24 11 25 13 26 12 27
 H PARENT 3 10

>  <TORSDO>  (1) 
F 5

$$$$
