/home/pchatterjee/Documents/git/vs_workflow/DiffDock/diffdock_run/pdbqt_scrubbed/Z3091154570.pdbqt
     RDKit          3D

 26 29  0  0  0  0  0  0  0  0999 V2000
    8.4361   44.6829   49.9688 C   0  0  0  0  0  0  0  0  0  0  0  0
    8.9869   43.7227   49.1901 N   0  0  0  0  0  0  0  0  0  0  0  0
    8.2122   42.6917   48.7673 C   0  0  0  0  0  3  0  0  0  0  0  0
    6.8613   42.6021   49.1192 C   0  0  0  0  0  0  0  0  0  0  0  0
    6.3442   43.6035   49.9140 C   0  0  0  0  0  3  0  0  0  0  0  0
    7.1473   44.6071   50.3107 N   0  0  0  0  0  0  0  0  0  0  0  0
    9.2905   45.7516   50.3915 N   0  0  0  0  0  0  0  0  0  0  0  0
    9.3455   46.0134   51.7861 C   0  0  0  0  0  0  0  0  0  0  0  0
   10.4089   45.8902   52.4660 O   0  0  0  0  0  0  0  0  0  0  0  0
    8.1500   46.4452   52.5083 C   0  0  0  0  0  0  0  0  0  0  0  0
    8.1222   46.8232   53.8320 C   0  0  0  0  0  3  0  0  0  0  0  0
    6.8961   46.5490   52.0258 N   0  0  0  0  0  0  0  0  0  0  0  0
    6.8183   47.1544   54.1230 C   0  0  0  0  0  3  0  0  0  0  0  0
    6.0919   46.9732   52.9866 N   0  0  0  0  0  0  0  0  0  0  0  0
    4.6687   47.2343   52.9481 C   0  0  0  0  0  3  0  0  0  0  0  0
    4.0345   46.8294   54.2599 C   0  0  0  0  0  2  0  0  0  0  0  0
    4.0753   46.3283   51.8856 C   0  0  0  0  0  2  0  0  0  0  0  0
    2.7475   46.1455   53.7964 C   0  0  0  0  0  2  0  0  0  0  0  0
    3.3165   45.2730   52.6772 C   0  0  0  0  0  2  0  0  0  0  0  0
    6.1494   41.5292   48.6507 O   0  0  0  0  0  0  0  0  0  0  0  0
    4.7814   41.3420   48.8065 C   0  0  0  0  0  0  0  0  0  0  0  0
    4.0103   41.4106   47.6640 C   0  0  0  0  0  3  0  0  0  0  0  0
    4.2213   41.0966   50.0631 C   0  0  0  0  0  3  0  0  0  0  0  0
    2.6467   41.2368   47.7286 C   0  0  0  0  0  3  0  0  0  0  0  0
    2.8457   40.9210   50.1304 C   0  0  0  0  0  3  0  0  0  0  0  0
    2.1036   40.9939   48.9819 C   0  0  0  0  0  3  0  0  0  0  0  0
  1  2  2  0
  2  3  1  0
  4 20  1  0
  4  3  2  0
  5  4  1  0
  6  5  2  0
  6  1  1  0
  7  1  1  0
  7  8  1  0
  8  9  2  0
 10  8  1  0
 10 11  1  0
 12 10  2  0
 13 11  2  0
 14 12  1  0
 14 13  1  0
 15 17  1  0
 15 14  1  0
 16 15  1  0
 18 16  1  0
 18 19  1  0
 19 17  1  0
 21 20  1  0
 21 23  1  0
 22 21  2  0
 24 22  1  0
 24 26  2  0
 25 23  2  0
 26 25  1  0
M  RAD  8   3   2   5   2  11   2  13   2  15   2  16   3  17   3  18   3
M  RAD  6  19   3  22   2  23   2  24   2  25   2  26   2
M  END
>  <REMARK>  (1) 
 SMILES O=C(Nc1ncc(Oc2ccccc2)cn1)c1ccn(C2CCCC2)n1
 SMILES IDX 4 1 5 2 6 3 7 4 15 5 16 6 3 7 2 8 1 9 17 11 18 12 26 13
 SMILES IDX 19 14 20 15 21 16 22 17 25 18 23 19 24 20 8 21 9 22 10 23
 SMILES IDX 14 24 11 25 13 26 12 27
 H PARENT 3 10

>  <TORSDO>  (1) 
F 5

$$$$
