/home/pchatterjee/Documents/git/vs_workflow/DiffDock/diffdock_run/pdbqt_scrubbed/Z3091154570.pdbqt
     RDKit          3D

 26 29  0  0  0  0  0  0  0  0999 V2000
    7.5758   44.6015   50.3522 C   0  0  0  0  0  0  0  0  0  0  0  0
    8.3477   43.7786   49.6046 N   0  0  0  0  0  0  0  0  0  0  0  0
    7.7537   42.8047   48.8694 C   0  0  0  0  0  3  0  0  0  0  0  0
    6.3651   42.6353   48.8690 C   0  0  0  0  0  0  0  0  0  0  0  0
    5.6199   43.4974   49.6458 C   0  0  0  0  0  3  0  0  0  0  0  0
    6.2492   44.4486   50.3591 N   0  0  0  0  0  0  0  0  0  0  0  0
    8.2452   45.6144   51.1117 N   0  0  0  0  0  0  0  0  0  0  0  0
    7.4406   46.4009   51.9782 C   0  0  0  0  0  0  0  0  0  0  0  0
    6.1730   46.3691   51.9545 O   0  0  0  0  0  0  0  0  0  0  0  0
    8.0575   47.2982   52.9536 C   0  0  0  0  0  0  0  0  0  0  0  0
    7.3703   48.1740   53.7639 C   0  0  0  0  0  3  0  0  0  0  0  0
    9.3700   47.4283   53.2293 N   0  0  0  0  0  0  0  0  0  0  0  0
    8.3097   48.8279   54.5284 C   0  0  0  0  0  3  0  0  0  0  0  0
    9.5301   48.3427   54.1717 N   0  0  0  0  0  0  0  0  0  0  0  0
   10.7466   48.8234   54.7914 C   0  0  0  0  0  3  0  0  0  0  0  0
   11.7126   47.6767   54.9887 C   0  0  0  0  0  2  0  0  0  0  0  0
   10.3782   49.3189   56.1773 C   0  0  0  0  0  2  0  0  0  0  0  0
   12.2623   47.9575   56.3880 C   0  0  0  0  0  2  0  0  0  0  0  0
   10.9529   48.2663   57.1143 C   0  0  0  0  0  2  0  0  0  0  0  0
    5.8451   41.6281   48.0992 O   0  0  0  0  0  0  0  0  0  0  0  0
    4.5445   41.1455   48.1780 C   0  0  0  0  0  0  0  0  0  0  0  0
    3.8334   41.0787   46.9972 C   0  0  0  0  0  3  0  0  0  0  0  0
    3.9906   40.7491   49.3983 C   0  0  0  0  0  3  0  0  0  0  0  0
    2.5386   40.6128   46.9854 C   0  0  0  0  0  3  0  0  0  0  0  0
    2.6844   40.2788   49.3886 C   0  0  0  0  0  3  0  0  0  0  0  0
    2.0008   40.2225   48.2033 C   0  0  0  0  0  3  0  0  0  0  0  0
  1  2  2  0
  2  3  1  0
  4 20  1  0
  4  3  2  0
  5  4  1  0
  6  5  2  0
  6  1  1  0
  7  1  1  0
  7  8  1  0
  8  9  2  0
 10  8  1  0
 10 11  1  0
 12 10  2  0
 13 11  2  0
 14 12  1  0
 14 13  1  0
 15 17  1  0
 15 14  1  0
 16 15  1  0
 18 16  1  0
 18 19  1  0
 19 17  1  0
 21 20  1  0
 21 23  1  0
 22 21  2  0
 24 22  1  0
 24 26  2  0
 25 23  2  0
 26 25  1  0
M  RAD  8   3   2   5   2  11   2  13   2  15   2  16   3  17   3  18   3
M  RAD  6  19   3  22   2  23   2  24   2  25   2  26   2
M  END
>  <REMARK>  (1) 
 SMILES O=C(Nc1ncc(Oc2ccccc2)cn1)c1ccn(C2CCCC2)n1
 SMILES IDX 4 1 5 2 6 3 7 4 15 5 16 6 3 7 2 8 1 9 17 11 18 12 26 13
 SMILES IDX 19 14 20 15 21 16 22 17 25 18 23 19 24 20 8 21 9 22 10 23
 SMILES IDX 14 24 11 25 13 26 12 27
 H PARENT 3 10

>  <TORSDO>  (1) 
F 5

$$$$
