/home/pchatterjee/Documents/git/vs_workflow/DiffDock/diffdock_run/pdbqt_scrubbed/Z3091154570.pdbqt
     RDKit          3D

 26 29  0  0  0  0  0  0  0  0999 V2000
    8.5631   44.4286   50.2178 C   0  0  0  0  0  0  0  0  0  0  0  0
    7.8993   43.8741   51.2588 N   0  0  0  0  0  0  0  0  0  0  0  0
    6.8486   43.0524   51.0085 C   0  0  0  0  0  3  0  0  0  0  0  0
    6.4399   42.7682   49.7012 C   0  0  0  0  0  0  0  0  0  0  0  0
    7.1464   43.3560   48.6730 C   0  0  0  0  0  3  0  0  0  0  0  0
    8.1813   44.1640   48.9657 N   0  0  0  0  0  0  0  0  0  0  0  0
    9.6649   45.2889   50.5288 N   0  0  0  0  0  0  0  0  0  0  0  0
    9.5838   46.0182   51.7446 C   0  0  0  0  0  0  0  0  0  0  0  0
   10.5968   46.2611   52.4678 O   0  0  0  0  0  0  0  0  0  0  0  0
    8.2991   46.5288   52.2200 C   0  0  0  0  0  0  0  0  0  0  0  0
    8.1444   47.4882   53.1954 C   0  0  0  0  0  3  0  0  0  0  0  0
    7.0702   46.1654   51.8037 N   0  0  0  0  0  0  0  0  0  0  0  0
    6.7906   47.6850   53.3475 C   0  0  0  0  0  3  0  0  0  0  0  0
    6.1605   46.8532   52.4740 N   0  0  0  0  0  0  0  0  0  0  0  0
    4.7169   46.8097   52.3771 C   0  0  0  0  0  3  0  0  0  0  0  0
    4.0986   47.4322   53.6089 C   0  0  0  0  0  2  0  0  0  0  0  0
    4.3110   45.3479   52.3839 C   0  0  0  0  0  2  0  0  0  0  0  0
    2.9497   46.4695   53.9124 C   0  0  0  0  0  2  0  0  0  0  0  0
    3.6890   45.1402   53.7572 C   0  0  0  0  0  2  0  0  0  0  0  0
    5.3698   41.9287   49.5352 O   0  0  0  0  0  0  0  0  0  0  0  0
    4.8360   41.5386   48.3131 C   0  0  0  0  0  0  0  0  0  0  0  0
    3.6048   42.0633   47.9764 C   0  0  0  0  0  3  0  0  0  0  0  0
    5.5193   40.6570   47.4712 C   0  0  0  0  0  3  0  0  0  0  0  0
    3.0040   41.7294   46.7841 C   0  0  0  0  0  3  0  0  0  0  0  0
    4.9150   40.3188   46.2679 C   0  0  0  0  0  3  0  0  0  0  0  0
    3.6930   40.8534   45.9579 C   0  0  0  0  0  3  0  0  0  0  0  0
  1  2  2  0
  2  3  1  0
  4 20  1  0
  4  3  2  0
  5  4  1  0
  6  5  2  0
  6  1  1  0
  7  1  1  0
  7  8  1  0
  8  9  2  0
 10  8  1  0
 10 11  1  0
 12 10  2  0
 13 11  2  0
 14 12  1  0
 14 13  1  0
 15 17  1  0
 15 14  1  0
 16 15  1  0
 18 16  1  0
 18 19  1  0
 19 17  1  0
 21 20  1  0
 21 23  1  0
 22 21  2  0
 24 22  1  0
 24 26  2  0
 25 23  2  0
 26 25  1  0
M  RAD  8   3   2   5   2  11   2  13   2  15   2  16   3  17   3  18   3
M  RAD  6  19   3  22   2  23   2  24   2  25   2  26   2
M  END
>  <REMARK>  (1) 
 SMILES O=C(Nc1ncc(Oc2ccccc2)cn1)c1ccn(C2CCCC2)n1
 SMILES IDX 4 1 5 2 6 3 7 4 15 5 16 6 3 7 2 8 1 9 17 11 18 12 26 13
 SMILES IDX 19 14 20 15 21 16 22 17 25 18 23 19 24 20 8 21 9 22 10 23
 SMILES IDX 14 24 11 25 13 26 12 27
 H PARENT 3 10

>  <TORSDO>  (1) 
F 5

$$$$
