/home/pchatterjee/Documents/git/vs_workflow/DiffDock/diffdock_run/pdbqt_scrubbed/Z3091154570.pdbqt
     RDKit          3D

 26 29  0  0  0  0  0  0  0  0999 V2000
    7.0555   42.4844   49.8802 C   0  0  0  0  0  0  0  0  0  0  0  0
    5.8247   42.4846   50.4432 N   0  0  0  0  0  0  0  0  0  0  0  0
    4.7698   42.0266   49.7224 C   0  0  0  0  0  3  0  0  0  0  0  0
    4.9289   41.5565   48.4146 C   0  0  0  0  0  0  0  0  0  0  0  0
    6.2013   41.5756   47.8831 C   0  0  0  0  0  3  0  0  0  0  0  0
    7.2186   42.0378   48.6323 N   0  0  0  0  0  0  0  0  0  0  0  0
    8.1388   42.9764   50.6772 N   0  0  0  0  0  0  0  0  0  0  0  0
    8.7486   44.1860   50.2513 C   0  0  0  0  0  0  0  0  0  0  0  0
    9.3419   44.2997   49.1362 O   0  0  0  0  0  0  0  0  0  0  0  0
    8.7149   45.3744   51.1020 C   0  0  0  0  0  0  0  0  0  0  0  0
    9.5510   46.4606   50.9724 C   0  0  0  0  0  3  0  0  0  0  0  0
    7.8855   45.6165   52.1360 N   0  0  0  0  0  0  0  0  0  0  0  0
    9.1962   47.3545   51.9571 C   0  0  0  0  0  3  0  0  0  0  0  0
    8.1670   46.8006   52.6541 N   0  0  0  0  0  0  0  0  0  0  0  0
    7.5516   47.4877   53.7696 C   0  0  0  0  0  3  0  0  0  0  0  0
    6.2265   46.8411   54.1059 C   0  0  0  0  0  2  0  0  0  0  0  0
    7.2370   48.8986   53.3088 C   0  0  0  0  0  2  0  0  0  0  0  0
    5.3331   48.0554   54.3630 C   0  0  0  0  0  2  0  0  0  0  0  0
    5.7227   48.9127   53.1585 C   0  0  0  0  0  2  0  0  0  0  0  0
    3.8128   41.1115   47.7560 O   0  0  0  0  0  0  0  0  0  0  0  0
    2.5647   40.9120   48.3332 C   0  0  0  0  0  0  0  0  0  0  0  0
    1.6584   41.9475   48.2283 C   0  0  0  0  0  3  0  0  0  0  0  0
    2.2503   39.7174   48.9866 C   0  0  0  0  0  3  0  0  0  0  0  0
    0.3993   41.8332   48.7720 C   0  0  0  0  0  3  0  0  0  0  0  0
    0.9805   39.6001   49.5358 C   0  0  0  0  0  3  0  0  0  0  0  0
    0.1002   40.6423   49.4178 C   0  0  0  0  0  3  0  0  0  0  0  0
  1  2  2  0
  2  3  1  0
  4 20  1  0
  4  3  2  0
  5  4  1  0
  6  5  2  0
  6  1  1  0
  7  1  1  0
  7  8  1  0
  8  9  2  0
 10  8  1  0
 10 11  1  0
 12 10  2  0
 13 11  2  0
 14 12  1  0
 14 13  1  0
 15 17  1  0
 15 14  1  0
 16 15  1  0
 18 16  1  0
 18 19  1  0
 19 17  1  0
 21 20  1  0
 21 23  1  0
 22 21  2  0
 24 22  1  0
 24 26  2  0
 25 23  2  0
 26 25  1  0
M  RAD  8   3   2   5   2  11   2  13   2  15   2  16   3  17   3  18   3
M  RAD  6  19   3  22   2  23   2  24   2  25   2  26   2
M  END
>  <REMARK>  (1) 
 SMILES O=C(Nc1ncc(Oc2ccccc2)cn1)c1ccn(C2CCCC2)n1
 SMILES IDX 4 1 5 2 6 3 7 4 15 5 16 6 3 7 2 8 1 9 17 11 18 12 26 13
 SMILES IDX 19 14 20 15 21 16 22 17 25 18 23 19 24 20 8 21 9 22 10 23
 SMILES IDX 14 24 11 25 13 26 12 27
 H PARENT 3 10

>  <TORSDO>  (1) 
F 5

$$$$
