/home/pchatterjee/Documents/git/vs_workflow/DiffDock/diffdock_run/pdbqt_scrubbed/Z3091154570.pdbqt
     RDKit          3D

 26 29  0  0  0  0  0  0  0  0999 V2000
    7.9304   43.9156   50.0302 C   0  0  0  0  0  0  0  0  0  0  0  0
    8.4647   43.1089   49.0839 N   0  0  0  0  0  0  0  0  0  0  0  0
    7.6440   42.2993   48.3677 C   0  0  0  0  0  3  0  0  0  0  0  0
    6.2626   42.2823   48.5874 C   0  0  0  0  0  0  0  0  0  0  0  0
    5.7641   43.1213   49.5617 C   0  0  0  0  0  3  0  0  0  0  0  0
    6.6129   43.9073   50.2481 N   0  0  0  0  0  0  0  0  0  0  0  0
    8.8336   44.7527   50.7613 N   0  0  0  0  0  0  0  0  0  0  0  0
    8.2533   45.7168   51.6275 C   0  0  0  0  0  0  0  0  0  0  0  0
    7.0030   45.9197   51.6889 O   0  0  0  0  0  0  0  0  0  0  0  0
    9.0951   46.5315   52.5022 C   0  0  0  0  0  0  0  0  0  0  0  0
   10.4435   46.3380   52.7021 C   0  0  0  0  0  3  0  0  0  0  0  0
    8.7172   47.5873   53.2491 N   0  0  0  0  0  0  0  0  0  0  0  0
   10.8567   47.3072   53.5878 C   0  0  0  0  0  3  0  0  0  0  0  0
    9.7664   48.0582   53.9028 N   0  0  0  0  0  0  0  0  0  0  0  0
    9.8551   49.1740   54.8206 C   0  0  0  0  0  3  0  0  0  0  0  0
   10.6185   48.7629   56.0596 C   0  0  0  0  0  2  0  0  0  0  0  0
    8.4430   49.4961   55.2724 C   0  0  0  0  0  2  0  0  0  0  0  0
    9.7941   49.4096   57.1736 C   0  0  0  0  0  2  0  0  0  0  0  0
    8.3924   49.0085   56.7132 C   0  0  0  0  0  2  0  0  0  0  0  0
    5.5048   41.4358   47.8213 O   0  0  0  0  0  0  0  0  0  0  0  0
    4.1647   41.1388   48.0371 C   0  0  0  0  0  0  0  0  0  0  0  0
    3.8361   40.6055   49.2667 C   0  0  0  0  0  3  0  0  0  0  0  0
    3.2022   41.3720   47.0510 C   0  0  0  0  0  3  0  0  0  0  0  0
    2.5318   40.2824   49.5635 C   0  0  0  0  0  3  0  0  0  0  0  0
    1.8857   41.0467   47.3485 C   0  0  0  0  0  3  0  0  0  0  0  0
    1.5864   40.5188   48.5760 C   0  0  0  0  0  3  0  0  0  0  0  0
  1  2  2  0
  2  3  1  0
  4 20  1  0
  4  3  2  0
  5  4  1  0
  6  5  2  0
  6  1  1  0
  7  1  1  0
  7  8  1  0
  8  9  2  0
 10  8  1  0
 10 11  1  0
 12 10  2  0
 13 11  2  0
 14 12  1  0
 14 13  1  0
 15 17  1  0
 15 14  1  0
 16 15  1  0
 18 16  1  0
 18 19  1  0
 19 17  1  0
 21 20  1  0
 21 23  1  0
 22 21  2  0
 24 22  1  0
 24 26  2  0
 25 23  2  0
 26 25  1  0
M  RAD  8   3   2   5   2  11   2  13   2  15   2  16   3  17   3  18   3
M  RAD  6  19   3  22   2  23   2  24   2  25   2  26   2
M  END
>  <REMARK>  (1) 
 SMILES O=C(Nc1ncc(Oc2ccccc2)cn1)c1ccn(C2CCCC2)n1
 SMILES IDX 4 1 5 2 6 3 7 4 15 5 16 6 3 7 2 8 1 9 17 11 18 12 26 13
 SMILES IDX 19 14 20 15 21 16 22 17 25 18 23 19 24 20 8 21 9 22 10 23
 SMILES IDX 14 24 11 25 13 26 12 27
 H PARENT 3 10

>  <TORSDO>  (1) 
F 5

$$$$
