/home/pchatterjee/Documents/git/vs_workflow/DiffDock/diffdock_run/pdbqt_scrubbed/Z3091154570.pdbqt
     RDKit          3D

 26 29  0  0  0  0  0  0  0  0999 V2000
   12.0867   84.2426   70.7950 C   0  0  0  0  0  0  0  0  0  0  0  0
   12.0850   84.9556   69.6445 N   0  0  0  0  0  0  0  0  0  0  0  0
   13.2678   85.2381   69.0420 C   0  0  0  0  0  3  0  0  0  0  0  0
   14.4837   84.8087   69.5843 C   0  0  0  0  0  0  0  0  0  0  0  0
   14.4357   84.0854   70.7575 C   0  0  0  0  0  3  0  0  0  0  0  0
   13.2418   83.8277   71.3213 N   0  0  0  0  0  0  0  0  0  0  0  0
   10.8161   83.9679   71.3956 N   0  0  0  0  0  0  0  0  0  0  0  0
   10.7685   83.9563   72.8149 C   0  0  0  0  0  0  0  0  0  0  0  0
   11.6934   84.4383   73.5364 O   0  0  0  0  0  0  0  0  0  0  0  0
    9.6244   83.3744   73.5148 C   0  0  0  0  0  0  0  0  0  0  0  0
    8.3144   83.4746   73.1032 C   0  0  0  0  0  3  0  0  0  0  0  0
    9.6423   82.6563   74.6548 N   0  0  0  0  0  0  0  0  0  0  0  0
    7.5543   82.7968   74.0291 C   0  0  0  0  0  3  0  0  0  0  0  0
    8.4062   82.3062   74.9702 N   0  0  0  0  0  0  0  0  0  0  0  0
    7.9265   81.5354   76.0975 C   0  0  0  0  0  3  0  0  0  0  0  0
    9.0545   80.7103   76.6753 C   0  0  0  0  0  2  0  0  0  0  0  0
    6.9027   80.5508   75.5642 C   0  0  0  0  0  2  0  0  0  0  0  0
    8.3655   79.3728   76.9498 C   0  0  0  0  0  2  0  0  0  0  0  0
    7.6098   79.2049   75.6313 C   0  0  0  0  0  2  0  0  0  0  0  0
   15.6328   85.1361   68.9136 O   0  0  0  0  0  0  0  0  0  0  0  0
   16.9074   84.6863   69.2355 C   0  0  0  0  0  0  0  0  0  0  0  0
   17.5999   85.4081   70.1863 C   0  0  0  0  0  3  0  0  0  0  0  0
   17.4546   83.5566   68.6213 C   0  0  0  0  0  3  0  0  0  0  0  0
   18.8687   85.0317   70.5639 C   0  0  0  0  0  3  0  0  0  0  0  0
   18.7345   83.1751   69.0008 C   0  0  0  0  0  3  0  0  0  0  0  0
   19.4000   83.9086   69.9465 C   0  0  0  0  0  3  0  0  0  0  0  0
  1  2  2  0
  2  3  1  0
  4 20  1  0
  4  3  2  0
  5  4  1  0
  6  5  2  0
  6  1  1  0
  7  1  1  0
  7  8  1  0
  8  9  2  0
 10  8  1  0
 10 11  1  0
 12 10  2  0
 13 11  2  0
 14 12  1  0
 14 13  1  0
 15 17  1  0
 15 14  1  0
 16 15  1  0
 18 16  1  0
 18 19  1  0
 19 17  1  0
 21 20  1  0
 21 23  1  0
 22 21  2  0
 24 22  1  0
 24 26  2  0
 25 23  2  0
 26 25  1  0
M  RAD  8   3   2   5   2  11   2  13   2  15   2  16   3  17   3  18   3
M  RAD  6  19   3  22   2  23   2  24   2  25   2  26   2
M  END
>  <REMARK>  (1) 
 SMILES O=C(Nc1ncc(Oc2ccccc2)cn1)c1ccn(C2CCCC2)n1
 SMILES IDX 4 1 5 2 6 3 7 4 15 5 16 6 3 7 2 8 1 9 17 11 18 12 26 13
 SMILES IDX 19 14 20 15 21 16 22 17 25 18 23 19 24 20 8 21 9 22 10 23
 SMILES IDX 14 24 11 25 13 26 12 27
 H PARENT 3 10

>  <TORSDO>  (1) 
F 5

$$$$
