/home/pchatterjee/Documents/git/vs_workflow/DiffDock/diffdock_run/pdbqt_scrubbed/Z3091154570.pdbqt
     RDKit          3D

 26 29  0  0  0  0  0  0  0  0999 V2000
    7.3537   42.9524   49.8752 C   0  0  0  0  0  0  0  0  0  0  0  0
    6.9774   41.9166   49.0895 N   0  0  0  0  0  0  0  0  0  0  0  0
    5.6572   41.7219   48.8426 C   0  0  0  0  0  3  0  0  0  0  0  0
    4.6817   42.5672   49.3818 C   0  0  0  0  0  0  0  0  0  0  0  0
    5.1127   43.6089   50.1761 C   0  0  0  0  0  3  0  0  0  0  0  0
    6.4307   43.7655   50.3951 N   0  0  0  0  0  0  0  0  0  0  0  0
    8.7567   43.1197   50.1087 N   0  0  0  0  0  0  0  0  0  0  0  0
    9.2469   44.4523   50.1326 C   0  0  0  0  0  0  0  0  0  0  0  0
   10.0905   44.8883   49.2921 O   0  0  0  0  0  0  0  0  0  0  0  0
    8.7867   45.3946   51.1513 C   0  0  0  0  0  0  0  0  0  0  0  0
    9.3412   46.6324   51.3879 C   0  0  0  0  0  3  0  0  0  0  0  0
    7.7679   45.2292   52.0175 N   0  0  0  0  0  0  0  0  0  0  0  0
    8.6245   47.1981   52.4180 C   0  0  0  0  0  3  0  0  0  0  0  0
    7.6637   46.3050   52.7802 N   0  0  0  0  0  0  0  0  0  0  0  0
    6.7274   46.5910   53.8464 C   0  0  0  0  0  3  0  0  0  0  0  0
    5.5084   45.7060   53.7131 C   0  0  0  0  0  2  0  0  0  0  0  0
    6.2474   48.0169   53.6509 C   0  0  0  0  0  2  0  0  0  0  0  0
    4.3699   46.6801   54.0193 C   0  0  0  0  0  2  0  0  0  0  0  0
    4.8150   47.8638   53.1600 C   0  0  0  0  0  2  0  0  0  0  0  0
    3.3710   42.3012   49.0836 O   0  0  0  0  0  0  0  0  0  0  0  0
    2.9069   41.1534   48.4529 C   0  0  0  0  0  0  0  0  0  0  0  0
    2.3490   40.1828   49.2599 C   0  0  0  0  0  3  0  0  0  0  0  0
    3.0041   40.9972   47.0676 C   0  0  0  0  0  3  0  0  0  0  0  0
    1.8644   39.0148   48.7170 C   0  0  0  0  0  3  0  0  0  0  0  0
    2.5158   39.8195   46.5178 C   0  0  0  0  0  3  0  0  0  0  0  0
    1.9671   38.8725   47.3407 C   0  0  0  0  0  3  0  0  0  0  0  0
  1  2  2  0
  2  3  1  0
  4 20  1  0
  4  3  2  0
  5  4  1  0
  6  5  2  0
  6  1  1  0
  7  1  1  0
  7  8  1  0
  8  9  2  0
 10  8  1  0
 10 11  1  0
 12 10  2  0
 13 11  2  0
 14 12  1  0
 14 13  1  0
 15 17  1  0
 15 14  1  0
 16 15  1  0
 18 16  1  0
 18 19  1  0
 19 17  1  0
 21 20  1  0
 21 23  1  0
 22 21  2  0
 24 22  1  0
 24 26  2  0
 25 23  2  0
 26 25  1  0
M  RAD  8   3   2   5   2  11   2  13   2  15   2  16   3  17   3  18   3
M  RAD  6  19   3  22   2  23   2  24   2  25   2  26   2
M  END
>  <REMARK>  (1) 
 SMILES O=C(Nc1ncc(Oc2ccccc2)cn1)c1ccn(C2CCCC2)n1
 SMILES IDX 4 1 5 2 6 3 7 4 15 5 16 6 3 7 2 8 1 9 17 11 18 12 26 13
 SMILES IDX 19 14 20 15 21 16 22 17 25 18 23 19 24 20 8 21 9 22 10 23
 SMILES IDX 14 24 11 25 13 26 12 27
 H PARENT 3 10

>  <TORSDO>  (1) 
F 5

$$$$
