/home/pchatterjee/Documents/git/vs_workflow/DiffDock/diffdock_run/pdbqt_scrubbed/118704754.pdbqt
 OpenBabel10272516423D

 31 34  0  0  1  0  0  0  0  0999 V2000
    1.1470   -1.1120   -2.1950 N   0  0  0  0  0  0  0  0  0  0  0  0
    1.7900   -1.6260   -2.7810 H   0  0  0  0  0  0  0  0  0  0  0  0
    0.8980    0.2210   -2.5380 C   0  0  0  0  0  0  0  0  0  0  0  0
    0.4800    2.8880   -3.3460 C   0  0  0  0  0  0  0  0  0  0  0  0
    1.2860    2.0520   -4.1170 C   0  0  0  0  0  3  0  0  0  0  0  0
   -0.1390    2.4040   -2.1940 C   0  0  0  0  0  3  0  0  0  0  0  0
    1.4920    0.7310   -3.7070 C   0  0  0  0  0  3  0  0  0  0  0  0
    0.0770    1.0790   -1.7980 C   0  0  0  0  0  3  0  0  0  0  0  0
    0.1960    4.5690   -3.8620 S   0  0  0  0  0  0  0  0  0  0  0  0
   -1.0890    4.9720   -3.3200 O   0  0  0  0  0  0  0  0  0  0  0  0
    0.4390    4.6200   -5.2920 O   0  0  0  0  0  0  0  0  0  0  0  0
    1.4850    5.4120   -3.0560 C   0  0  0  0  0  3  0  0  0  0  0  0
    1.3020    5.9560   -1.8460 C   0  0  0  0  0  2  0  0  0  0  0  0
    0.7220   -1.9550   -1.1660 C   0  0  1  0  0  3  0  0  0  0  0  0
   -0.1610   -1.5280   -0.2390 N   0  0  0  0  0  0  0  0  0  0  0  0
    1.2650   -3.1790   -1.2100 N   0  0  0  0  0  0  0  0  0  0  0  0
   -0.5570   -2.3660    0.7370 C   0  0  0  0  0  0  0  0  0  0  0  0
    0.8630   -4.0000   -0.2290 C   0  0  0  0  0  0  0  0  0  0  0  0
   -0.0340   -3.6300    0.7470 C   0  0  2  0  0  3  0  0  0  0  0  0
    1.2710   -5.2950   -0.0490 N   0  0  0  0  0  0  0  0  0  0  0  0
   -0.1770   -4.7310    1.5400 N   0  0  0  0  0  0  0  0  0  0  0  0
    0.6280   -5.7090    1.0220 C   0  0  0  0  0  3  0  0  0  0  0  0
   -0.7690   -4.8050    2.3560 H   0  0  0  0  0  0  0  0  0  0  0  0
   -1.4570   -1.9760    1.7040 O   0  0  0  0  0  0  0  0  0  0  0  0
   -1.9280   -0.6360    1.5200 C   0  0  0  0  0  2  0  0  0  0  0  0
   -2.9250   -0.3010    2.6450 C   0  0  0  0  0  3  0  0  0  0  0  0
   -2.2790   -0.3590    4.0410 C   0  0  0  0  0  2  0  0  0  0  0  0
   -3.5850    1.0670    2.4180 C   0  0  0  0  0  2  0  0  0  0  0  0
   -1.3310    0.8090    4.3080 C   0  0  0  0  0  2  0  0  0  0  0  0
   -2.6380    2.2370    2.6790 C   0  0  0  0  0  2  0  0  0  0  0  0
   -2.0110    2.1530    4.0670 C   0  0  0  0  0  2  0  0  0  0  0  0
  2  1  1  0  0  0  0
  3  1  1  0  0  0  0
  3  8  1  0  0  0  0
  4  6  1  0  0  0  0
  5  7  1  0  0  0  0
  5  4  2  0  0  0  0
  6  8  2  0  0  0  0
  7  3  2  0  0  0  0
  9  4  1  0  0  0  0
  9 10  2  0  0  0  0
  9 12  1  0  0  0  0
 11  9  2  0  0  0  0
 12 13  2  0  0  0  0
 14  1  1  6  0  0  0
 14 15  1  0  0  0  0
 15 17  2  0  0  0  0
 16 14  1  0  0  0  0
 16 18  2  0  0  0  0
 17 19  1  0  0  0  0
 17 24  1  0  0  0  0
 18 20  1  0  0  0  0
 19 18  1  6  0  0  0
 19 21  1  0  0  0  0
 20 22  2  0  0  0  0
 21 23  1  0  0  0  0
 22 21  1  0  0  0  0
 25 24  1  0  0  0  0
 25 26  1  0  0  0  0
 26 27  1  0  0  0  0
 27 29  1  0  0  0  0
 28 26  1  0  0  0  0
 28 30  1  0  0  0  0
 30 31  1  0  0  0  0
 31 29  1  0  0  0  0
M  END
>  <REMARK>
 SMILES C=CS(=O)(=O)c1ccc(Nc2nc(OCC3CCCCC3)c3[nH]cnc3n2)cc1
 SMILES IDX 10 1 9 3 6 4 7 5 29 6 8 7 28 8 3 9 4 10 5 11 2 12 1 13 11 14
 SMILES IDX 12 15 27 16 13 17 26 18 22 19 25 20 23 21 24 22 14 24 15 25
 SMILES IDX 16 26 17 27 21 28 18 29 20 30 19 31
 H PARENT 10 2 23 23

>  <TORSDO>
F 7

$$$$
