/home/pchatterjee/Documents/git/vs_workflow/DiffDock/diffdock_run/pdbqt_scrubbed/122199241.pdbqt
 OpenBabel10272516423D

 31 34  0  0  1  0  0  0  0  0999 V2000
    1.3270   -0.8570   -0.4310 C   0  0  0  0  0  0  0  0  0  0  0  0
    0.5530    0.2470   -0.5370 N   0  0  0  0  0  0  0  0  0  0  0  0
    0.2340    0.7200   -1.7570 C   0  0  0  0  0  0  0  0  0  0  0  0
    0.7090    0.0430   -2.8480 C   0  0  1  0  0  3  0  0  0  0  0  0
    0.6030    0.1910   -4.2000 N   0  0  0  0  0  0  0  0  0  0  0  0
    1.3190   -0.8250   -4.7760 C   0  0  0  0  0  2  0  0  0  0  0  0
    1.8710   -1.6050   -3.8710 N   0  0  0  0  0  0  0  0  0  0  0  0
    1.4950   -1.0720   -2.6670 C   0  0  0  0  0  0  0  0  0  0  0  0
    1.8280   -1.5490   -1.4600 N   0  0  0  0  0  0  0  0  0  0  0  0
    0.0920    0.9170   -4.6830 H   0  0  0  0  0  0  0  0  0  0  0  0
    1.6000   -1.2320    0.8850 N   0  0  0  0  0  0  0  0  0  0  0  0
    1.1690   -0.5720    1.5160 H   0  0  0  0  0  0  0  0  0  0  0  0
    2.2730   -2.3170    1.4600 C   0  0  0  0  0  0  0  0  0  0  0  0
    3.4490   -4.4570    1.3420 C   0  0  0  0  0  0  0  0  0  0  0  0
    3.7000   -4.4010    2.7170 C   0  0  0  0  0  3  0  0  0  0  0  0
    2.7290   -3.4210    0.7280 C   0  0  0  0  0  3  0  0  0  0  0  0
    3.2550   -3.3130    3.4620 C   0  0  0  0  0  3  0  0  0  0  0  0
    2.5550   -2.2800    2.8350 C   0  0  0  0  0  3  0  0  0  0  0  0
    3.9560   -5.6360    0.5840 C   0  0  0  0  0  0  0  0  0  0  0  0
    4.0030   -5.5530   -0.7800 N   0  0  0  0  0  0  0  0  0  0  0  0
    4.4330   -6.3280   -1.2680 H   0  0  0  0  0  0  0  0  0  0  0  0
    3.8670   -4.6950   -1.2960 H   0  0  0  0  0  0  0  0  0  0  0  0
    4.3500   -6.6450    1.1580 O   0  0  0  0  0  0  0  0  0  0  0  0
   -0.5650    1.8260   -1.9270 O   0  0  0  0  0  0  0  0  0  0  0  0
   -0.9680    2.4970   -0.7290 C   0  0  0  0  0  2  0  0  0  0  0  0
   -2.4820    2.3420   -0.5170 C   0  0  0  0  0  3  0  0  0  0  0  0
   -2.9580    3.2600    0.6240 C   0  0  0  0  0  2  0  0  0  0  0  0
   -2.8960    0.8890   -0.2550 C   0  0  0  0  0  2  0  0  0  0  0  0
   -4.2650    2.8080    1.2800 C   0  0  0  0  0  2  0  0  0  0  0  0
   -4.4160    0.7330   -0.1440 C   0  0  0  0  0  2  0  0  0  0  0  0
   -5.1310    1.9990    0.3270 C   0  0  0  0  0  2  0  0  0  0  0  0
  1 11  1  0  0  0  0
  2  1  1  0  0  0  0
  3  2  2  0  0  0  0
  4  8  1  6  0  0  0
  4  3  1  0  0  0  0
  5  4  1  0  0  0  0
  6  5  1  0  0  0  0
  6  7  1  0  0  0  0
  7  8  2  0  0  0  0
  8  9  1  0  0  0  0
  9  1  2  0  0  0  0
 10  5  1  0  0  0  0
 11 13  1  0  0  0  0
 11 12  1  0  0  0  0
 13 18  1  0  0  0  0
 14 15  2  0  0  0  0
 15 17  1  0  0  0  0
 16 14  1  0  0  0  0
 16 13  2  0  0  0  0
 18 17  2  0  0  0  0
 19 23  2  0  0  0  0
 19 14  1  0  0  0  0
 20 19  1  0  0  0  0
 21 20  1  0  0  0  0
 22 20  1  0  0  0  0
 24  3  1  0  0  0  0
 24 25  1  0  0  0  0
 25 26  1  0  0  0  0
 26 28  1  0  0  0  0
 26 27  1  0  0  0  0
 27 29  1  0  0  0  0
 28 30  1  0  0  0  0
 30 31  1  0  0  0  0
 31 29  1  0  0  0  0
M  END
>  <REMARK>
 SMILES NC(=O)c1cccc(Nc2nc(OCC3CCCCC3)c3[nH]cnc3n2)c1
 SMILES IDX 10 1 11 2 12 3 21 4 22 5 23 6 24 7 25 8 26 9 9 11 8 13 4 14
 SMILES IDX 5 15 27 16 6 17 7 18 2 19 1 20 3 23 13 24 14 25 15 26 16 27
 SMILES IDX 20 28 17 29 19 30 18 31
 H PARENT 22 10 9 12 1 21 1 22

>  <TORSDO>
F 6

$$$$
