/home/pchatterjee/Documents/git/vs_workflow/DiffDock/diffdock_run/pdbqt_scrubbed/123658957.pdbqt
 OpenBabel10272516423D

 29 32  0  0  1  0  0  0  0  0999 V2000
    2.7260    0.0810    1.0590 C   0  0  2  0  0  3  0  0  0  0  0  0
    3.4760    1.1870    1.0340 N   0  0  0  0  0  0  0  0  0  0  0  0
    2.8180    2.2790    0.6090 C   0  0  0  0  0  0  0  0  0  0  0  0
    3.3510    3.5200    0.4680 N   0  0  0  0  0  0  0  0  0  0  0  0
    2.3670    4.2760    0.0330 C   0  0  0  0  0  3  0  0  0  0  0  0
    1.2080    3.5600   -0.1120 N   0  0  0  0  0  0  0  0  0  0  0  0
    1.4820    2.2680    0.2560 C   0  0  0  0  0  0  0  0  0  0  0  0
    0.7460    1.1040    0.3360 C   0  0  0  0  0  0  0  0  0  0  0  0
    1.4270    0.0340    0.7450 N   0  0  0  0  0  0  0  0  0  0  0  0
    0.3200    3.9310   -0.4290 H   0  0  0  0  0  0  0  0  0  0  0  0
    0.9830   -0.8660    0.8620 H   0  0  0  0  0  0  0  0  0  0  0  0
    3.3230   -1.0990    1.5050 N   0  0  0  0  0  0  0  0  0  0  0  0
    4.2910   -0.8920    1.7670 H   0  0  0  0  0  0  0  0  0  0  0  0
    3.1770   -2.4140    1.0220 C   0  0  0  0  0  0  0  0  0  0  0  0
    2.9160   -5.0750    0.1710 C   0  0  0  0  0  0  0  0  0  0  0  0
    2.5680   -4.0350   -0.6860 C   0  0  0  0  0  3  0  0  0  0  0  0
    3.4050   -4.8020    1.4430 C   0  0  0  0  0  0  0  0  0  0  0  0
    2.6990   -2.7080   -0.2650 C   0  0  0  0  0  3  0  0  0  0  0  0
    3.5410   -3.4760    1.8640 C   0  0  0  0  0  3  0  0  0  0  0  0
    2.7720   -6.3360   -0.2570 F   0  0  0  0  0  0  0  0  0  0  0  0
    3.8390   -6.0760    2.5120 Cl  0  0  0  0  0  0  0  0  0  0  0  0
   -0.5820    1.1300   -0.0170 O   0  0  0  0  0  0  0  0  0  0  0  0
   -1.3440   -0.0310    0.2980 C   0  0  0  0  0  2  0  0  0  0  0  0
   -2.8380    0.1670   -0.0270 C   0  0  0  0  0  3  0  0  0  0  0  0
   -3.4960    1.2660    0.8250 C   0  0  0  0  0  2  0  0  0  0  0  0
   -3.1020    0.3910   -1.5260 C   0  0  0  0  0  2  0  0  0  0  0  0
   -3.2400    2.6880    0.3310 C   0  0  0  0  0  2  0  0  0  0  0  0
   -2.8500    1.8180   -2.0070 C   0  0  0  0  0  2  0  0  0  0  0  0
   -3.5780    2.8430   -1.1470 C   0  0  0  0  0  2  0  0  0  0  0  0
  1 12  1  1  0  0  0
  2  1  1  0  0  0  0
  3  2  2  0  0  0  0
  4  3  1  0  0  0  0
  5  4  2  0  0  0  0
  6  5  1  0  0  0  0
  6  7  1  0  0  0  0
  7  8  2  0  0  0  0
  7  3  1  0  0  0  0
  8  9  1  0  0  0  0
  9 11  1  0  0  0  0
  9  1  1  0  0  0  0
 10  6  1  0  0  0  0
 12 13  1  0  0  0  0
 14 12  1  0  0  0  0
 14 19  1  0  0  0  0
 15 17  1  0  0  0  0
 16 18  1  0  0  0  0
 16 15  2  0  0  0  0
 17 19  2  0  0  0  0
 17 21  1  0  0  0  0
 18 14  2  0  0  0  0
 20 15  1  0  0  0  0
 22 23  1  0  0  0  0
 22  8  1  0  0  0  0
 24 23  1  0  0  0  0
 24 25  1  0  0  0  0
 26 24  1  0  0  0  0
 27 25  1  0  0  0  0
 28 26  1  0  0  0  0
 28 29  1  0  0  0  0
 29 27  1  0  0  0  0
M  END
>  <REMARK>
 SMILES Fc1ccc(Nc2nc3nc[nH]c3c(OCC3CCCCC3)[nH+]2)cc1Cl
 SMILES IDX 7 1 8 2 9 3 10 4 11 5 12 6 13 7 14 8 23 9 6 12 5 14 2 15
 SMILES IDX 3 16 25 17 4 18 24 19 1 20 26 21 15 22 16 23 17 24 18 25
 SMILES IDX 22 26 19 27 21 28 20 29
 H PARENT 12 10 23 11 6 13

>  <TORSDO>
F 5

$$$$
