/home/pchatterjee/Documents/git/vs_workflow/DiffDock/diffdock_run/pdbqt_scrubbed/123953120.pdbqt
 OpenBabel10272516423D

 28 31  0  0  1  0  0  0  0  0999 V2000
    1.3770    2.0940    1.7910 C   0  0  1  0  0  3  0  0  0  0  0  0
    0.6270    2.7530    2.6840 N   0  0  0  0  0  0  0  0  0  0  0  0
   -0.5450    2.1550    2.9640 C   0  0  0  0  0  0  0  0  0  0  0  0
   -1.4710    2.6020    3.8530 N   0  0  0  0  0  0  0  0  0  0  0  0
   -2.4500    1.7200    3.8100 C   0  0  0  0  0  3  0  0  0  0  0  0
   -2.1820    0.7080    2.9250 N   0  0  0  0  0  0  0  0  0  0  0  0
   -0.9650    0.9840    2.3550 C   0  0  0  0  0  0  0  0  0  0  0  0
   -0.1730    0.3880    1.3980 C   0  0  0  0  0  0  0  0  0  0  0  0
    1.0000    0.9720    1.1720 N   0  0  0  0  0  0  0  0  0  0  0  0
   -2.7920   -0.0760    2.7220 H   0  0  0  0  0  0  0  0  0  0  0  0
    1.6400    0.5770    0.4940 H   0  0  0  0  0  0  0  0  0  0  0  0
    2.6010    2.6600    1.4230 N   0  0  0  0  0  0  0  0  0  0  0  0
    2.7370    3.5350    1.9380 H   0  0  0  0  0  0  0  0  0  0  0  0
    3.8210    2.0310    1.1210 C   0  0  0  0  0  0  0  0  0  0  0  0
    6.2890    0.8880    0.4700 C   0  0  0  0  0  0  0  0  0  0  0  0
    5.9830    2.1620    0.0110 C   0  0  0  0  0  3  0  0  0  0  0  0
    5.3880    0.1770    1.2540 C   0  0  0  0  0  3  0  0  0  0  0  0
    4.7550    2.7340    0.3440 C   0  0  0  0  0  3  0  0  0  0  0  0
    4.1550    0.7470    1.5830 C   0  0  0  0  0  3  0  0  0  0  0  0
    7.4660    0.3370    0.1570 F   0  0  0  0  0  0  0  0  0  0  0  0
   -0.5130   -0.7900    0.7880 O   0  0  0  0  0  0  0  0  0  0  0  0
   -1.2770   -0.5370   -0.4060 C   0  0  0  0  0  2  0  0  0  0  0  0
   -2.0010   -1.8330   -0.8080 C   0  0  0  0  0  3  0  0  0  0  0  0
   -2.9480   -1.5850   -1.9900 C   0  0  0  0  0  2  0  0  0  0  0  0
   -1.0080   -2.9610   -1.1320 C   0  0  0  0  0  2  0  0  0  0  0  0
   -3.6640   -2.8660   -2.4100 C   0  0  0  0  0  2  0  0  0  0  0  0
   -1.7240   -4.2380   -1.5660 C   0  0  0  0  0  2  0  0  0  0  0  0
   -2.6760   -3.9830   -2.7310 C   0  0  0  0  0  2  0  0  0  0  0  0
  1 12  1  6  0  0  0
  1  2  1  0  0  0  0
  2  3  2  0  0  0  0
  3  4  1  0  0  0  0
  5  4  2  0  0  0  0
  6  5  1  0  0  0  0
  7  6  1  0  0  0  0
  7  3  1  0  0  0  0
  8  7  2  0  0  0  0
  9  8  1  0  0  0  0
  9  1  1  0  0  0  0
 10  6  1  0  0  0  0
 11  9  1  0  0  0  0
 12 13  1  0  0  0  0
 14 12  1  0  0  0  0
 14 19  1  0  0  0  0
 15 17  1  0  0  0  0
 16 18  1  0  0  0  0
 16 15  2  0  0  0  0
 17 19  2  0  0  0  0
 18 14  2  0  0  0  0
 20 15  1  0  0  0  0
 21  8  1  0  0  0  0
 22 21  1  0  0  0  0
 23 22  1  0  0  0  0
 24 23  1  0  0  0  0
 25 23  1  0  0  0  0
 26 24  1  0  0  0  0
 27 25  1  0  0  0  0
 28 26  1  0  0  0  0
 28 27  1  0  0  0  0
M  END
>  <REMARK>
 SMILES Fc1ccc(Nc2nc3nc[nH]c3c(OCC3CCCCC3)[nH+]2)cc1
 SMILES IDX 7 1 8 2 9 3 10 4 11 5 12 6 13 7 14 8 23 9 6 12 5 14 2 15
 SMILES IDX 3 16 25 17 4 18 24 19 1 20 15 21 16 22 17 23 18 24 22 25
 SMILES IDX 19 26 21 27 20 28
 H PARENT 12 10 23 11 6 13

>  <TORSDO>
F 5

$$$$
