/home/pchatterjee/Documents/git/vs_workflow/DiffDock/diffdock_run/pdbqt_scrubbed/123920449.pdbqt
 OpenBabel10272516423D

 28 31  0  0  1  0  0  0  0  0999 V2000
    1.6680   -2.0020    0.1260 C   0  0  1  0  0  3  0  0  0  0  0  0
    2.9940   -1.9280    0.2940 N   0  0  0  0  0  0  0  0  0  0  0  0
    3.5160   -0.7200    0.0070 C   0  0  0  0  0  0  0  0  0  0  0  0
    4.8340   -0.3960    0.0760 N   0  0  0  0  0  0  0  0  0  0  0  0
    4.9080    0.8520   -0.3220 C   0  0  0  0  0  3  0  0  0  0  0  0
    3.6750    1.3580   -0.6370 N   0  0  0  0  0  0  0  0  0  0  0  0
    2.7580    0.3600   -0.4150 C   0  0  0  0  0  0  0  0  0  0  0  0
    1.3910    0.2220   -0.5450 C   0  0  0  0  0  0  0  0  0  0  0  0
    0.9110   -0.9900   -0.2970 N   0  0  0  0  0  0  0  0  0  0  0  0
    3.5010    2.2930   -0.9940 H   0  0  0  0  0  0  0  0  0  0  0  0
   -0.0700   -1.1740   -0.4770 H   0  0  0  0  0  0  0  0  0  0  0  0
    1.0590   -3.2360    0.3270 N   0  0  0  0  0  0  0  0  0  0  0  0
    1.7610   -3.9500    0.5210 H   0  0  0  0  0  0  0  0  0  0  0  0
   -0.2370   -3.5780    0.7400 C   0  0  0  0  0  0  0  0  0  0  0  0
   -2.3910   -3.0760    1.7220 C   0  0  0  0  0  0  0  0  0  0  0  0
   -2.8710   -4.3360    1.3920 C   0  0  0  0  0  3  0  0  0  0  0  0
   -1.0910   -2.6910    1.4050 C   0  0  0  0  0  3  0  0  0  0  0  0
   -2.0300   -5.2350    0.7450 C   0  0  0  0  0  3  0  0  0  0  0  0
   -0.7250   -4.8550    0.4210 C   0  0  0  0  0  3  0  0  0  0  0  0
   -3.1880   -2.2000    2.3490 F   0  0  0  0  0  0  0  0  0  0  0  0
    0.5380    1.1960   -1.0030 O   0  0  0  0  0  0  0  0  0  0  0  0
    0.5150    2.3530   -0.1520 C   0  0  0  0  0  2  0  0  0  0  0  0
   -0.9360    2.8540   -0.0480 C   0  0  0  0  0  3  0  0  0  0  0  0
   -1.0000    4.2520    0.5790 C   0  0  0  0  0  2  0  0  0  0  0  0
   -1.8330    1.8740    0.7260 C   0  0  0  0  0  2  0  0  0  0  0  0
   -0.7030    4.2430    2.0770 C   0  0  0  0  0  2  0  0  0  0  0  0
   -1.5600    1.8690    2.2300 C   0  0  0  0  0  2  0  0  0  0  0  0
   -1.6140    3.2740    2.8200 C   0  0  0  0  0  2  0  0  0  0  0  0
  1  2  1  0  0  0  0
  1 12  1  6  0  0  0
  3  4  1  0  0  0  0
  3  2  2  0  0  0  0
  5  4  2  0  0  0  0
  6  7  1  0  0  0  0
  6  5  1  0  0  0  0
  7  3  1  0  0  0  0
  8  7  2  0  0  0  0
  8  9  1  0  0  0  0
  9  1  1  0  0  0  0
 10  6  1  0  0  0  0
 11  9  1  0  0  0  0
 12 13  1  0  0  0  0
 12 14  1  0  0  0  0
 14 17  1  0  0  0  0
 15 20  1  0  0  0  0
 16 15  1  0  0  0  0
 17 15  2  0  0  0  0
 18 16  2  0  0  0  0
 19 14  2  0  0  0  0
 19 18  1  0  0  0  0
 21  8  1  0  0  0  0
 21 22  1  0  0  0  0
 22 23  1  0  0  0  0
 23 24  1  0  0  0  0
 23 25  1  0  0  0  0
 24 26  1  0  0  0  0
 25 27  1  0  0  0  0
 26 28  1  0  0  0  0
 27 28  1  0  0  0  0
M  END
>  <REMARK>
 SMILES Fc1cccc(Nc2nc3nc[nH]c3c(OCC3CCCCC3)[nH+]2)c1
 SMILES IDX 8 1 9 2 10 3 11 4 12 5 13 6 14 7 15 8 24 9 7 12 6 14 2 15
 SMILES IDX 3 16 25 17 4 18 5 19 1 20 16 21 17 22 18 23 19 24 23 25
 SMILES IDX 20 26 22 27 21 28
 H PARENT 13 10 24 11 7 13

>  <TORSDO>
F 5

$$$$
