/home/pchatterjee/Documents/git/vs_workflow/DiffDock/diffdock_run/pdbqt_scrubbed/149664.pdbqt
 OpenBabel10272516423D

 24 26  0  0  1  0  0  0  0  0999 V2000
   -1.9480    2.3210   -2.2850 C   0  0  0  0  0  0  0  0  0  0  0  0
   -1.2430    1.1650   -2.6310 C   0  0  0  0  0  3  0  0  0  0  0  0
   -0.5430    0.4360   -1.6610 C   0  0  0  0  0  3  0  0  0  0  0  0
   -0.5240    0.8380   -0.3230 C   0  0  0  0  0  0  0  0  0  0  0  0
   -1.2340    2.0020    0.0120 C   0  0  0  0  0  3  0  0  0  0  0  0
   -1.9370    2.7350   -0.9510 C   0  0  0  0  0  3  0  0  0  0  0  0
   -2.7080    3.1010   -3.3290 C   0  0  0  0  0  2  0  0  0  0  0  0
   -4.2300    2.9630   -3.2180 C   0  0  0  0  0  2  0  0  0  0  0  0
   -4.7300    1.5540   -3.5480 C   0  0  0  0  0  2  0  0  0  0  0  0
   -6.2480    1.4820   -3.5130 C   0  0  0  0  0  1  0  0  0  0  0  0
    0.1550    0.1560    0.6920 N   0  0  0  0  0  0  0  0  0  0  0  0
    0.0950    0.5460    1.6210 H   0  0  0  0  0  0  0  0  0  0  0  0
    0.9380   -0.9980    0.7340 C   0  0  1  0  0  3  0  0  0  0  0  0
    1.4030   -1.2900    1.9710 N   0  0  0  0  0  0  0  0  0  0  0  0
    1.1780   -1.7150   -0.3680 N   0  0  0  0  0  0  0  0  0  0  0  0
    2.1730   -2.3810    2.1490 C   0  0  0  0  0  0  0  0  0  0  0  0
    1.9450   -2.7970   -0.1750 C   0  0  0  0  0  0  0  0  0  0  0  0
    2.4520   -3.1540    1.0540 C   0  0  1  0  0  3  0  0  0  0  0  0
    2.3340   -3.6900   -1.1380 N   0  0  0  0  0  0  0  0  0  0  0  0
    3.1670   -4.2940    0.8310 N   0  0  0  0  0  0  0  0  0  0  0  0
    3.0680   -4.5790   -0.5040 C   0  0  0  0  0  3  0  0  0  0  0  0
    3.6750   -4.8250    1.5260 H   0  0  0  0  0  0  0  0  0  0  0  0
    2.6700   -2.7220    3.3880 O   0  0  0  0  0  0  0  0  0  0  0  0
    2.2800   -1.8070    4.4080 C   0  0  0  0  0  1  0  0  0  0  0  0
  1  6  1  0  0  0  0
  2  1  2  0  0  0  0
  2  3  1  0  0  0  0
  3  4  2  0  0  0  0
  4  5  1  0  0  0  0
  4 11  1  0  0  0  0
  6  5  2  0  0  0  0
  7  8  1  0  0  0  0
  7  1  1  0  0  0  0
  9 10  1  0  0  0  0
  9  8  1  0  0  0  0
 11 12  1  0  0  0  0
 13 11  1  1  0  0  0
 13 14  1  0  0  0  0
 14 16  2  0  0  0  0
 15 17  2  0  0  0  0
 15 13  1  0  0  0  0
 16 23  1  0  0  0  0
 18 17  1  6  0  0  0
 18 16  1  0  0  0  0
 19 21  2  0  0  0  0
 19 17  1  0  0  0  0
 20 18  1  0  0  0  0
 20 22  1  0  0  0  0
 21 20  1  0  0  0  0
 23 24  1  0  0  0  0
M  END
>  <REMARK>
 SMILES CCCCc1ccc(Nc2nc(OC)c3[nH]cnc3n2)cc1
 SMILES IDX 5 1 6 2 7 3 8 4 21 5 22 6 4 7 3 8 2 9 1 10 9 11 10 13 11 14
 SMILES IDX 20 15 12 16 19 17 15 18 18 19 16 20 17 21 13 23 14 24
 H PARENT 9 12 16 22

>  <TORSDO>
F 6

$$$$
