/home/pchatterjee/Documents/git/vs_workflow/DiffDock/diffdock_run/pdbqt_scrubbed/447655.pdbqt
 OpenBabel10272516423D

 32 35  0  0  1  0  0  0  0  0999 V2000
    2.0830   -0.7180    0.0740 N   0  0  0  0  0  0  0  0  0  0  0  0
    2.8870   -1.3300    0.0310 H   0  0  0  0  0  0  0  0  0  0  0  0
    2.3180    0.6550   -0.0420 C   0  0  0  0  0  0  0  0  0  0  0  0
    3.8940    2.4480   -0.5290 C   0  0  0  0  0  0  0  0  0  0  0  0
    2.9020    3.4110   -0.3520 C   0  0  0  0  0  3  0  0  0  0  0  0
    3.6130    1.0860   -0.3680 C   0  0  0  0  0  3  0  0  0  0  0  0
    1.6140    2.9970   -0.0330 C   0  0  0  0  0  3  0  0  0  0  0  0
    1.3290    1.6340    0.1130 C   0  0  0  0  0  3  0  0  0  0  0  0
    5.5380    2.9620   -0.9420 S   0  0  0  0  0  0  0  0  0  0  0  0
    5.7470    4.2920   -0.4230 O   0  0  0  0  0  0  0  0  0  0  0  0
    6.4440    1.8690   -0.6710 O   0  0  0  0  0  0  0  0  0  0  0  0
    5.4440    3.0670   -2.6200 N   0  0  0  0  0  0  0  0  0  0  0  0
    6.0710    2.3720   -3.0290 H   0  0  0  0  0  0  0  0  0  0  0  0
    4.4930    2.9780   -2.9770 H   0  0  0  0  0  0  0  0  0  0  0  0
    0.9500   -1.5050    0.2890 C   0  0  1  0  0  3  0  0  0  0  0  0
   -0.2740   -0.9470    0.4040 N   0  0  0  0  0  0  0  0  0  0  0  0
    1.2080   -2.8180    0.3440 N   0  0  0  0  0  0  0  0  0  0  0  0
   -1.3490   -1.7350    0.5880 C   0  0  0  0  0  0  0  0  0  0  0  0
    0.1260   -3.5900    0.5230 C   0  0  0  0  0  0  0  0  0  0  0  0
   -1.1500   -3.0880    0.6430 C   0  0  1  0  0  3  0  0  0  0  0  0
    0.1200   -4.9570    0.6050 N   0  0  0  0  0  0  0  0  0  0  0  0
   -1.9520   -4.1790    0.8020 N   0  0  0  0  0  0  0  0  0  0  0  0
   -1.1440   -5.2830    0.7730 C   0  0  0  0  0  3  0  0  0  0  0  0
   -2.9560   -4.1680    0.9190 H   0  0  0  0  0  0  0  0  0  0  0  0
   -2.6220   -1.2180    0.6910 O   0  0  0  0  0  0  0  0  0  0  0  0
   -2.6800    0.2100    0.7630 C   0  0  0  0  0  2  0  0  0  0  0  0
   -2.7030    0.8550   -0.6320 C   0  0  0  0  0  3  0  0  0  0  0  0
   -3.8640    0.3100   -1.4880 C   0  0  0  0  0  2  0  0  0  0  0  0
   -2.7680    2.3810   -0.5320 C   0  0  0  0  0  2  0  0  0  0  0  0
   -4.3100    1.2690   -2.5960 C   0  0  0  0  0  2  0  0  0  0  0  0
   -2.6510    3.0460   -1.9060 C   0  0  0  0  0  2  0  0  0  0  0  0
   -3.1810    2.1830   -3.0520 C   0  0  0  0  0  2  0  0  0  0  0  0
  2  1  1  0  0  0  0
  3  1  1  0  0  0  0
  3  8  1  0  0  0  0
  4  6  1  0  0  0  0
  4  5  2  0  0  0  0
  5  7  1  0  0  0  0
  6  3  2  0  0  0  0
  7  8  2  0  0  0  0
  9 11  2  0  0  0  0
  9  4  1  0  0  0  0
  9 10  2  0  0  0  0
 12  9  1  0  0  0  0
 13 12  1  0  0  0  0
 14 12  1  0  0  0  0
 15  1  1  6  0  0  0
 15 17  1  0  0  0  0
 15 16  1  0  0  0  0
 16 18  2  0  0  0  0
 17 19  2  0  0  0  0
 18 20  1  0  0  0  0
 18 25  1  0  0  0  0
 19 21  1  0  0  0  0
 20 19  1  1  0  0  0
 20 22  1  0  0  0  0
 21 23  2  0  0  0  0
 22 24  1  0  0  0  0
 23 22  1  0  0  0  0
 25 26  1  0  0  0  0
 27 29  1  0  0  0  0
 27 26  1  0  0  0  0
 28 27  1  0  0  0  0
 30 28  1  0  0  0  0
 31 29  1  0  0  0  0
 32 30  1  0  0  0  0
 32 31  1  0  0  0  0
M  END
>  <REMARK>
 SMILES NS(=O)(=O)c1cccc(Nc2nc(OCC3CCCCC3)c3[nH]cnc3n2)c1
 SMILES IDX 10 1 9 3 5 4 6 5 28 6 7 7 8 8 2 9 3 10 4 11 1 12 11 15 12 16
 SMILES IDX 27 17 13 18 26 19 22 20 25 21 23 22 24 23 14 25 15 26 16 27
 SMILES IDX 17 28 21 29 18 30 20 31 19 32
 H PARENT 10 2 1 13 1 14 23 24

>  <TORSDO>
F 7

$$$$
