/home/pchatterjee/Documents/git/vs_workflow/DiffDock/diffdock_run/pdbqt_scrubbed/4565.pdbqt
 OpenBabel10272516423D

 27 30  0  0  1  0  0  0  0  0999 V2000
   -0.8230   -1.3120   -2.0940 C   0  0  0  0  0  0  0  0  0  0  0  0
   -0.5000   -0.7950   -0.8900 N   0  0  0  0  0  0  0  0  0  0  0  0
    0.0470    0.4330   -0.8220 C   0  0  0  0  0  0  0  0  0  0  0  0
    0.2540    1.1100   -1.9930 C   0  0  1  0  0  3  0  0  0  0  0  0
    0.7660    2.3280   -2.3290 N   0  0  0  0  0  0  0  0  0  0  0  0
    0.7050    2.4310   -3.6920 C   0  0  0  0  0  2  0  0  0  0  0  0
    0.1860    1.3520   -4.2390 N   0  0  0  0  0  0  0  0  0  0  0  0
   -0.0980    0.5220   -3.1860 C   0  0  0  0  0  0  0  0  0  0  0  0
   -0.6440   -0.6990   -3.2730 N   0  0  0  0  0  0  0  0  0  0  0  0
    1.1220    3.0220   -1.6860 H   0  0  0  0  0  0  0  0  0  0  0  0
   -1.3940   -2.5820   -2.2030 N   0  0  0  0  0  0  0  0  0  0  0  0
   -1.5550   -2.7730   -3.1830 H   0  0  0  0  0  0  0  0  0  0  0  0
   -1.7530   -3.5800   -1.2920 C   0  0  0  0  0  0  0  0  0  0  0  0
   -2.7160   -5.7910   -0.9270 C   0  0  0  0  0  0  0  0  0  0  0  0
   -2.5310   -5.6720    0.4460 C   0  0  0  0  0  3  0  0  0  0  0  0
   -2.3330   -4.7600   -1.7870 C   0  0  0  0  0  3  0  0  0  0  0  0
   -1.9590   -4.5110    0.9560 C   0  0  0  0  0  3  0  0  0  0  0  0
   -1.5760   -3.4780    0.0920 C   0  0  0  0  0  3  0  0  0  0  0  0
   -3.4230   -7.2230   -1.5710 Cl  0  0  0  0  0  0  0  0  0  0  0  0
    0.3940    1.0070    0.3790 O   0  0  0  0  0  0  0  0  0  0  0  0
    0.0890    0.1880    1.5070 C   0  0  0  0  0  2  0  0  0  0  0  0
    0.4880    0.9060    2.8120 C   0  0  0  0  0  3  0  0  0  0  0  0
   -0.3610    2.1610    3.0700 C   0  0  0  0  0  2  0  0  0  0  0  0
    2.0030    1.1990    2.8620 C   0  0  0  0  0  2  0  0  0  0  0  0
    0.0510    3.3890    2.2600 C   0  0  0  0  0  2  0  0  0  0  0  0
    2.3450    2.6710    3.0790 C   0  0  0  0  0  2  0  0  0  0  0  0
    1.5630    3.5610    2.1230 C   0  0  0  0  0  2  0  0  0  0  0  0
  1  2  1  0  0  0  0
  2  3  2  0  0  0  0
  3 20  1  0  0  0  0
  4  8  1  6  0  0  0
  4  3  1  0  0  0  0
  5  4  1  0  0  0  0
  5 10  1  0  0  0  0
  6  5  1  0  0  0  0
  7  6  1  0  0  0  0
  7  8  2  0  0  0  0
  9  8  1  0  0  0  0
  9  1  2  0  0  0  0
 11  1  1  0  0  0  0
 11 13  1  0  0  0  0
 12 11  1  0  0  0  0
 13 18  1  0  0  0  0
 14 15  2  0  0  0  0
 15 17  1  0  0  0  0
 16 13  2  0  0  0  0
 16 14  1  0  0  0  0
 18 17  2  0  0  0  0
 19 14  1  0  0  0  0
 20 21  1  0  0  0  0
 21 22  1  0  0  0  0
 22 24  1  0  0  0  0
 22 23  1  0  0  0  0
 24 26  1  0  0  0  0
 25 23  1  0  0  0  0
 27 25  1  0  0  0  0
 27 26  1  0  0  0  0
M  END
>  <REMARK>
 SMILES Clc1cccc(Nc2nc(OCC3CCCCC3)c3[nH]cnc3n2)c1
 SMILES IDX 8 1 9 2 10 3 19 4 20 5 21 6 22 7 23 8 24 9 7 11 6 13 2 14
 SMILES IDX 3 15 25 16 4 17 5 18 1 19 11 20 12 21 13 22 14 23 18 24
 SMILES IDX 15 25 17 26 16 27
 H PARENT 20 10 7 12

>  <TORSDO>
F 5

$$$$
