/home/pchatterjee/Documents/git/vs_workflow/DiffDock/diffdock_run/pdbqt_scrubbed/4566.pdbqt
 OpenBabel10272516423D

 32 35  0  0  1  0  0  0  0  0999 V2000
   -1.2490   -0.3610   -3.2170 N   0  0  0  0  0  0  0  0  0  0  0  0
   -1.1430   -0.3380   -4.2220 H   0  0  0  0  0  0  0  0  0  0  0  0
   -1.7620   -1.5360   -2.6630 C   0  0  0  0  0  0  0  0  0  0  0  0
   -2.7620   -3.9770   -1.6670 C   0  0  0  0  0  0  0  0  0  0  0  0
   -2.4300   -3.8650   -3.0160 C   0  0  0  0  0  3  0  0  0  0  0  0
   -2.5800   -2.8950   -0.8070 C   0  0  0  0  0  3  0  0  0  0  0  0
   -1.9370   -2.6510   -3.5030 C   0  0  0  0  0  3  0  0  0  0  0  0
   -2.0840   -1.6870   -1.3100 C   0  0  0  0  0  3  0  0  0  0  0  0
   -3.3610   -5.5140   -1.0340 S   0  0  0  0  0  0  0  0  0  0  0  0
   -3.1680   -5.5500    0.3970 O   0  0  0  0  0  0  0  0  0  0  0  0
   -2.9310   -6.5860   -1.9010 O   0  0  0  0  0  0  0  0  0  0  0  0
   -5.0160   -5.3650   -1.2700 N   0  0  0  0  0  0  0  0  0  0  0  0
   -5.3380   -6.0820   -1.9210 H   0  0  0  0  0  0  0  0  0  0  0  0
   -5.4970   -5.3760   -0.3710 H   0  0  0  0  0  0  0  0  0  0  0  0
   -0.8660    0.8830   -2.7120 C   0  0  1  0  0  3  0  0  0  0  0  0
   -0.8830    1.1360   -1.3850 N   0  0  0  0  0  0  0  0  0  0  0  0
   -0.4800    1.7480   -3.6600 N   0  0  0  0  0  0  0  0  0  0  0  0
   -0.4800    2.3380   -0.9340 C   0  0  0  0  0  0  0  0  0  0  0  0
   -0.0870    2.9420   -3.1940 C   0  0  0  0  0  0  0  0  0  0  0  0
   -0.0740    3.2640   -1.8570 C   0  0  2  0  0  3  0  0  0  0  0  0
    0.3530    3.9940   -3.9530 N   0  0  0  0  0  0  0  0  0  0  0  0
    0.3940    4.5440   -1.8000 N   0  0  0  0  0  0  0  0  0  0  0  0
    0.6350    4.9450   -3.0860 C   0  0  0  0  0  3  0  0  0  0  0  0
    0.5330    5.0910   -0.9600 H   0  0  0  0  0  0  0  0  0  0  0  0
   -0.4390    2.6500    0.4050 O   0  0  0  0  0  0  0  0  0  0  0  0
   -0.8780    1.6340    1.3080 C   0  0  0  0  0  2  0  0  0  0  0  0
    0.2960    1.0260    2.1010 C   0  0  0  0  0  3  0  0  0  0  0  0
    1.0360    2.1080    2.9130 C   0  0  0  0  0  2  0  0  0  0  0  0
    1.2560    0.1990    1.2220 C   0  0  0  0  0  2  0  0  0  0  0  0
    2.4260    1.6420    3.3260 C   0  0  0  0  0  2  0  0  0  0  0  0
    2.5300    0.9550    0.8650 C   0  0  0  0  0  2  0  0  0  0  0  0
    3.3140    1.3710    2.1110 C   0  0  0  0  0  2  0  0  0  0  0  0
  1  3  1  0  0  0  0
  2  1  1  0  0  0  0
  3  8  1  0  0  0  0
  4  9  1  0  0  0  0
  4  6  1  0  0  0  0
  5  4  2  0  0  0  0
  7  5  1  0  0  0  0
  7  3  2  0  0  0  0
  8  6  2  0  0  0  0
  9 10  2  0  0  0  0
 11  9  2  0  0  0  0
 12  9  1  0  0  0  0
 12 14  1  0  0  0  0
 13 12  1  0  0  0  0
 15  1  1  1  0  0  0
 15 16  1  0  0  0  0
 16 18  2  0  0  0  0
 17 19  2  0  0  0  0
 17 15  1  0  0  0  0
 18 25  1  0  0  0  0
 20 19  1  1  0  0  0
 20 22  1  0  0  0  0
 20 18  1  0  0  0  0
 21 19  1  0  0  0  0
 21 23  2  0  0  0  0
 22 24  1  0  0  0  0
 23 22  1  0  0  0  0
 25 26  1  0  0  0  0
 26 27  1  0  0  0  0
 27 28  1  0  0  0  0
 28 30  1  0  0  0  0
 29 27  1  0  0  0  0
 31 29  1  0  0  0  0
 31 32  1  0  0  0  0
 32 30  1  0  0  0  0
M  END
>  <REMARK>
 SMILES NS(=O)(=O)c1ccc(Nc2nc(OCC3CCCCC3)c3[nH]cnc3n2)cc1
 SMILES IDX 9 1 8 3 5 4 6 5 28 6 7 7 27 8 2 9 3 10 4 11 1 12 10 15 11 16
 SMILES IDX 26 17 12 18 25 19 21 20 24 21 22 22 23 23 13 25 14 26 15 27
 SMILES IDX 16 28 20 29 17 30 19 31 18 32
 H PARENT 9 2 1 13 1 14 22 24

>  <TORSDO>
F 7

$$$$
