/home/pchatterjee/Documents/git/vs_workflow/DiffDock/diffdock_run/pdbqt_scrubbed/46221689.pdbqt
 OpenBabel10272516423D

 33 36  0  0  1  0  0  0  0  0999 V2000
    0.5780    1.9460    1.8380 C   0  0  0  0  0  0  0  0  0  0  0  0
    0.2050    3.0340    2.6350 C   0  0  0  0  0  3  0  0  0  0  0  0
   -1.1370    3.3840    2.7560 C   0  0  0  0  0  3  0  0  0  0  0  0
   -2.1160    2.6480    2.0840 C   0  0  0  0  0  3  0  0  0  0  0  0
   -1.7780    1.5440    1.2890 C   0  0  0  0  0  0  0  0  0  0  0  0
   -0.4220    1.2220    1.1640 C   0  0  0  0  0  3  0  0  0  0  0  0
    2.0230    1.5490    1.6970 C   0  0  0  0  0  2  0  0  0  0  0  0
    2.5700    0.5920    3.1210 S   0  0  0  0  0  0  0  0  0  0  0  0
    3.8460   -0.0150    2.8110 O   0  0  0  0  0  0  0  0  0  0  0  0
    2.3770    1.3410    4.3420 O   0  0  0  0  0  0  0  0  0  0  0  0
    1.4900   -0.6850    3.1890 N   0  0  0  0  0  0  0  0  0  0  0  0
    1.9840   -1.5770    3.1670 H   0  0  0  0  0  0  0  0  0  0  0  0
    0.8530   -0.5760    3.9800 H   0  0  0  0  0  0  0  0  0  0  0  0
   -2.8000    0.8690    0.6100 N   0  0  0  0  0  0  0  0  0  0  0  0
   -3.6980    0.8530    1.0760 H   0  0  0  0  0  0  0  0  0  0  0  0
   -2.7840   -0.1320   -0.3630 C   0  0  2  0  0  3  0  0  0  0  0  0
   -1.7200   -0.2650   -1.1880 N   0  0  0  0  0  0  0  0  0  0  0  0
   -3.8990   -0.8720   -0.4090 N   0  0  0  0  0  0  0  0  0  0  0  0
   -1.7410   -1.2170   -2.1380 C   0  0  0  0  0  0  0  0  0  0  0  0
   -3.8800   -1.8440   -1.3330 C   0  0  0  0  0  0  0  0  0  0  0  0
   -2.8270   -2.0460   -2.1970 C   0  0  1  0  0  3  0  0  0  0  0  0
   -4.8770   -2.7560   -1.5600 N   0  0  0  0  0  0  0  0  0  0  0  0
   -3.1920   -3.1120   -2.9650 N   0  0  0  0  0  0  0  0  0  0  0  0
   -4.4330   -3.5070   -2.5450 C   0  0  0  0  0  3  0  0  0  0  0  0
   -2.6440   -3.5290   -3.7060 H   0  0  0  0  0  0  0  0  0  0  0  0
   -0.6780   -1.3900   -2.9930 O   0  0  0  0  0  0  0  0  0  0  0  0
   -0.0450   -0.1590   -3.3570 C   0  0  0  0  0  2  0  0  0  0  0  0
    1.2550    0.0680   -2.5680 C   0  0  0  0  0  3  0  0  0  0  0  0
    1.9130    1.3840   -3.0090 C   0  0  0  0  0  2  0  0  0  0  0  0
    2.2270   -1.1120   -2.7240 C   0  0  0  0  0  2  0  0  0  0  0  0
    3.2420    1.6310   -2.3000 C   0  0  0  0  0  2  0  0  0  0  0  0
    3.5460   -0.8550   -1.9980 C   0  0  0  0  0  2  0  0  0  0  0  0
    4.1930    0.4490   -2.4510 C   0  0  0  0  0  2  0  0  0  0  0  0
  1  2  1  0  0  0  0
  2  3  2  0  0  0  0
  4  3  1  0  0  0  0
  5  4  2  0  0  0  0
  6  5  1  0  0  0  0
  6  1  2  0  0  0  0
  7  1  1  0  0  0  0
  7  8  1  0  0  0  0
  8 11  1  0  0  0  0
  8 10  2  0  0  0  0
  9  8  2  0  0  0  0
 11 13  1  0  0  0  0
 12 11  1  0  0  0  0
 14 15  1  0  0  0  0
 14  5  1  0  0  0  0
 16 14  1  6  0  0  0
 17 16  1  0  0  0  0
 18 16  1  0  0  0  0
 19 17  2  0  0  0  0
 20 18  2  0  0  0  0
 21 19  1  6  0  0  0
 21 20  1  0  0  0  0
 22 20  1  0  0  0  0
 23 24  1  0  0  0  0
 23 21  1  0  0  0  0
 24 22  2  0  0  0  0
 25 23  1  0  0  0  0
 26 19  1  0  0  0  0
 27 26  1  0  0  0  0
 27 28  1  0  0  0  0
 29 28  1  0  0  0  0
 29 31  1  0  0  0  0
 30 28  1  0  0  0  0
 30 32  1  0  0  0  0
 33 31  1  0  0  0  0
 33 32  1  0  0  0  0
M  END
>  <REMARK>
 SMILES NS(=O)(=O)Cc1cccc(Nc2nc(OCC3CCCCC3)c3[nH]cnc3n2)c1
 SMILES IDX 6 1 7 2 8 3 9 4 10 5 29 6 5 7 2 8 3 9 4 10 1 11 11 14 12 16
 SMILES IDX 13 17 28 18 14 19 27 20 23 21 26 22 24 23 25 24 15 26 16 27
 SMILES IDX 17 28 18 29 22 30 19 31 21 32 20 33
 H PARENT 1 12 1 13 11 15 24 25

>  <TORSDO>
F 8

$$$$
