/home/pchatterjee/Documents/git/vs_workflow/DiffDock/diffdock_run/pdbqt_scrubbed/46927371.pdbqt
 OpenBabel10272516423D

 32 36  0  0  1  0  0  0  0  0999 V2000
    1.9620   -2.2270    0.7350 C   0  0  0  0  0  0  0  0  0  0  0  0
    1.0020   -2.1360   -0.2100 N   0  0  0  0  0  0  0  0  0  0  0  0
    0.8410   -3.1400   -1.0920 C   0  0  0  0  0  0  0  0  0  0  0  0
    1.6700   -4.2240   -0.9860 C   0  0  1  0  0  3  0  0  0  0  0  0
    1.8220   -5.3950   -1.6680 N   0  0  0  0  0  0  0  0  0  0  0  0
    2.8440   -6.0820   -1.0690 C   0  0  0  0  0  2  0  0  0  0  0  0
    3.3510   -5.4150   -0.0540 N   0  0  0  0  0  0  0  0  0  0  0  0
    2.6260   -4.2520    0.0030 C   0  0  0  0  0  0  0  0  0  0  0  0
    2.8040   -3.2590    0.8850 N   0  0  0  0  0  0  0  0  0  0  0  0
    1.2790   -5.6950   -2.4660 H   0  0  0  0  0  0  0  0  0  0  0  0
    2.1840   -1.1840    1.6350 N   0  0  0  0  0  0  0  0  0  0  0  0
    2.9570   -1.4420    2.2310 H   0  0  0  0  0  0  0  0  0  0  0  0
    1.4790   -0.0250    1.9870 C   0  0  0  0  0  0  0  0  0  0  0  0
    2.1020    0.9650    2.7750 C   0  0  0  0  0  0  0  0  0  0  0  0
    1.4030    2.1450    3.1070 C   0  0  0  0  0  3  0  0  0  0  0  0
    0.0960    2.3970    2.6660 C   0  0  0  0  0  0  0  0  0  0  0  0
    0.1850    0.2390    1.5290 C   0  0  0  0  0  3  0  0  0  0  0  0
   -0.4970    1.4180    1.8670 C   0  0  0  0  0  3  0  0  0  0  0  0
    3.5040    0.7950    3.2980 C   0  0  0  0  0  1  0  0  0  0  0  0
   -0.5310    3.5940    3.0310 N   0  0  0  0  0  0  0  0  0  0  0  0
   -2.0060    3.6880    3.0160 C   0  0  0  0  0  2  0  0  0  0  0  0
    0.1510    4.7920    2.4770 C   0  0  0  0  0  2  0  0  0  0  0  0
   -2.4830    4.5170    1.8160 C   0  0  0  0  0  2  0  0  0  0  0  0
   -0.7660    6.0240    2.5540 C   0  0  0  0  0  2  0  0  0  0  0  0
   -1.9900    5.8690    1.8180 O   0  0  0  0  0  0  0  0  0  0  0  0
   -0.1050   -3.0900   -2.0920 O   0  0  0  0  0  0  0  0  0  0  0  0
   -0.8940   -1.8880   -2.1210 C   0  0  0  0  0  3  0  0  0  0  0  0
   -0.1330   -0.7450   -2.8230 C   0  0  0  0  0  2  0  0  0  0  0  0
   -2.2010   -2.2520   -2.8480 C   0  0  0  0  0  2  0  0  0  0  0  0
   -0.4660   -0.6570   -4.3090 C   0  0  0  0  0  2  0  0  0  0  0  0
   -2.8560   -1.0320   -3.4790 C   0  0  0  0  0  2  0  0  0  0  0  0
   -1.9570   -0.4020   -4.5430 C   0  0  0  0  0  2  0  0  0  0  0  0
  1  9  2  0  0  0  0
  1 11  1  0  0  0  0
  2  1  1  0  0  0  0
  3  2  2  0  0  0  0
  4  3  1  6  0  0  0
  4  8  1  0  0  0  0
  5  6  1  0  0  0  0
  5  4  1  0  0  0  0
  6  7  1  0  0  0  0
  7  8  2  0  0  0  0
  8  9  1  0  0  0  0
 10  5  1  0  0  0  0
 11 13  1  0  0  0  0
 11 12  1  0  0  0  0
 13 14  1  0  0  0  0
 14 15  2  0  0  0  0
 14 19  1  0  0  0  0
 16 20  1  0  0  0  0
 16 15  1  0  0  0  0
 17 18  1  0  0  0  0
 17 13  2  0  0  0  0
 18 16  2  0  0  0  0
 21 20  1  0  0  0  0
 22 24  1  0  0  0  0
 22 20  1  0  0  0  0
 23 25  1  0  0  0  0
 23 21  1  0  0  0  0
 25 24  1  0  0  0  0
 26  3  1  0  0  0  0
 27 26  1  0  0  0  0
 28 27  1  0  0  0  0
 29 27  1  0  0  0  0
 30 28  1  0  0  0  0
 31 29  1  0  0  0  0
 32 30  1  0  0  0  0
 32 31  1  0  0  0  0
M  END
>  <REMARK>
 SMILES Cc1cc(N2CCOCC2)ccc1Nc1nc(OC2CCCCC2)c2[nH]cnc2n1
 SMILES IDX 15 1 16 2 17 3 25 4 26 5 27 6 28 7 29 8 30 9 14 11 13 13
 SMILES IDX 2 14 3 15 4 16 12 17 11 18 1 19 5 20 6 21 10 22 7 23 9 24
 SMILES IDX 8 25 18 26 19 27 20 28 24 29 21 30 23 31 22 32
 H PARENT 26 10 14 12

>  <TORSDO>
F 5

$$$$
