/home/pchatterjee/Documents/git/vs_workflow/DiffDock/diffdock_run/pdbqt_scrubbed/49863196.pdbqt
 OpenBabel10272516423D

 24 27  0  0  1  0  0  0  0  0999 V2000
    1.2200   -1.4040    0.5290 O   0  0  0  0  0  0  0  0  0  0  0  0
   -0.0440   -1.6300    1.0250 C   0  0  0  0  0  0  0  0  0  0  0  0
   -2.3940    0.9970    0.3600 C   0  0  2  0  0  3  0  0  0  0  0  0
   -3.1280    0.1230    1.0350 N   0  0  0  0  0  0  0  0  0  0  0  0
   -1.1060    0.5180    0.2240 N   0  0  0  0  0  0  0  0  0  0  0  0
   -2.2990   -0.9230    1.3310 C   0  0  0  0  0  0  0  0  0  0  0  0
   -1.0350   -0.6980    0.8360 C   0  0  1  0  0  3  0  0  0  0  0  0
   -2.6400   -2.0320    2.0110 N   0  0  0  0  0  0  0  0  0  0  0  0
   -1.6160   -2.8870    2.1500 C   0  0  0  0  0  3  0  0  0  0  0  0
   -0.3500   -2.7530    1.7010 N   0  0  0  0  0  0  0  0  0  0  0  0
   -0.3370    0.9760   -0.2440 H   0  0  0  0  0  0  0  0  0  0  0  0
   -2.8700    2.2790   -0.1640 C   0  0  0  0  0  0  0  0  0  0  0  0
   -4.6620    3.8820   -0.4640 C   0  0  0  0  0  3  0  0  0  0  0  0
   -3.7720    4.6900   -1.1490 C   0  0  0  0  0  3  0  0  0  0  0  0
   -4.2010    2.6640    0.0320 C   0  0  0  0  0  3  0  0  0  0  0  0
   -2.4800    4.3630   -1.3640 N   0  0  0  0  0  0  0  0  0  0  0  0
   -2.0640    3.1710   -0.8680 C   0  0  0  0  0  3  0  0  0  0  0  0
    2.1360   -2.4620    0.8200 C   0  0  0  0  0  2  0  0  0  0  0  0
    3.5200   -2.1230    0.2370 C   0  0  0  0  0  3  0  0  0  0  0  0
    3.4770   -2.0990   -1.3040 C   0  0  0  0  0  2  0  0  0  0  0  0
    4.0940   -0.8170    0.8270 C   0  0  0  0  0  2  0  0  0  0  0  0
    4.6740   -1.3540   -1.8800 C   0  0  0  0  0  2  0  0  0  0  0  0
    3.9740    0.3690   -0.1240 C   0  0  0  0  0  2  0  0  0  0  0  0
    4.6890    0.1140   -1.4510 C   0  0  0  0  0  2  0  0  0  0  0  0
  1 18  1  0  0  0  0
  1  2  1  0  0  0  0
  2 10  2  0  0  0  0
  3 12  1  1  0  0  0
  3  4  1  0  0  0  0
  4  6  2  0  0  0  0
  5  3  1  0  0  0  0
  5  7  1  0  0  0  0
  6  8  1  0  0  0  0
  7  2  1  6  0  0  0
  7  6  1  0  0  0  0
  8  9  2  0  0  0  0
 10  9  1  0  0  0  0
 11  5  1  0  0  0  0
 12 15  1  0  0  0  0
 13 15  2  0  0  0  0
 14 13  1  0  0  0  0
 16 14  2  0  0  0  0
 16 17  1  0  0  0  0
 17 12  2  0  0  0  0
 19 18  1  0  0  0  0
 19 21  1  0  0  0  0
 20 19  1  0  0  0  0
 22 24  1  0  0  0  0
 22 20  1  0  0  0  0
 23 21  1  0  0  0  0
 24 23  1  0  0  0  0
M  END
>  <REMARK>
 SMILES c1cncc(-c2nc3ncnc(OCC4CCCCC4)c3[nH]2)c1
 SMILES IDX 13 1 12 2 6 3 7 4 22 5 8 6 21 7 9 8 10 9 11 10 5 12 1 13
 SMILES IDX 2 14 23 15 3 16 4 17 14 18 15 19 16 20 20 21 17 22 19 23
 SMILES IDX 18 24
 H PARENT 22 11

>  <TORSDO>
F 4

$$$$
