/home/pchatterjee/Documents/git/vs_workflow/DiffDock/diffdock_run/pdbqt_scrubbed/49863194.pdbqt
 OpenBabel10272516423D

 22 25  0  0  1  0  0  0  0  0999 V2000
   -0.4690    0.0620    2.1330 C   0  0  2  0  0  3  0  0  0  0  0  0
    0.5810   -0.5720    2.6340 N   0  0  0  0  0  0  0  0  0  0  0  0
    1.2580   -1.0900    1.5650 C   0  0  0  0  0  0  0  0  0  0  0  0
    2.3890   -1.8150    1.6230 N   0  0  0  0  0  0  0  0  0  0  0  0
    2.8240   -2.1900    0.4120 C   0  0  0  0  0  3  0  0  0  0  0  0
    2.2730   -1.9270   -0.7920 N   0  0  0  0  0  0  0  0  0  0  0  0
    1.1420   -1.1960   -0.8140 C   0  0  0  0  0  0  0  0  0  0  0  0
    0.6250   -0.7710    0.3860 C   0  0  1  0  0  3  0  0  0  0  0  0
   -0.4640   -0.0400    0.7580 N   0  0  0  0  0  0  0  0  0  0  0  0
   -1.1410    0.3590    0.1250 H   0  0  0  0  0  0  0  0  0  0  0  0
   -1.4880    0.7790    2.9110 C   0  0  0  0  0  0  0  0  0  0  0  0
   -3.3900    2.1370    4.4840 C   0  0  0  0  0  3  0  0  0  0  0  0
   -3.5740    2.0190    3.1090 C   0  0  0  0  0  3  0  0  0  0  0  0
   -2.2630    1.5790    5.0810 C   0  0  0  0  0  3  0  0  0  0  0  0
   -2.6310    1.3450    2.3260 C   0  0  0  0  0  3  0  0  0  0  0  0
   -1.3210    0.9050    4.2990 C   0  0  0  0  0  3  0  0  0  0  0  0
    0.5030   -0.8800   -1.9920 O   0  0  0  0  0  0  0  0  0  0  0  0
    1.1230   -1.4230   -3.1640 C   0  0  0  0  0  3  0  0  0  0  0  0
    0.6610   -2.8560   -3.4210 C   0  0  0  0  0  2  0  0  0  0  0  0
    0.5510   -0.6880   -4.3760 C   0  0  0  0  0  2  0  0  0  0  0  0
   -0.7540   -2.7100   -3.9770 C   0  0  0  0  0  2  0  0  0  0  0  0
   -0.8250   -1.3130   -4.5930 C   0  0  0  0  0  2  0  0  0  0  0  0
  1  2  1  0  0  0  0
  1 11  1  6  0  0  0
  3  4  1  0  0  0  0
  3  2  2  0  0  0  0
  5  4  2  0  0  0  0
  6  5  1  0  0  0  0
  7  6  2  0  0  0  0
  8  7  1  1  0  0  0
  8  9  1  0  0  0  0
  8  3  1  0  0  0  0
  9  1  1  0  0  0  0
 10  9  1  0  0  0  0
 11 16  1  0  0  0  0
 12 14  1  0  0  0  0
 13 12  2  0  0  0  0
 15 11  2  0  0  0  0
 15 13  1  0  0  0  0
 16 14  2  0  0  0  0
 17  7  1  0  0  0  0
 18 17  1  0  0  0  0
 19 18  1  0  0  0  0
 20 18  1  0  0  0  0
 21 19  1  0  0  0  0
 22 20  1  0  0  0  0
 22 21  1  0  0  0  0
M  END
>  <REMARK>
 SMILES c1ccc(-c2nc3ncnc(OC4CCCC4)c3[nH]2)cc1
 SMILES IDX 5 1 6 2 7 3 8 4 9 5 10 6 11 7 18 8 19 9 4 11 1 12 2 13 21 14
 SMILES IDX 3 15 20 16 12 17 13 18 14 19 17 20 15 21 16 22
 H PARENT 19 10

>  <TORSDO>
F 3

$$$$
