/home/pchatterjee/Documents/git/vs_workflow/DiffDock/diffdock_run/pdbqt_scrubbed/5329563.pdbqt
 OpenBabel10272516423D

 32 35  0  0  1  0  0  0  0  0999 V2000
    0.6550    1.2370    2.5310 N   0  0  0  0  0  0  0  0  0  0  0  0
    0.9440    2.0030    3.1240 H   0  0  0  0  0  0  0  0  0  0  0  0
    1.5870    0.7750    1.5970 C   0  0  0  0  0  0  0  0  0  0  0  0
    3.5410   -0.0360   -0.2640 C   0  0  0  0  0  0  0  0  0  0  0  0
    2.3400   -0.7370   -0.1660 C   0  0  0  0  0  3  0  0  0  0  0  0
    3.7870    1.0580    0.5620 C   0  0  0  0  0  3  0  0  0  0  0  0
    1.3720   -0.3220    0.7560 C   0  0  0  0  0  3  0  0  0  0  0  0
    2.8110    1.4570    1.4810 C   0  0  0  0  0  3  0  0  0  0  0  0
    4.7890   -0.5490   -1.4160 S   0  0  0  0  0  0  0  0  0  0  0  0
    6.0560   -0.5180   -0.7170 O   0  0  0  0  0  0  0  0  0  0  0  0
    4.3330   -1.7510   -2.0860 O   0  0  0  0  0  0  0  0  0  0  0  0
    4.7810    0.7170   -2.5720 N   0  0  0  0  0  0  0  0  0  0  0  0
    3.5300    0.8410   -3.3540 C   0  0  0  0  0  1  0  0  0  0  0  0
    5.9710    0.6930   -3.4540 C   0  0  0  0  0  1  0  0  0  0  0  0
   -0.6440    0.8740    2.8890 C   0  0  2  0  0  3  0  0  0  0  0  0
   -1.2930   -0.1250    2.2520 N   0  0  0  0  0  0  0  0  0  0  0  0
   -1.1510    1.6140    3.8850 N   0  0  0  0  0  0  0  0  0  0  0  0
   -2.5510   -0.4380    2.6160 C   0  0  0  0  0  0  0  0  0  0  0  0
   -2.4080    1.2980    4.2270 C   0  0  0  0  0  0  0  0  0  0  0  0
   -3.1280    0.2960    3.6170 C   0  0  2  0  0  3  0  0  0  0  0  0
   -3.1520    1.9070    5.2020 N   0  0  0  0  0  0  0  0  0  0  0  0
   -4.3440    0.3010    4.2340 N   0  0  0  0  0  0  0  0  0  0  0  0
   -4.3120    1.2860    5.1840 C   0  0  0  0  0  3  0  0  0  0  0  0
   -5.1200   -0.3140    4.0270 H   0  0  0  0  0  0  0  0  0  0  0  0
   -3.2750   -1.4190    1.9820 O   0  0  0  0  0  0  0  0  0  0  0  0
   -2.5320   -2.2860    1.1240 C   0  0  0  0  0  2  0  0  0  0  0  0
   -2.9470   -2.1120   -0.3480 C   0  0  0  0  0  3  0  0  0  0  0  0
   -2.4630   -0.7670   -0.9220 C   0  0  0  0  0  2  0  0  0  0  0  0
   -4.4620   -2.3240   -0.5560 C   0  0  0  0  0  2  0  0  0  0  0  0
   -3.1920   -0.4240   -2.2150 C   0  0  0  0  0  2  0  0  0  0  0  0
   -5.2210   -1.0200   -0.7750 C   0  0  0  0  0  2  0  0  0  0  0  0
   -4.6940   -0.2490   -1.9870 C   0  0  0  0  0  2  0  0  0  0  0  0
  1  2  1  0  0  0  0
  3  1  1  0  0  0  0
  4  5  2  0  0  0  0
  4  6  1  0  0  0  0
  5  7  1  0  0  0  0
  6  8  2  0  0  0  0
  7  3  2  0  0  0  0
  8  3  1  0  0  0  0
  9 10  2  0  0  0  0
  9  4  1  0  0  0  0
 11  9  2  0  0  0  0
 12  9  1  0  0  0  0
 13 12  1  0  0  0  0
 14 12  1  0  0  0  0
 15  1  1  6  0  0  0
 15 17  1  0  0  0  0
 16 18  2  0  0  0  0
 16 15  1  0  0  0  0
 17 19  2  0  0  0  0
 19 21  1  0  0  0  0
 20 18  1  1  0  0  0
 20 19  1  0  0  0  0
 20 22  1  0  0  0  0
 22 23  1  0  0  0  0
 23 21  2  0  0  0  0
 24 22  1  0  0  0  0
 25 18  1  0  0  0  0
 26 25  1  0  0  0  0
 27 26  1  0  0  0  0
 28 27  1  0  0  0  0
 29 27  1  0  0  0  0
 30 32  1  0  0  0  0
 30 28  1  0  0  0  0
 31 29  1  0  0  0  0
 32 31  1  0  0  0  0
M  END
>  <REMARK>
 SMILES CN(C)S(=O)(=O)c1ccc(Nc2nc(OCC3CCCCC3)c3[nH]cnc3n2)cc1
 SMILES IDX 11 1 10 3 7 4 8 5 30 6 9 7 29 8 4 9 5 10 6 11 2 12 1 13 3 14
 SMILES IDX 12 15 13 16 28 17 14 18 27 19 23 20 26 21 24 22 25 23 15 25
 SMILES IDX 16 26 17 27 18 28 22 29 19 30 21 31 20 32
 H PARENT 11 2 24 24

>  <TORSDO>
F 7

$$$$
