/home/pchatterjee/Documents/git/vs_workflow/DiffDock/diffdock_run/pdbqt_scrubbed/5329559.pdbqt
 OpenBabel10272516423D

 28 31  0  0  1  0  0  0  0  0999 V2000
    0.7090    0.0410    2.3620 C   0  0  0  0  0  0  0  0  0  0  0  0
   -0.2130    0.0310    1.3760 N   0  0  0  0  0  0  0  0  0  0  0  0
   -1.0130   -1.0420    1.2270 C   0  0  0  0  0  0  0  0  0  0  0  0
   -0.8410   -2.0930    2.0870 C   0  0  1  0  0  3  0  0  0  0  0  0
   -1.4180   -3.3190    2.2460 N   0  0  0  0  0  0  0  0  0  0  0  0
   -0.8000   -3.9230    3.3070 C   0  0  0  0  0  2  0  0  0  0  0  0
    0.1340   -3.1560    3.8280 N   0  0  0  0  0  0  0  0  0  0  0  0
    0.1170   -2.0140    3.0720 C   0  0  0  0  0  0  0  0  0  0  0  0
    0.9140   -0.9500    3.2400 N   0  0  0  0  0  0  0  0  0  0  0  0
   -2.1630   -3.7040    1.6810 H   0  0  0  0  0  0  0  0  0  0  0  0
    1.5620    1.1320    2.5440 N   0  0  0  0  0  0  0  0  0  0  0  0
    2.1750    0.9210    3.3210 H   0  0  0  0  0  0  0  0  0  0  0  0
    1.7440    2.3610    1.9020 C   0  0  0  0  0  0  0  0  0  0  0  0
    2.2200    4.8550    0.6830 C   0  0  0  0  0  0  0  0  0  0  0  0
    1.1950    4.0420    0.2200 C   0  0  0  0  0  3  0  0  0  0  0  0
    3.0120    4.4430    1.7470 C   0  0  0  0  0  0  0  0  0  0  0  0
    0.9610    2.8040    0.8290 C   0  0  0  0  0  3  0  0  0  0  0  0
    2.7750    3.2050    2.3520 C   0  0  0  0  0  3  0  0  0  0  0  0
    2.4280    6.0380    0.0860 F   0  0  0  0  0  0  0  0  0  0  0  0
    4.2870    5.4410    2.3320 Cl  0  0  0  0  0  0  0  0  0  0  0  0
   -1.9480   -1.1250    0.2210 O   0  0  0  0  0  0  0  0  0  0  0  0
   -2.1910    0.0860   -0.4980 C   0  0  0  0  0  2  0  0  0  0  0  0
   -1.6600   -0.0160   -1.9370 C   0  0  0  0  0  3  0  0  0  0  0  0
   -2.0590    1.2350   -2.7350 C   0  0  0  0  0  2  0  0  0  0  0  0
   -0.1380   -0.2300   -1.9890 C   0  0  0  0  0  2  0  0  0  0  0  0
   -1.5320    1.1920   -4.1660 C   0  0  0  0  0  2  0  0  0  0  0  0
    0.3840   -0.2650   -3.4240 C   0  0  0  0  0  2  0  0  0  0  0  0
   -0.0220    0.9810   -4.2020 C   0  0  0  0  0  2  0  0  0  0  0  0
  1 11  1  0  0  0  0
  1  9  2  0  0  0  0
  2  1  1  0  0  0  0
  3  2  2  0  0  0  0
  4  3  1  6  0  0  0
  4  5  1  0  0  0  0
  4  8  1  0  0  0  0
  5  6  1  0  0  0  0
  6  7  1  0  0  0  0
  8  9  1  0  0  0  0
  8  7  2  0  0  0  0
 10  5  1  0  0  0  0
 11 12  1  0  0  0  0
 13 18  1  0  0  0  0
 13 11  1  0  0  0  0
 14 16  1  0  0  0  0
 15 14  2  0  0  0  0
 15 17  1  0  0  0  0
 16 20  1  0  0  0  0
 16 18  2  0  0  0  0
 17 13  2  0  0  0  0
 19 14  1  0  0  0  0
 21  3  1  0  0  0  0
 22 21  1  0  0  0  0
 23 22  1  0  0  0  0
 24 23  1  0  0  0  0
 25 23  1  0  0  0  0
 26 24  1  0  0  0  0
 27 25  1  0  0  0  0
 28 26  1  0  0  0  0
 28 27  1  0  0  0  0
M  END
>  <REMARK>
 SMILES Fc1ccc(Nc2nc(OCC3CCCCC3)c3[nH]cnc3n2)cc1Cl
 SMILES IDX 7 1 8 2 9 3 18 4 19 5 20 6 21 7 22 8 23 9 6 11 5 13 2 14
 SMILES IDX 3 15 25 16 4 17 24 18 1 19 26 20 10 21 11 22 12 23 13 24
 SMILES IDX 17 25 14 26 16 27 15 28
 H PARENT 19 10 6 12

>  <TORSDO>
F 5

$$$$
