/home/pchatterjee/Documents/git/vs_workflow/DiffDock/diffdock_run/pdbqt_scrubbed/5329520.pdbqt
 OpenBabel10272516423D

 22 24  0  0  1  0  0  0  0  0999 V2000
    0.6450   -1.3450    1.4220 O   0  0  0  0  0  0  0  0  0  0  0  0
    1.5900   -0.5450    0.8310 C   0  0  0  0  0  0  0  0  0  0  0  0
    3.6820   -0.2690   -0.0920 C   0  0  1  0  0  3  0  0  0  0  0  0
    2.7720   -1.0770    0.4790 N   0  0  0  0  0  0  0  0  0  0  0  0
    3.5590    1.0400   -0.3270 N   0  0  0  0  0  0  0  0  0  0  0  0
    2.3690    1.5450    0.0360 C   0  0  0  0  0  0  0  0  0  0  0  0
    1.3730    0.7880    0.6110 C   0  0  1  0  0  3  0  0  0  0  0  0
    1.9660    2.8470   -0.1070 N   0  0  0  0  0  0  0  0  0  0  0  0
    0.3290    1.6440    0.7980 N   0  0  0  0  0  0  0  0  0  0  0  0
    0.7330    2.8740    0.3540 C   0  0  0  0  0  3  0  0  0  0  0  0
   -0.5840    1.4020    1.1610 H   0  0  0  0  0  0  0  0  0  0  0  0
    4.8840   -0.8540   -0.4490 N   0  0  0  0  0  0  0  0  0  0  0  0
    5.6060   -0.1460   -0.4810 H   0  0  0  0  0  0  0  0  0  0  0  0
    5.0550   -1.6640    0.1300 H   0  0  0  0  0  0  0  0  0  0  0  0
    0.1920   -2.3260    0.4800 C   0  0  0  0  0  2  0  0  0  0  0  0
   -1.3270   -2.4690    0.6230 C   0  0  0  0  0  2  0  0  0  0  0  0
   -2.0670   -1.1850    0.3120 C   0  0  0  0  0  0  0  0  0  0  0  0
   -2.7890   -0.5210    1.3150 C   0  0  0  0  0  3  0  0  0  0  0  0
   -2.0310   -0.6300   -0.9760 C   0  0  0  0  0  3  0  0  0  0  0  0
   -3.4540    0.6740    1.0380 C   0  0  0  0  0  3  0  0  0  0  0  0
   -2.6900    0.5690   -1.2500 C   0  0  0  0  0  3  0  0  0  0  0  0
   -3.4010    1.2220   -0.2430 C   0  0  0  0  0  3  0  0  0  0  0  0
  2  1  1  0  0  0  0
  3 12  1  1  0  0  0
  3  4  1  0  0  0  0
  4  2  2  0  0  0  0
  5  3  1  0  0  0  0
  5  6  2  0  0  0  0
  7  6  1  6  0  0  0
  7  9  1  0  0  0  0
  7  2  1  0  0  0  0
  8  6  1  0  0  0  0
  8 10  2  0  0  0  0
  9 11  1  0  0  0  0
 10  9  1  0  0  0  0
 12 14  1  0  0  0  0
 13 12  1  0  0  0  0
 15 16  1  0  0  0  0
 15  1  1  0  0  0  0
 17 16  1  0  0  0  0
 17 18  1  0  0  0  0
 19 17  2  0  0  0  0
 20 18  2  0  0  0  0
 21 19  1  0  0  0  0
 21 22  2  0  0  0  0
 22 20  1  0  0  0  0
M  END
>  <REMARK>
 SMILES Nc1nc(OCCc2ccccc2)c2[nH]cnc2n1
 SMILES IDX 5 1 4 2 2 3 3 4 19 5 18 6 14 7 17 8 15 9 16 10 1 12 6 15
 SMILES IDX 7 16 8 17 9 18 13 19 10 20 12 21 11 22
 H PARENT 15 11 1 13 1 14

>  <TORSDO>
F 5

$$$$
