/home/pchatterjee/Documents/git/vs_workflow/DiffDock/diffdock_run/pdbqt_scrubbed/5329565.pdbqt
 OpenBabel10272516423D

 29 32  0  0  1  0  0  0  0  0999 V2000
    0.7710   -0.9560    2.4100 C   0  0  0  0  0  0  0  0  0  0  0  0
    1.2670   -0.1640    1.4330 N   0  0  0  0  0  0  0  0  0  0  0  0
    2.4950   -0.4120    0.9400 C   0  0  0  0  0  0  0  0  0  0  0  0
    3.1880   -1.4750    1.4510 C   0  0  1  0  0  3  0  0  0  0  0  0
    4.4100   -2.0360    1.2180 N   0  0  0  0  0  0  0  0  0  0  0  0
    4.5370   -3.1000    2.0700 C   0  0  0  0  0  2  0  0  0  0  0  0
    3.4710   -3.2460    2.8280 N   0  0  0  0  0  0  0  0  0  0  0  0
    2.6240   -2.2380    2.4470 C   0  0  0  0  0  0  0  0  0  0  0  0
    1.4070   -1.9990    2.9590 N   0  0  0  0  0  0  0  0  0  0  0  0
    5.0910   -1.7190    0.5410 H   0  0  0  0  0  0  0  0  0  0  0  0
   -0.4840   -0.7030    2.9660 N   0  0  0  0  0  0  0  0  0  0  0  0
   -0.6540   -1.3770    3.6990 H   0  0  0  0  0  0  0  0  0  0  0  0
   -1.5490    0.1340    2.6180 C   0  0  0  0  0  0  0  0  0  0  0  0
   -3.7190    1.8710    2.0720 C   0  0  0  0  0  0  0  0  0  0  0  0
   -2.6770    1.7290    1.1560 C   0  0  0  0  0  3  0  0  0  0  0  0
   -3.6790    1.1470    3.2650 C   0  0  0  0  0  3  0  0  0  0  0  0
   -1.6020    0.8760    1.4350 C   0  0  0  0  0  3  0  0  0  0  0  0
   -2.6020    0.2940    3.5330 C   0  0  0  0  0  3  0  0  0  0  0  0
   -5.1140    2.9720    1.7360 S   0  0  1  0  0  0  0  0  0  0  0  0
   -4.5240    4.3720    2.7200 C   0  0  0  0  0  1  0  0  0  0  0  0
   -4.9950    3.3580    0.2910 O   0  0  0  0  0  0  0  0  0  0  0  0
    3.0550    0.3680   -0.0470 O   0  0  0  0  0  0  0  0  0  0  0  0
    2.2450    1.4690   -0.4740 C   0  0  0  0  0  2  0  0  0  0  0  0
    1.2790    1.0570   -1.5990 C   0  0  0  0  0  3  0  0  0  0  0  0
    0.3920    2.2420   -2.0020 C   0  0  0  0  0  2  0  0  0  0  0  0
    2.0400    0.5100   -2.8160 C   0  0  0  0  0  2  0  0  0  0  0  0
   -0.5550    1.8760   -3.1420 C   0  0  0  0  0  2  0  0  0  0  0  0
    1.0930    0.1480   -3.9580 C   0  0  0  0  0  2  0  0  0  0  0  0
    0.2000    1.3210   -4.3450 C   0  0  0  0  0  2  0  0  0  0  0  0
  1  9  2  0  0  0  0
  1 11  1  0  0  0  0
  2  1  1  0  0  0  0
  3  2  2  0  0  0  0
  4  3  1  1  0  0  0
  4  8  1  0  0  0  0
  5  4  1  0  0  0  0
  5  6  1  0  0  0  0
  6  7  1  0  0  0  0
  8  7  2  0  0  0  0
  8  9  1  0  0  0  0
 10  5  1  0  0  0  0
 11 12  1  0  0  0  0
 13 11  1  0  0  0  0
 13 18  1  0  0  0  0
 14 16  1  0  0  0  0
 15 17  1  0  0  0  0
 15 14  2  0  0  0  0
 16 18  2  0  0  0  0
 17 13  2  0  0  0  0
 19 14  1  0  0  0  0
 19 20  1  1  0  0  0
 21 19  2  0  0  0  0
 22  3  1  0  0  0  0
 23 22  1  0  0  0  0
 24 23  1  0  0  0  0
 25 24  1  0  0  0  0
 26 24  1  0  0  0  0
 27 25  1  0  0  0  0
 28 26  1  0  0  0  0
 29 28  1  0  0  0  0
 29 27  1  0  0  0  0
M  END
>  <REMARK>
 SMILES CS(=O)c1ccc(Nc2nc(OCC3CCCCC3)c3[nH]cnc3n2)cc1
 SMILES IDX 9 1 10 2 11 3 20 4 21 5 22 6 23 7 24 8 25 9 8 11 7 13 4 14
 SMILES IDX 5 15 27 16 6 17 26 18 2 19 1 20 3 21 12 22 13 23 14 24 15 25
 SMILES IDX 19 26 16 27 18 28 17 29
 H PARENT 21 10 8 12

>  <TORSDO>
F 6

$$$$
