/home/pchatterjee/Documents/git/vs_workflow/DiffDock/diffdock_run/pdbqt_scrubbed/5329552.pdbqt
 OpenBabel10272516423D

 27 30  0  0  1  0  0  0  0  0999 V2000
   -2.3100    2.1750   -1.2070 C   0  0  0  0  0  0  0  0  0  0  0  0
   -1.1570    1.6400   -0.7510 N   0  0  0  0  0  0  0  0  0  0  0  0
   -0.5060    2.2350    0.2660 C   0  0  0  0  0  0  0  0  0  0  0  0
   -1.0540    3.3690    0.8010 C   0  0  1  0  0  3  0  0  0  0  0  0
   -0.7140    4.2270    1.8050 N   0  0  0  0  0  0  0  0  0  0  0  0
   -1.6830    5.1920    1.8590 C   0  0  0  0  0  2  0  0  0  0  0  0
   -2.6150    4.9970    0.9500 N   0  0  0  0  0  0  0  0  0  0  0  0
   -2.2310    3.8610    0.2860 C   0  0  0  0  0  0  0  0  0  0  0  0
   -2.8890    3.2840   -0.7290 N   0  0  0  0  0  0  0  0  0  0  0  0
    0.1030    4.1570    2.3970 H   0  0  0  0  0  0  0  0  0  0  0  0
   -3.0110    1.5860   -2.2610 N   0  0  0  0  0  0  0  0  0  0  0  0
   -3.8370    2.1420   -2.4400 H   0  0  0  0  0  0  0  0  0  0  0  0
   -2.8480    0.4270   -3.0260 C   0  0  0  0  0  0  0  0  0  0  0  0
   -3.6520   -0.9680   -4.8590 C   0  0  0  0  0  0  0  0  0  0  0  0
   -2.6140   -1.8710   -4.6600 C   0  0  0  0  0  3  0  0  0  0  0  0
   -3.7690    0.1690   -4.0550 C   0  0  0  0  0  3  0  0  0  0  0  0
   -1.6890   -1.6290   -3.6490 C   0  0  0  0  0  3  0  0  0  0  0  0
   -1.8070   -0.4900   -2.8450 C   0  0  0  0  0  3  0  0  0  0  0  0
   -4.9150   -1.2810   -6.2310 Br  0  0  0  0  0  0  0  0  0  0  0  0
    0.6680    1.7290    0.7760 O   0  0  0  0  0  0  0  0  0  0  0  0
    1.1660    0.5670    0.1030 C   0  0  0  0  0  2  0  0  0  0  0  0
    0.5490   -0.7280    0.6690 C   0  0  0  0  0  3  0  0  0  0  0  0
    1.0540   -1.9650   -0.0900 C   0  0  0  0  0  2  0  0  0  0  0  0
    0.7920   -0.8870    2.1800 C   0  0  0  0  0  2  0  0  0  0  0  0
    2.5010   -2.3230    0.2460 C   0  0  0  0  0  2  0  0  0  0  0  0
    2.2390   -1.2420    2.5170 C   0  0  0  0  0  2  0  0  0  0  0  0
    2.7100   -2.4730    1.7490 C   0  0  0  0  0  2  0  0  0  0  0  0
  1  2  1  0  0  0  0
  1  9  2  0  0  0  0
  2  3  2  0  0  0  0
  3 20  1  0  0  0  0
  4  3  1  6  0  0  0
  4  5  1  0  0  0  0
  5  6  1  0  0  0  0
  5 10  1  0  0  0  0
  7  6  1  0  0  0  0
  8  4  1  0  0  0  0
  8  7  2  0  0  0  0
  9  8  1  0  0  0  0
 11  1  1  0  0  0  0
 12 11  1  0  0  0  0
 13 18  1  0  0  0  0
 13 11  1  0  0  0  0
 14 15  2  0  0  0  0
 14 16  1  0  0  0  0
 15 17  1  0  0  0  0
 16 13  2  0  0  0  0
 17 18  2  0  0  0  0
 19 14  1  0  0  0  0
 21 22  1  0  0  0  0
 21 20  1  0  0  0  0
 22 24  1  0  0  0  0
 23 25  1  0  0  0  0
 23 22  1  0  0  0  0
 24 26  1  0  0  0  0
 25 27  1  0  0  0  0
 27 26  1  0  0  0  0
M  END
>  <REMARK>
 SMILES Brc1cccc(Nc2nc(OCC3CCCCC3)c3[nH]cnc3n2)c1
 SMILES IDX 8 1 9 2 10 3 19 4 20 5 21 6 22 7 23 8 24 9 7 11 6 13 2 14
 SMILES IDX 3 15 25 16 4 17 5 18 1 19 11 20 12 21 13 22 14 23 18 24
 SMILES IDX 15 25 17 26 16 27
 H PARENT 20 10 7 12

>  <TORSDO>
F 5

$$$$
