/home/pchatterjee/Documents/git/vs_workflow/DiffDock/diffdock_run/pdbqt_scrubbed/5329573.pdbqt
 OpenBabel10272516423D

 29 32  0  0  1  0  0  0  0  0999 V2000
   -2.2610   -0.6100    1.5490 N   0  0  0  0  0  0  0  0  0  0  0  0
   -1.3800   -0.9810    1.8720 H   0  0  0  0  0  0  0  0  0  0  0  0
   -3.3430   -1.4970    1.5220 C   0  0  0  0  0  0  0  0  0  0  0  0
   -5.4940   -3.3530    1.6210 C   0  0  0  0  0  0  0  0  0  0  0  0
   -4.2750   -3.6420    2.2430 C   0  0  0  0  0  3  0  0  0  0  0  0
   -5.6280   -2.1350    0.9470 C   0  0  0  0  0  3  0  0  0  0  0  0
   -3.2210   -2.7220    2.1950 C   0  0  0  0  0  3  0  0  0  0  0  0
   -4.5680   -1.2180    0.9110 C   0  0  0  0  0  3  0  0  0  0  0  0
   -6.6350   -4.3400    1.6640 C   0  0  0  0  0  2  0  0  0  0  0  0
   -6.5160   -5.3990    0.6510 C   0  0  0  0  0  0  0  0  0  0  0  0
   -6.4470   -6.2540   -0.1310 N   0  0  0  0  0  0  0  0  0  0  0  0
   -2.0520    0.6780    1.0550 C   0  0  2  0  0  3  0  0  0  0  0  0
   -0.7730    1.1020    1.1740 N   0  0  0  0  0  0  0  0  0  0  0  0
   -3.0540    1.3920    0.5340 N   0  0  0  0  0  0  0  0  0  0  0  0
   -0.4350    2.3290    0.7350 C   0  0  0  0  0  0  0  0  0  0  0  0
   -2.7040    2.6110    0.1000 C   0  0  0  0  0  0  0  0  0  0  0  0
   -1.4200    3.1010    0.1800 C   0  0  2  0  0  3  0  0  0  0  0  0
   -3.5390    3.5280   -0.4820 N   0  0  0  0  0  0  0  0  0  0  0  0
   -1.4770    4.3480   -0.3710 N   0  0  0  0  0  0  0  0  0  0  0  0
   -2.7730    4.5620   -0.7550 C   0  0  0  0  0  3  0  0  0  0  0  0
   -0.7010    4.9870   -0.4780 H   0  0  0  0  0  0  0  0  0  0  0  0
    0.8540    2.8010    0.8030 O   0  0  0  0  0  0  0  0  0  0  0  0
    1.7950    1.9480    1.4590 C   0  0  0  0  0  2  0  0  0  0  0  0
    2.7480    1.2680    0.4590 C   0  0  0  0  0  3  0  0  0  0  0  0
    2.0260    0.2460   -0.4320 C   0  0  0  0  0  2  0  0  0  0  0  0
    3.4860    2.3000   -0.4110 C   0  0  0  0  0  2  0  0  0  0  0  0
    2.9920   -0.4320   -1.4020 C   0  0  0  0  0  2  0  0  0  0  0  0
    4.4510    1.6260   -1.3840 C   0  0  0  0  0  2  0  0  0  0  0  0
    3.7430    0.5890   -2.2500 C   0  0  0  0  0  2  0  0  0  0  0  0
  1  2  1  0  0  0  0
  3  1  1  0  0  0  0
  3  7  1  0  0  0  0
  4  9  1  0  0  0  0
  4  5  1  0  0  0  0
  6  4  2  0  0  0  0
  7  5  2  0  0  0  0
  8  6  1  0  0  0  0
  8  3  2  0  0  0  0
 10  9  1  0  0  0  0
 11 10  3  0  0  0  0
 12 13  1  0  0  0  0
 12  1  1  1  0  0  0
 14 12  1  0  0  0  0
 15 22  1  0  0  0  0
 15 13  2  0  0  0  0
 16 14  2  0  0  0  0
 17 16  1  6  0  0  0
 17 15  1  0  0  0  0
 18 16  1  0  0  0  0
 19 17  1  0  0  0  0
 20 18  2  0  0  0  0
 20 19  1  0  0  0  0
 21 19  1  0  0  0  0
 22 23  1  0  0  0  0
 24 23  1  0  0  0  0
 25 24  1  0  0  0  0
 26 24  1  0  0  0  0
 27 25  1  0  0  0  0
 28 26  1  0  0  0  0
 29 27  1  0  0  0  0
 29 28  1  0  0  0  0
M  END
>  <REMARK>
 SMILES N#CCc1ccc(Nc2nc(OCC3CCCCC3)c3[nH]cnc3n2)cc1
 SMILES IDX 8 1 7 3 4 4 5 5 27 6 6 7 26 8 3 9 2 10 1 11 9 12 10 13 25 14
 SMILES IDX 11 15 24 16 20 17 23 18 21 19 22 20 12 22 13 23 14 24 15 25
 SMILES IDX 19 26 16 27 18 28 17 29
 H PARENT 8 2 21 21

>  <TORSDO>
F 7

$$$$
