/home/pchatterjee/Documents/git/vs_workflow/DiffDock/diffdock_run/pdbqt_scrubbed/5329564.pdbqt
 OpenBabel10272516423D

 30 33  0  0  1  0  0  0  0  0999 V2000
   -0.8820    2.5630   -0.8600 C   0  0  0  0  0  0  0  0  0  0  0  0
   -0.3350    1.8920    0.1760 N   0  0  0  0  0  0  0  0  0  0  0  0
    0.1520    2.5800    1.2250 C   0  0  0  0  0  0  0  0  0  0  0  0
    0.0880    3.9460    1.1850 C   0  0  2  0  0  3  0  0  0  0  0  0
    0.4860    4.9590    2.0050 N   0  0  0  0  0  0  0  0  0  0  0  0
    0.1140    6.1330    1.4080 C   0  0  0  0  0  2  0  0  0  0  0  0
   -0.4870    5.9260    0.2570 N   0  0  0  0  0  0  0  0  0  0  0  0
   -0.5050    4.5640    0.1080 C   0  0  0  0  0  0  0  0  0  0  0  0
   -1.0160    3.8940   -0.9350 N   0  0  0  0  0  0  0  0  0  0  0  0
    0.9630    4.8550    2.8900 H   0  0  0  0  0  0  0  0  0  0  0  0
   -1.3730    1.8850   -1.9780 N   0  0  0  0  0  0  0  0  0  0  0  0
   -1.7310    2.5730   -2.6280 H   0  0  0  0  0  0  0  0  0  0  0  0
   -1.2970    0.5660   -2.4350 C   0  0  0  0  0  0  0  0  0  0  0  0
   -1.2530   -2.0570   -3.4590 C   0  0  0  0  0  0  0  0  0  0  0  0
   -1.9110   -1.0520   -4.1660 C   0  0  0  0  0  3  0  0  0  0  0  0
   -0.6160   -1.7710   -2.2540 C   0  0  0  0  0  3  0  0  0  0  0  0
   -1.9370    0.2450   -3.6470 C   0  0  0  0  0  3  0  0  0  0  0  0
   -0.6480   -0.4660   -1.7490 C   0  0  0  0  0  3  0  0  0  0  0  0
   -1.1650   -3.6960   -4.1420 S   0  0  0  0  0  0  0  0  0  0  0  0
   -2.6920   -4.4350   -3.6340 C   0  0  0  0  0  1  0  0  0  0  0  0
   -0.0830   -4.3980   -3.4780 O   0  0  0  0  0  0  0  0  0  0  0  0
   -1.1880   -3.5650   -5.5840 O   0  0  0  0  0  0  0  0  0  0  0  0
    0.7830    1.9390    2.2670 O   0  0  0  0  0  0  0  0  0  0  0  0
    0.2340    0.6550    2.5590 C   0  0  0  0  0  2  0  0  0  0  0  0
    1.2100   -0.1970    3.3970 C   0  0  0  0  0  3  0  0  0  0  0  0
    2.4980   -0.5450    2.6310 C   0  0  0  0  0  2  0  0  0  0  0  0
    1.5290    0.4160    4.7730 C   0  0  0  0  0  2  0  0  0  0  0  0
    3.5430    0.5670    2.6130 C   0  0  0  0  0  2  0  0  0  0  0  0
    2.5840    1.5190    4.7490 C   0  0  0  0  0  2  0  0  0  0  0  0
    3.8460    1.0850    4.0160 C   0  0  0  0  0  2  0  0  0  0  0  0
  1  2  1  0  0  0  0
  2  3  2  0  0  0  0
  3 23  1  0  0  0  0
  4  8  1  1  0  0  0
  4  3  1  0  0  0  0
  4  5  1  0  0  0  0
  5 10  1  0  0  0  0
  6  5  1  0  0  0  0
  7  6  1  0  0  0  0
  8  7  2  0  0  0  0
  9  1  2  0  0  0  0
  9  8  1  0  0  0  0
 11  1  1  0  0  0  0
 12 11  1  0  0  0  0
 13 11  1  0  0  0  0
 13 18  1  0  0  0  0
 14 16  1  0  0  0  0
 15 17  1  0  0  0  0
 15 14  2  0  0  0  0
 16 18  2  0  0  0  0
 17 13  2  0  0  0  0
 19 20  1  0  0  0  0
 19 21  2  0  0  0  0
 19 14  1  0  0  0  0
 22 19  2  0  0  0  0
 23 24  1  0  0  0  0
 24 25  1  0  0  0  0
 25 27  1  0  0  0  0
 26 25  1  0  0  0  0
 28 26  1  0  0  0  0
 28 30  1  0  0  0  0
 29 27  1  0  0  0  0
 30 29  1  0  0  0  0
M  END
>  <REMARK>
 SMILES CS(=O)(=O)c1ccc(Nc2nc(OCC3CCCCC3)c3[nH]cnc3n2)cc1
 SMILES IDX 10 1 11 2 12 3 21 4 22 5 23 6 24 7 25 8 26 9 9 11 8 13 5 14
 SMILES IDX 6 15 28 16 7 17 27 18 2 19 1 20 3 21 4 22 13 23 14 24 15 25
 SMILES IDX 16 26 20 27 17 28 19 29 18 30
 H PARENT 22 10 9 12

>  <TORSDO>
F 6

$$$$
