/home/pchatterjee/Documents/git/vs_workflow/DiffDock/diffdock_run/pdbqt_scrubbed/5329558.pdbqt
 OpenBabel10272516423D

 27 30  0  0  1  0  0  0  0  0999 V2000
    1.9560   -0.2590    0.7850 C   0  0  0  0  0  0  0  0  0  0  0  0
    1.1650    0.8370    0.7240 N   0  0  0  0  0  0  0  0  0  0  0  0
    0.6900    1.3770    1.8620 C   0  0  0  0  0  0  0  0  0  0  0  0
    1.0230    0.7720    3.0440 C   0  0  1  0  0  3  0  0  0  0  0  0
    0.7390    0.9950    4.3590 N   0  0  0  0  0  0  0  0  0  0  0  0
    1.3820    0.0270    5.0830 C   0  0  0  0  0  2  0  0  0  0  0  0
    2.0530   -0.7960    4.3060 N   0  0  0  0  0  0  0  0  0  0  0  0
    1.8330   -0.3410    3.0320 C   0  0  0  0  0  0  0  0  0  0  0  0
    2.3220   -0.8830    1.9090 N   0  0  0  0  0  0  0  0  0  0  0  0
    0.1610    1.7390    4.7260 H   0  0  0  0  0  0  0  0  0  0  0  0
    2.3770   -0.7110   -0.4660 N   0  0  0  0  0  0  0  0  0  0  0  0
    1.9840   -0.1120   -1.1770 H   0  0  0  0  0  0  0  0  0  0  0  0
    3.1690   -1.7790   -0.9010 C   0  0  0  0  0  0  0  0  0  0  0  0
    4.7450   -3.8770   -1.9100 C   0  0  0  0  0  0  0  0  0  0  0  0
    4.1640   -2.9750   -2.7880 C   0  0  0  0  0  3  0  0  0  0  0  0
    4.5560   -3.7530   -0.5420 C   0  0  0  0  0  3  0  0  0  0  0  0
    3.3820   -1.9330   -2.2840 C   0  0  0  0  0  3  0  0  0  0  0  0
    3.7720   -2.7070   -0.0420 C   0  0  0  0  0  3  0  0  0  0  0  0
    5.4960   -4.8780   -2.3890 F   0  0  0  0  0  0  0  0  0  0  0  0
   -0.1420    2.4730    1.8570 O   0  0  0  0  0  0  0  0  0  0  0  0
   -0.2940    3.1270    0.5950 C   0  0  0  0  0  2  0  0  0  0  0  0
   -1.7130    2.9110    0.0410 C   0  0  0  0  0  3  0  0  0  0  0  0
   -1.9370    3.7940   -1.1960 C   0  0  0  0  0  2  0  0  0  0  0  0
   -1.9880    1.4350   -0.2900 C   0  0  0  0  0  2  0  0  0  0  0  0
   -3.3250    3.5900   -1.7990 C   0  0  0  0  0  2  0  0  0  0  0  0
   -3.3740    1.2370   -0.9000 C   0  0  0  0  0  2  0  0  0  0  0  0
   -3.5850    2.1230   -2.1230 C   0  0  0  0  0  2  0  0  0  0  0  0
  1  9  2  0  0  0  0
  2  1  1  0  0  0  0
  2  3  2  0  0  0  0
  4  3  1  6  0  0  0
  4  5  1  0  0  0  0
  5 10  1  0  0  0  0
  5  6  1  0  0  0  0
  7  6  1  0  0  0  0
  8  4  1  0  0  0  0
  8  7  2  0  0  0  0
  9  8  1  0  0  0  0
 11  1  1  0  0  0  0
 12 11  1  0  0  0  0
 13 11  1  0  0  0  0
 13 18  1  0  0  0  0
 14 16  1  0  0  0  0
 15 17  1  0  0  0  0
 15 14  2  0  0  0  0
 16 18  2  0  0  0  0
 17 13  2  0  0  0  0
 19 14  1  0  0  0  0
 20  3  1  0  0  0  0
 21 20  1  0  0  0  0
 22 21  1  0  0  0  0
 23 22  1  0  0  0  0
 24 22  1  0  0  0  0
 25 23  1  0  0  0  0
 26 24  1  0  0  0  0
 27 25  1  0  0  0  0
 27 26  1  0  0  0  0
M  END
>  <REMARK>
 SMILES Fc1ccc(Nc2nc(OCC3CCCCC3)c3[nH]cnc3n2)cc1
 SMILES IDX 7 1 8 2 9 3 18 4 19 5 20 6 21 7 22 8 23 9 6 11 5 13 2 14
 SMILES IDX 3 15 25 16 4 17 24 18 1 19 10 20 11 21 12 22 13 23 17 24
 SMILES IDX 14 25 16 26 15 27
 H PARENT 19 10 6 12

>  <TORSDO>
F 5

$$$$
