/home/pchatterjee/Documents/git/vs_workflow/DiffDock/diffdock_run/pdbqt_scrubbed/5329554.pdbqt
 OpenBabel10272516423D

 28 31  0  0  1  0  0  0  0  0999 V2000
   -3.0490   -0.3550   -0.5350 C   0  0  0  0  0  0  0  0  0  0  0  0
   -1.7100   -0.2080   -0.4560 N   0  0  0  0  0  0  0  0  0  0  0  0
   -0.9690   -0.2480   -1.5770 C   0  0  0  0  0  0  0  0  0  0  0  0
   -1.6170   -0.4330   -2.7670 C   0  0  1  0  0  3  0  0  0  0  0  0
   -1.2340   -0.5200   -4.0730 N   0  0  0  0  0  0  0  0  0  0  0  0
   -2.3670   -0.7220   -4.8130 C   0  0  0  0  0  2  0  0  0  0  0  0
   -3.4430   -0.7640   -4.0550 N   0  0  0  0  0  0  0  0  0  0  0  0
   -2.9840   -0.5820   -2.7770 C   0  0  0  0  0  0  0  0  0  0  0  0
   -3.7380   -0.5510   -1.6680 N   0  0  0  0  0  0  0  0  0  0  0  0
   -0.2880   -0.4510   -4.4220 H   0  0  0  0  0  0  0  0  0  0  0  0
   -3.8390   -0.3340    0.6140 N   0  0  0  0  0  0  0  0  0  0  0  0
   -4.8020   -0.4940    0.3510 H   0  0  0  0  0  0  0  0  0  0  0  0
   -3.5890   -0.0770    1.9660 C   0  0  0  0  0  0  0  0  0  0  0  0
   -2.1400    0.5730    3.8370 C   0  0  0  0  0  0  0  0  0  0  0  0
   -3.1830    0.3290    4.7340 C   0  0  0  0  0  3  0  0  0  0  0  0
   -2.3550    0.3600    2.4630 C   0  0  0  0  0  3  0  0  0  0  0  0
   -4.4170   -0.1120    4.2640 C   0  0  0  0  0  3  0  0  0  0  0  0
   -4.6140   -0.3130    2.8950 C   0  0  0  0  0  3  0  0  0  0  0  0
   -0.7930    1.0380    4.3300 C   0  0  0  0  0  2  0  0  0  0  0  0
    0.2150   -0.1010    4.3980 C   0  0  0  0  0  1  0  0  0  0  0  0
    0.4000   -0.1060   -1.5440 O   0  0  0  0  0  0  0  0  0  0  0  0
    0.9250   -0.0270   -0.2210 C   0  0  0  0  0  2  0  0  0  0  0  0
    2.4660    0.0440   -0.2300 C   0  0  0  0  0  3  0  0  0  0  0  0
    3.0010    1.3400   -0.8640 C   0  0  0  0  0  2  0  0  0  0  0  0
    3.1190   -1.2000   -0.8600 C   0  0  0  0  0  2  0  0  0  0  0  0
    3.0360    1.3290   -2.3900 C   0  0  0  0  0  2  0  0  0  0  0  0
    3.1660   -1.1910   -2.3870 C   0  0  0  0  0  2  0  0  0  0  0  0
    3.7620    0.1030   -2.9290 C   0  0  0  0  0  2  0  0  0  0  0  0
  1  2  1  0  0  0  0
  1 11  1  0  0  0  0
  3 21  1  0  0  0  0
  3  2  2  0  0  0  0
  4  8  1  1  0  0  0
  4  3  1  0  0  0  0
  5  4  1  0  0  0  0
  6  5  1  0  0  0  0
  6  7  1  0  0  0  0
  7  8  2  0  0  0  0
  8  9  1  0  0  0  0
  9  1  2  0  0  0  0
 10  5  1  0  0  0  0
 11 13  1  0  0  0  0
 12 11  1  0  0  0  0
 13 16  2  0  0  0  0
 13 18  1  0  0  0  0
 14 19  1  0  0  0  0
 14 15  2  0  0  0  0
 16 14  1  0  0  0  0
 17 15  1  0  0  0  0
 18 17  2  0  0  0  0
 19 20  1  0  0  0  0
 21 22  1  0  0  0  0
 23 22  1  0  0  0  0
 24 23  1  0  0  0  0
 25 23  1  0  0  0  0
 26 24  1  0  0  0  0
 27 25  1  0  0  0  0
 28 26  1  0  0  0  0
 28 27  1  0  0  0  0
M  END
>  <REMARK>
 SMILES CCc1cccc(Nc2nc(OCC3CCCCC3)c3[nH]cnc3n2)c1
 SMILES IDX 9 1 10 2 11 3 20 4 21 5 22 6 23 7 24 8 25 9 8 11 7 13 3 14
 SMILES IDX 4 15 26 16 5 17 6 18 2 19 1 20 12 21 13 22 14 23 15 24 19 25
 SMILES IDX 16 26 18 27 17 28
 H PARENT 21 10 8 12

>  <TORSDO>
F 6

$$$$
