/home/pchatterjee/Documents/git/vs_workflow/DiffDock/diffdock_run/pdbqt_scrubbed/5329572.pdbqt
 OpenBabel10272516423D

 32 35  0  0  1  0  0  0  0  0999 V2000
    1.2130   -2.2360   -0.7340 N   0  0  0  0  0  0  0  0  0  0  0  0
    1.7490   -2.9800   -1.1560 H   0  0  0  0  0  0  0  0  0  0  0  0
    1.4390   -1.9850    0.6220 C   0  0  0  0  0  0  0  0  0  0  0  0
    1.9430   -1.6170    3.3960 C   0  0  0  0  0  0  0  0  0  0  0  0
    2.5130   -2.6910    2.7050 C   0  0  0  0  0  3  0  0  0  0  0  0
    1.1210   -0.7330    2.6930 C   0  0  0  0  0  3  0  0  0  0  0  0
    2.2600   -2.8700    1.3400 C   0  0  0  0  0  3  0  0  0  0  0  0
    0.8750   -0.9200    1.3260 C   0  0  0  0  0  3  0  0  0  0  0  0
    2.2160   -1.4100    4.8640 C   0  0  0  0  0  2  0  0  0  0  0  0
    1.6240   -2.4950    5.7450 C   0  0  0  0  0  0  0  0  0  0  0  0
    2.5050   -3.1010    6.5980 N   0  0  0  0  0  0  0  0  0  0  0  0
    2.1440   -3.8780    7.1380 H   0  0  0  0  0  0  0  0  0  0  0  0
    3.5050   -3.0120    6.4990 H   0  0  0  0  0  0  0  0  0  0  0  0
    0.4430   -2.8240    5.7420 O   0  0  0  0  0  0  0  0  0  0  0  0
    0.4070   -1.6580   -1.7170 C   0  0  2  0  0  3  0  0  0  0  0  0
   -0.4460   -0.6550   -1.4180 N   0  0  0  0  0  0  0  0  0  0  0  0
    0.5650   -2.1990   -2.9330 N   0  0  0  0  0  0  0  0  0  0  0  0
   -1.2200   -0.1270   -2.3840 C   0  0  0  0  0  0  0  0  0  0  0  0
   -0.2050   -1.6560   -3.8870 C   0  0  0  0  0  0  0  0  0  0  0  0
   -1.0930   -0.6330   -3.6500 C   0  0  2  0  0  3  0  0  0  0  0  0
   -0.2260   -2.0220   -5.2070 N   0  0  0  0  0  0  0  0  0  0  0  0
   -1.6680   -0.3680   -4.8580 N   0  0  0  0  0  0  0  0  0  0  0  0
   -1.1170   -1.2310   -5.7660 C   0  0  0  0  0  3  0  0  0  0  0  0
   -2.3720    0.3330   -5.0410 H   0  0  0  0  0  0  0  0  0  0  0  0
   -2.0890    0.9120   -2.1420 O   0  0  0  0  0  0  0  0  0  0  0  0
   -2.2620    1.2750   -0.7710 C   0  0  0  0  0  2  0  0  0  0  0  0
   -1.7160    2.6890   -0.4890 C   0  0  0  0  0  3  0  0  0  0  0  0
   -0.1930    2.8030   -0.7140 C   0  0  0  0  0  2  0  0  0  0  0  0
   -2.5010    3.7520   -1.2840 C   0  0  0  0  0  2  0  0  0  0  0  0
    0.1600    3.4660   -2.0410 C   0  0  0  0  0  2  0  0  0  0  0  0
   -1.7260    5.0610   -1.3800 C   0  0  0  0  0  2  0  0  0  0  0  0
   -0.4070    4.8830   -2.1350 C   0  0  0  0  0  2  0  0  0  0  0  0
  1  3  1  0  0  0  0
  2  1  1  0  0  0  0
  3  8  2  0  0  0  0
  3  7  1  0  0  0  0
  4  9  1  0  0  0  0
  5  4  1  0  0  0  0
  6  4  2  0  0  0  0
  7  5  2  0  0  0  0
  8  6  1  0  0  0  0
  9 10  1  0  0  0  0
 10 11  1  0  0  0  0
 11 12  1  0  0  0  0
 13 11  1  0  0  0  0
 14 10  2  0  0  0  0
 15 16  1  0  0  0  0
 15  1  1  1  0  0  0
 17 15  1  0  0  0  0
 18 25  1  0  0  0  0
 18 16  2  0  0  0  0
 19 17  2  0  0  0  0
 20 19  1  6  0  0  0
 20 18  1  0  0  0  0
 21 19  1  0  0  0  0
 22 20  1  0  0  0  0
 23 21  2  0  0  0  0
 23 22  1  0  0  0  0
 24 22  1  0  0  0  0
 25 26  1  0  0  0  0
 26 27  1  0  0  0  0
 28 27  1  0  0  0  0
 29 27  1  0  0  0  0
 30 28  1  0  0  0  0
 31 29  1  0  0  0  0
 32 30  1  0  0  0  0
 32 31  1  0  0  0  0
M  END
>  <REMARK>
 SMILES NC(=O)Cc1ccc(Nc2nc(OCC3CCCCC3)c3[nH]cnc3n2)cc1
 SMILES IDX 9 1 8 3 5 4 6 5 28 6 7 7 27 8 4 9 2 10 1 11 3 14 10 15 11 16
 SMILES IDX 26 17 12 18 25 19 21 20 24 21 22 22 23 23 13 25 14 26 15 27
 SMILES IDX 16 28 20 29 17 30 19 31 18 32
 H PARENT 9 2 1 12 1 13 22 24

>  <TORSDO>
F 7

$$$$
