/home/pchatterjee/Documents/git/vs_workflow/DiffDock/diffdock_run/pdbqt_scrubbed/5329562.pdbqt
 OpenBabel10272516423D

 32 35  0  0  1  0  0  0  0  0999 V2000
   -1.9570   -1.6660   -0.6370 N   0  0  0  0  0  0  0  0  0  0  0  0
   -2.4730   -2.5340   -0.5800 H   0  0  0  0  0  0  0  0  0  0  0  0
   -1.9770   -0.9960   -1.8640 C   0  0  0  0  0  0  0  0  0  0  0  0
   -2.1120    0.2570   -4.3850 C   0  0  0  0  0  0  0  0  0  0  0  0
   -2.8380   -0.9100   -4.1550 C   0  0  0  0  0  3  0  0  0  0  0  0
   -1.3370    0.8150   -3.3700 C   0  0  0  0  0  3  0  0  0  0  0  0
   -2.7630   -1.5280   -2.9030 C   0  0  0  0  0  3  0  0  0  0  0  0
   -1.2720    0.1860   -2.1210 C   0  0  0  0  0  3  0  0  0  0  0  0
   -2.2030    1.0680   -5.9590 S   0  0  0  0  0  0  0  0  0  0  0  0
   -2.1950    2.4940   -5.7190 O   0  0  0  0  0  0  0  0  0  0  0  0
   -3.2270    0.4340   -6.7590 O   0  0  0  0  0  0  0  0  0  0  0  0
   -0.7110    0.6960   -6.6310 N   0  0  0  0  0  0  0  0  0  0  0  0
   -0.5450   -0.5850   -7.3020 C   0  0  0  0  0  1  0  0  0  0  0  0
   -0.2330    1.5130   -7.0080 H   0  0  0  0  0  0  0  0  0  0  0  0
   -1.3530   -1.4330    0.5990 C   0  0  1  0  0  3  0  0  0  0  0  0
   -0.6100   -0.3270    0.8130 N   0  0  0  0  0  0  0  0  0  0  0  0
   -1.5940   -2.3910    1.5060 N   0  0  0  0  0  0  0  0  0  0  0  0
   -0.0500   -0.1280    2.0210 C   0  0  0  0  0  0  0  0  0  0  0  0
   -1.0250   -2.1780    2.7020 C   0  0  0  0  0  0  0  0  0  0  0  0
   -0.2590   -1.0730    2.9890 C   0  0  2  0  0  3  0  0  0  0  0  0
   -1.1170   -3.0030    3.7920 N   0  0  0  0  0  0  0  0  0  0  0  0
    0.1250   -1.2280    4.2880 N   0  0  0  0  0  0  0  0  0  0  0  0
   -0.4150   -2.4050    4.7310 C   0  0  0  0  0  3  0  0  0  0  0  0
    0.7000   -0.5890    4.8200 H   0  0  0  0  0  0  0  0  0  0  0  0
    0.7130    0.9850    2.2920 O   0  0  0  0  0  0  0  0  0  0  0  0
    0.7980    1.8910    1.1900 C   0  0  0  0  0  2  0  0  0  0  0  0
    1.6420    3.1150    1.5890 C   0  0  0  0  0  3  0  0  0  0  0  0
    1.0310    3.8770    2.7840 C   0  0  0  0  0  2  0  0  0  0  0  0
    3.1090    2.7140    1.8390 C   0  0  0  0  0  2  0  0  0  0  0  0
    1.7530    3.5990    4.0980 C   0  0  0  0  0  2  0  0  0  0  0  0
    3.8470    3.7800    2.6390 C   0  0  0  0  0  2  0  0  0  0  0  0
    3.2350    3.9730    4.0270 C   0  0  0  0  0  2  0  0  0  0  0  0
  1  2  1  0  0  0  0
  3  1  1  0  0  0  0
  4  5  2  0  0  0  0
  4  6  1  0  0  0  0
  5  7  1  0  0  0  0
  6  8  2  0  0  0  0
  7  3  2  0  0  0  0
  8  3  1  0  0  0  0
  9 10  2  0  0  0  0
  9  4  1  0  0  0  0
 11  9  2  0  0  0  0
 12  9  1  0  0  0  0
 13 12  1  0  0  0  0
 14 12  1  0  0  0  0
 15  1  1  1  0  0  0
 15 16  1  0  0  0  0
 15 17  1  0  0  0  0
 16 18  2  0  0  0  0
 17 19  2  0  0  0  0
 18 25  1  0  0  0  0
 19 20  1  0  0  0  0
 19 21  1  0  0  0  0
 20 18  1  1  0  0  0
 20 22  1  0  0  0  0
 21 23  2  0  0  0  0
 22 23  1  0  0  0  0
 22 24  1  0  0  0  0
 26 27  1  0  0  0  0
 26 25  1  0  0  0  0
 27 29  1  0  0  0  0
 27 28  1  0  0  0  0
 28 30  1  0  0  0  0
 29 31  1  0  0  0  0
 31 32  1  0  0  0  0
 32 30  1  0  0  0  0
M  END
>  <REMARK>
 SMILES CNS(=O)(=O)c1ccc(Nc2nc(OCC3CCCCC3)c3[nH]cnc3n2)cc1
 SMILES IDX 10 1 9 3 6 4 7 5 29 6 8 7 28 8 3 9 4 10 5 11 2 12 1 13 11 15
 SMILES IDX 12 16 27 17 13 18 26 19 22 20 25 21 23 22 24 23 14 25 15 26
 SMILES IDX 16 27 17 28 21 29 18 30 20 31 19 32
 H PARENT 10 2 2 14 23 24

>  <TORSDO>
F 7

$$$$
