/home/pchatterjee/Documents/git/vs_workflow/DiffDock/diffdock_run/pdbqt_scrubbed/5329551.pdbqt
 OpenBabel10272516423D

 27 30  0  0  1  0  0  0  0  0999 V2000
    1.3530   -1.8300    0.6580 C   0  0  0  0  0  0  0  0  0  0  0  0
    1.0950   -0.5790    0.2080 N   0  0  0  0  0  0  0  0  0  0  0  0
    0.4020   -0.4210   -0.9380 C   0  0  0  0  0  0  0  0  0  0  0  0
    0.0010   -1.5440   -1.6070 C   0  0  1  0  0  3  0  0  0  0  0  0
   -0.6820   -1.7890   -2.7620 N   0  0  0  0  0  0  0  0  0  0  0  0
   -0.7680   -3.1480   -2.9000 C   0  0  0  0  0  2  0  0  0  0  0  0
   -0.1870   -3.7780   -1.8990 N   0  0  0  0  0  0  0  0  0  0  0  0
    0.3010   -2.7850   -1.0900 C   0  0  0  0  0  0  0  0  0  0  0  0
    0.9790   -2.9610    0.0520 N   0  0  0  0  0  0  0  0  0  0  0  0
   -1.0510   -1.0920   -3.3970 H   0  0  0  0  0  0  0  0  0  0  0  0
    2.0710   -1.8580    1.8560 N   0  0  0  0  0  0  0  0  0  0  0  0
    2.2350   -0.9080    2.1560 H   0  0  0  0  0  0  0  0  0  0  0  0
    2.4710   -2.8800    2.7240 C   0  0  0  0  0  0  0  0  0  0  0  0
    2.6350   -5.1940    3.4280 C   0  0  0  0  0  0  0  0  0  0  0  0
    3.3320   -4.8360    4.5740 C   0  0  0  0  0  3  0  0  0  0  0  0
    2.2110   -4.2360    2.5090 C   0  0  0  0  0  3  0  0  0  0  0  0
    3.6220   -3.4950    4.7990 C   0  0  0  0  0  3  0  0  0  0  0  0
    3.2000   -2.5300    3.8770 C   0  0  0  0  0  3  0  0  0  0  0  0
    2.3630   -6.4870    3.2060 F   0  0  0  0  0  0  0  0  0  0  0  0
    0.0890    0.8230   -1.4320 O   0  0  0  0  0  0  0  0  0  0  0  0
    0.5690    1.8990   -0.6290 C   0  0  0  0  0  2  0  0  0  0  0  0
    0.0540    3.2470   -1.1780 C   0  0  0  0  0  3  0  0  0  0  0  0
    0.5410    3.5390   -2.6070 C   0  0  0  0  0  2  0  0  0  0  0  0
   -1.4800    3.3610   -1.0540 C   0  0  0  0  0  2  0  0  0  0  0  0
   -0.1910    2.7720   -3.7080 C   0  0  0  0  0  2  0  0  0  0  0  0
   -2.2220    3.5070   -2.3830 C   0  0  0  0  0  2  0  0  0  0  0  0
   -1.6780    2.5510   -3.4330 C   0  0  0  0  0  2  0  0  0  0  0  0
  1 11  1  0  0  0  0
  2  1  1  0  0  0  0
  3  2  2  0  0  0  0
  4  8  1  6  0  0  0
  4  3  1  0  0  0  0
  5  4  1  0  0  0  0
  6  5  1  0  0  0  0
  6  7  1  0  0  0  0
  7  8  2  0  0  0  0
  8  9  1  0  0  0  0
  9  1  2  0  0  0  0
 10  5  1  0  0  0  0
 11 12  1  0  0  0  0
 11 13  1  0  0  0  0
 13 18  1  0  0  0  0
 14 15  2  0  0  0  0
 15 17  1  0  0  0  0
 16 13  2  0  0  0  0
 16 14  1  0  0  0  0
 18 17  2  0  0  0  0
 19 14  1  0  0  0  0
 20  3  1  0  0  0  0
 20 21  1  0  0  0  0
 22 24  1  0  0  0  0
 22 21  1  0  0  0  0
 23 22  1  0  0  0  0
 25 27  1  0  0  0  0
 25 23  1  0  0  0  0
 26 24  1  0  0  0  0
 27 26  1  0  0  0  0
M  END
>  <REMARK>
 SMILES Fc1cccc(Nc2nc(OCC3CCCCC3)c3[nH]cnc3n2)c1
 SMILES IDX 8 1 9 2 10 3 19 4 20 5 21 6 22 7 23 8 24 9 7 11 6 13 2 14
 SMILES IDX 3 15 25 16 4 17 5 18 1 19 11 20 12 21 13 22 14 23 18 24
 SMILES IDX 15 25 17 26 16 27
 H PARENT 20 10 7 12

>  <TORSDO>
F 5

$$$$
