/home/pchatterjee/Documents/git/vs_workflow/DiffDock/diffdock_run/pdbqt_scrubbed/5329506.pdbqt
 OpenBabel10272516423D

 23 25  0  0  1  0  0  0  0  0999 V2000
    0.3120   -1.9270   -0.0700 O   0  0  0  0  0  0  0  0  0  0  0  0
    1.7350   -1.9190    0.0990 C   0  0  0  0  0  2  0  0  0  0  0  0
    2.2460   -0.5550    0.5330 C   0  0  0  0  0  0  0  0  0  0  0  0
    3.3540   -0.0230   -0.0130 C   0  0  0  0  0  2  0  0  0  0  0  0
    1.4960    0.1830    1.5780 C   0  0  0  0  0  0  0  0  0  0  0  0
    1.2230    1.5540    1.4340 C   0  0  0  0  0  3  0  0  0  0  0  0
    0.9840   -0.4790    2.7040 C   0  0  0  0  0  3  0  0  0  0  0  0
    0.4690    2.2420    2.3880 C   0  0  0  0  0  3  0  0  0  0  0  0
    0.2300    0.2100    3.6590 C   0  0  0  0  0  3  0  0  0  0  0  0
   -0.0270    1.5690    3.5010 C   0  0  0  0  0  3  0  0  0  0  0  0
   -0.0640   -1.2810   -1.2230 C   0  0  0  0  0  0  0  0  0  0  0  0
    0.4350   -1.6690   -2.4090 N   0  0  0  0  0  0  0  0  0  0  0  0
   -0.9970   -0.2800   -1.1990 C   0  0  1  0  0  3  0  0  0  0  0  0
   -0.0110   -1.0470   -3.5160 C   0  0  1  0  0  3  0  0  0  0  0  0
   -1.6960    0.3650   -0.2220 N   0  0  0  0  0  0  0  0  0  0  0  0
   -1.3790    0.3180   -2.3790 C   0  0  0  0  0  0  0  0  0  0  0  0
   -0.8900   -0.0440   -3.5760 N   0  0  0  0  0  0  0  0  0  0  0  0
   -2.4610    1.3190   -0.8380 C   0  0  0  0  0  3  0  0  0  0  0  0
   -2.2910    1.3130   -2.1440 N   0  0  0  0  0  0  0  0  0  0  0  0
   -1.6230    0.1960    0.7730 H   0  0  0  0  0  0  0  0  0  0  0  0
    0.5380   -1.4660   -4.7140 N   0  0  0  0  0  0  0  0  0  0  0  0
    0.4690   -0.7250   -5.3980 H   0  0  0  0  0  0  0  0  0  0  0  0
    1.4440   -1.8810   -4.5570 H   0  0  0  0  0  0  0  0  0  0  0  0
  1  2  1  0  0  0  0
  2  3  1  0  0  0  0
  3  5  1  0  0  0  0
  4  3  2  0  0  0  0
  5  7  1  0  0  0  0
  6  5  2  0  0  0  0
  6  8  1  0  0  0  0
  7  9  2  0  0  0  0
  8 10  2  0  0  0  0
 10  9  1  0  0  0  0
 11 13  1  0  0  0  0
 11  1  1  0  0  0  0
 12 11  2  0  0  0  0
 13 16  1  1  0  0  0
 13 15  1  0  0  0  0
 14 21  1  1  0  0  0
 14 12  1  0  0  0  0
 15 20  1  0  0  0  0
 16 19  1  0  0  0  0
 17 14  1  0  0  0  0
 17 16  2  0  0  0  0
 18 15  1  0  0  0  0
 19 18  2  0  0  0  0
 21 23  1  0  0  0  0
 22 21  1  0  0  0  0
M  END
>  <REMARK>
 SMILES C=C(COc1nc(N)nc2nc[nH]c12)c1ccccc1
 SMILES IDX 4 1 3 2 2 3 1 4 15 5 16 6 20 7 17 8 19 9 18 10 5 11 6 12
 SMILES IDX 14 13 7 14 13 15 10 16 9 17 12 18 11 19 8 21
 H PARENT 13 20 8 22 8 23

>  <TORSDO>
F 5

$$$$
