/home/pchatterjee/Documents/git/vs_workflow/DiffDock/diffdock_run/pdbqt_scrubbed/5329555.pdbqt
 OpenBabel10272516423D

 29 32  0  0  1  0  0  0  0  0999 V2000
   -1.1960   -3.3110   -0.9040 N   0  0  0  0  0  0  0  0  0  0  0  0
   -1.9250   -3.9980   -1.0410 H   0  0  0  0  0  0  0  0  0  0  0  0
    0.0180   -3.5380   -1.5600 C   0  0  0  0  0  0  0  0  0  0  0  0
    1.3220   -4.9800   -3.0640 C   0  0  0  0  0  0  0  0  0  0  0  0
    2.4090   -4.1090   -2.9560 C   0  0  0  0  0  3  0  0  0  0  0  0
    0.1360   -4.6790   -2.3740 C   0  0  0  0  0  3  0  0  0  0  0  0
    2.3120   -2.9730   -2.1570 C   0  0  0  0  0  3  0  0  0  0  0  0
    1.1280   -2.6950   -1.4670 C   0  0  0  0  0  3  0  0  0  0  0  0
    1.3960   -6.1930   -3.9500 C   0  0  0  0  0  2  0  0  0  0  0  0
    0.8570   -5.9090   -5.2340 O   0  0  0  0  0  0  0  0  0  0  0  0
    0.6740   -4.9550   -5.2750 H   0  0  0  0  0  0  0  0  0  0  0  0
   -1.6740   -2.3310   -0.0330 C   0  0  2  0  0  3  0  0  0  0  0  0
   -0.8970   -1.2920    0.3400 N   0  0  0  0  0  0  0  0  0  0  0  0
   -2.9360   -2.5360    0.3690 N   0  0  0  0  0  0  0  0  0  0  0  0
   -1.3890   -0.3660    1.1840 C   0  0  0  0  0  0  0  0  0  0  0  0
   -3.4090   -1.6040    1.2090 C   0  0  0  0  0  0  0  0  0  0  0  0
   -2.6720   -0.5220    1.6310 C   0  0  1  0  0  3  0  0  0  0  0  0
   -4.6620   -1.5850    1.7630 N   0  0  0  0  0  0  0  0  0  0  0  0
   -3.4990    0.1740    2.4640 N   0  0  0  0  0  0  0  0  0  0  0  0
   -4.6870   -0.5040    2.5130 C   0  0  0  0  0  3  0  0  0  0  0  0
   -3.2700    1.0300    2.9510 H   0  0  0  0  0  0  0  0  0  0  0  0
   -0.6360    0.7100    1.5980 O   0  0  0  0  0  0  0  0  0  0  0  0
    0.6780    0.7250    1.0340 C   0  0  0  0  0  2  0  0  0  0  0  0
    1.4510    1.9510    1.5470 C   0  0  0  0  0  3  0  0  0  0  0  0
    1.6990    1.8690    3.0660 C   0  0  0  0  0  2  0  0  0  0  0  0
    0.7460    3.2660    1.1900 C   0  0  0  0  0  2  0  0  0  0  0  0
    1.9500    3.2300    3.7230 C   0  0  0  0  0  2  0  0  0  0  0  0
    1.5980    4.4840    1.5590 C   0  0  0  0  0  2  0  0  0  0  0  0
    2.5310    4.2410    2.7450 C   0  0  0  0  0  2  0  0  0  0  0  0
  2  1  1  0  0  0  0
  3  8  1  0  0  0  0
  3  1  1  0  0  0  0
  4  5  2  0  0  0  0
  4  6  1  0  0  0  0
  5  7  1  0  0  0  0
  6  3  2  0  0  0  0
  7  8  2  0  0  0  0
  9  4  1  0  0  0  0
 10  9  1  0  0  0  0
 11 10  1  0  0  0  0
 12  1  1  1  0  0  0
 12 13  1  0  0  0  0
 12 14  1  0  0  0  0
 13 15  2  0  0  0  0
 14 16  2  0  0  0  0
 15 22  1  0  0  0  0
 16 17  1  0  0  0  0
 16 18  1  0  0  0  0
 17 15  1  1  0  0  0
 17 19  1  0  0  0  0
 18 20  2  0  0  0  0
 19 20  1  0  0  0  0
 19 21  1  0  0  0  0
 23 24  1  0  0  0  0
 23 22  1  0  0  0  0
 24 25  1  0  0  0  0
 25 27  1  0  0  0  0
 26 24  1  0  0  0  0
 26 28  1  0  0  0  0
 28 29  1  0  0  0  0
 29 27  1  0  0  0  0
M  END
>  <REMARK>
 SMILES OCc1cccc(Nc2nc(OCC3CCCCC3)c3[nH]cnc3n2)c1
 SMILES IDX 8 1 7 3 3 4 4 5 26 6 5 7 6 8 2 9 1 10 9 12 10 13 25 14 11 15
 SMILES IDX 24 16 20 17 23 18 21 19 22 20 12 22 13 23 14 24 15 25 19 26
 SMILES IDX 16 27 18 28 17 29
 H PARENT 8 2 1 11 21 21

>  <TORSDO>
F 7

$$$$
