/home/pchatterjee/Documents/git/vs_workflow/DiffDock/diffdock_run/pdbqt_scrubbed/5329556.pdbqt
 OpenBabel10272516423D

 28 31  0  0  1  0  0  0  0  0999 V2000
   -1.7500   -1.1910   -2.7610 C   0  0  0  0  0  0  0  0  0  0  0  0
   -2.0800   -0.6450   -1.5710 N   0  0  0  0  0  0  0  0  0  0  0  0
   -3.3090   -0.8480   -1.0630 C   0  0  0  0  0  0  0  0  0  0  0  0
   -4.1760   -1.6270   -1.7820 C   0  0  2  0  0  3  0  0  0  0  0  0
   -5.4550   -2.0660   -1.6050 N   0  0  0  0  0  0  0  0  0  0  0  0
   -5.7770   -2.8250   -2.6980 C   0  0  0  0  0  2  0  0  0  0  0  0
   -4.7800   -2.8940   -3.5530 N   0  0  0  0  0  0  0  0  0  0  0  0
   -3.7760   -2.1520   -2.9890 C   0  0  0  0  0  0  0  0  0  0  0  0
   -2.5600   -1.9460   -3.5150 N   0  0  0  0  0  0  0  0  0  0  0  0
   -6.0500   -1.8650   -0.8130 H   0  0  0  0  0  0  0  0  0  0  0  0
   -0.4880   -0.9880   -3.3220 N   0  0  0  0  0  0  0  0  0  0  0  0
   -0.4500   -1.4700   -4.2090 H   0  0  0  0  0  0  0  0  0  0  0  0
    0.6940   -0.3770   -2.8900 C   0  0  0  0  0  0  0  0  0  0  0  0
    2.9820    0.3200   -3.4410 C   0  0  0  0  0  0  0  0  0  0  0  0
    3.1270    0.8710   -2.1710 C   0  0  0  0  0  3  0  0  0  0  0  0
    1.7720   -0.2940   -3.7880 C   0  0  0  0  0  3  0  0  0  0  0  0
    2.0680    0.8080   -1.2670 C   0  0  0  0  0  3  0  0  0  0  0  0
    0.8640    0.1940   -1.6280 C   0  0  0  0  0  3  0  0  0  0  0  0
    3.9300    0.3120   -4.4280 O   0  0  0  0  0  0  0  0  0  0  0  0
    5.1750    0.9290   -4.1270 C   0  0  0  0  0  1  0  0  0  0  0  0
   -3.6940   -0.3350    0.1540 O   0  0  0  0  0  0  0  0  0  0  0  0
   -2.8040    0.6230    0.7320 C   0  0  0  0  0  2  0  0  0  0  0  0
   -2.2510    0.0900    2.0620 C   0  0  0  0  0  3  0  0  0  0  0  0
   -1.4010    1.1500    2.7680 C   0  0  0  0  0  2  0  0  0  0  0  0
   -1.4520   -1.2150    1.8770 C   0  0  0  0  0  2  0  0  0  0  0  0
   -0.9610    0.6950    4.1630 C   0  0  0  0  0  2  0  0  0  0  0  0
   -0.4400   -1.4810    2.9950 C   0  0  0  0  0  2  0  0  0  0  0  0
   -0.8450   -0.8220    4.3060 C   0  0  0  0  0  2  0  0  0  0  0  0
  1  2  1  0  0  0  0
  2  3  2  0  0  0  0
  3 21  1  0  0  0  0
  4  8  1  1  0  0  0
  4  5  1  0  0  0  0
  4  3  1  0  0  0  0
  5 10  1  0  0  0  0
  6  5  1  0  0  0  0
  7  8  2  0  0  0  0
  7  6  1  0  0  0  0
  9  8  1  0  0  0  0
  9  1  2  0  0  0  0
 11 13  1  0  0  0  0
 11  1  1  0  0  0  0
 12 11  1  0  0  0  0
 13 18  1  0  0  0  0
 14 15  2  0  0  0  0
 15 17  1  0  0  0  0
 16 14  1  0  0  0  0
 16 13  2  0  0  0  0
 18 17  2  0  0  0  0
 19 20  1  0  0  0  0
 19 14  1  0  0  0  0
 21 22  1  0  0  0  0
 22 23  1  0  0  0  0
 23 24  1  0  0  0  0
 24 26  1  0  0  0  0
 25 23  1  0  0  0  0
 25 27  1  0  0  0  0
 26 28  1  0  0  0  0
 27 28  1  0  0  0  0
M  END
>  <REMARK>
 SMILES COc1cccc(Nc2nc(OCC3CCCCC3)c3[nH]cnc3n2)c1
 SMILES IDX 9 1 10 2 11 3 20 4 21 5 22 6 23 7 24 8 25 9 8 11 7 13 3 14
 SMILES IDX 4 15 26 16 5 17 6 18 2 19 1 20 12 21 13 22 14 23 15 24 19 25
 SMILES IDX 16 26 18 27 17 28
 H PARENT 21 10 8 12

>  <TORSDO>
F 6

$$$$
