/home/pchatterjee/Documents/git/vs_workflow/DiffDock/diffdock_run/pdbqt_scrubbed/5329560.pdbqt
 OpenBabel10272516423D

 28 31  0  0  1  0  0  0  0  0999 V2000
    1.1510   -0.4130   -0.2000 C   0  0  0  0  0  0  0  0  0  0  0  0
    0.9670   -0.3980    1.1400 N   0  0  0  0  0  0  0  0  0  0  0  0
    1.8700    0.2120    1.9290 C   0  0  0  0  0  0  0  0  0  0  0  0
    2.9470    0.8050    1.3250 C   0  0  2  0  0  3  0  0  0  0  0  0
    4.0340    1.5050    1.7590 N   0  0  0  0  0  0  0  0  0  0  0  0
    4.7680    1.8400    0.6530 C   0  0  0  0  0  2  0  0  0  0  0  0
    4.2100    1.3960   -0.4540 N   0  0  0  0  0  0  0  0  0  0  0  0
    3.0730    0.7500   -0.0440 C   0  0  0  0  0  0  0  0  0  0  0  0
    2.1850    0.1420   -0.8410 N   0  0  0  0  0  0  0  0  0  0  0  0
    4.2530    1.7320    2.7190 H   0  0  0  0  0  0  0  0  0  0  0  0
    0.1400   -1.0780   -0.8930 N   0  0  0  0  0  0  0  0  0  0  0  0
   -0.5430   -1.4150   -0.2320 H   0  0  0  0  0  0  0  0  0  0  0  0
   -0.1070   -1.3400   -2.2450 C   0  0  0  0  0  0  0  0  0  0  0  0
   -0.7220   -1.9400   -4.9500 C   0  0  0  0  0  0  0  0  0  0  0  0
    0.4300   -1.2290   -4.6270 C   0  0  0  0  0  3  0  0  0  0  0  0
   -1.5660   -2.3530   -3.9220 C   0  0  0  0  0  3  0  0  0  0  0  0
    0.7300   -0.9340   -3.2880 C   0  0  0  0  0  3  0  0  0  0  0  0
   -1.2630   -2.0570   -2.5880 C   0  0  0  0  0  3  0  0  0  0  0  0
   -1.1290   -2.2910   -6.2060 O   0  0  0  0  0  0  0  0  0  0  0  0
   -0.2940   -1.8890   -7.2850 C   0  0  0  0  0  1  0  0  0  0  0  0
    1.7240    0.2770    3.2950 O   0  0  0  0  0  0  0  0  0  0  0  0
    0.6130   -0.4380    3.8410 C   0  0  0  0  0  2  0  0  0  0  0  0
   -0.3910    0.5460    4.4670 C   0  0  0  0  0  3  0  0  0  0  0  0
   -0.9640    1.5110    3.4100 C   0  0  0  0  0  2  0  0  0  0  0  0
   -1.4950   -0.1990    5.2420 C   0  0  0  0  0  2  0  0  0  0  0  0
   -2.2930    2.1070    3.8580 C   0  0  0  0  0  2  0  0  0  0  0  0
   -2.7790   -0.3370    4.4330 C   0  0  0  0  0  2  0  0  0  0  0  0
   -3.3580    1.0260    4.0500 C   0  0  0  0  0  2  0  0  0  0  0  0
  1  2  1  0  0  0  0
  2  3  2  0  0  0  0
  3 21  1  0  0  0  0
  4  8  1  6  0  0  0
  4  5  1  0  0  0  0
  4  3  1  0  0  0  0
  5 10  1  0  0  0  0
  6  5  1  0  0  0  0
  7  8  2  0  0  0  0
  7  6  1  0  0  0  0
  9  1  2  0  0  0  0
  9  8  1  0  0  0  0
 11 12  1  0  0  0  0
 11  1  1  0  0  0  0
 13 11  1  0  0  0  0
 14 15  2  0  0  0  0
 14 16  1  0  0  0  0
 15 17  1  0  0  0  0
 16 18  2  0  0  0  0
 17 13  2  0  0  0  0
 18 13  1  0  0  0  0
 19 14  1  0  0  0  0
 20 19  1  0  0  0  0
 21 22  1  0  0  0  0
 22 23  1  0  0  0  0
 23 25  1  0  0  0  0
 24 26  1  0  0  0  0
 24 23  1  0  0  0  0
 26 28  1  0  0  0  0
 27 25  1  0  0  0  0
 28 27  1  0  0  0  0
M  END
>  <REMARK>
 SMILES COc1ccc(Nc2nc(OCC3CCCCC3)c3[nH]cnc3n2)cc1
 SMILES IDX 8 1 9 2 10 3 19 4 20 5 21 6 22 7 23 8 24 9 7 11 6 13 3 14
 SMILES IDX 4 15 26 16 5 17 25 18 2 19 1 20 11 21 12 22 13 23 14 24
 SMILES IDX 18 25 15 26 17 27 16 28
 H PARENT 20 10 7 12

>  <TORSDO>
F 6

$$$$
