/home/pchatterjee/Documents/git/vs_workflow/DiffDock/diffdock_run/pdbqt_scrubbed/5329561.pdbqt
 OpenBabel10272516423D

 28 31  0  0  1  0  0  0  0  0999 V2000
    2.3230    0.2200   -2.5800 C   0  0  0  0  0  0  0  0  0  0  0  0
    1.8340   -0.0050   -1.3420 N   0  0  0  0  0  0  0  0  0  0  0  0
    2.2540    0.7540   -0.3130 C   0  0  0  0  0  0  0  0  0  0  0  0
    3.1740    1.7330   -0.5720 C   0  0  2  0  0  3  0  0  0  0  0  0
    3.8220    2.6740    0.1720 N   0  0  0  0  0  0  0  0  0  0  0  0
    4.6360    3.3720   -0.6790 C   0  0  0  0  0  2  0  0  0  0  0  0
    4.5420    2.9300   -1.9150 N   0  0  0  0  0  0  0  0  0  0  0  0
    3.6320    1.9080   -1.8580 C   0  0  0  0  0  0  0  0  0  0  0  0
    3.2240    1.1610   -2.8940 N   0  0  0  0  0  0  0  0  0  0  0  0
    3.7170    2.8230    1.1660 H   0  0  0  0  0  0  0  0  0  0  0  0
    1.9100   -0.5530   -3.6660 N   0  0  0  0  0  0  0  0  0  0  0  0
    2.3940   -0.2270   -4.4920 H   0  0  0  0  0  0  0  0  0  0  0  0
    0.9960   -1.5960   -3.8380 C   0  0  0  0  0  0  0  0  0  0  0  0
   -0.7900   -3.7500   -4.3140 C   0  0  0  0  0  0  0  0  0  0  0  0
   -0.6990   -3.1660   -3.0500 C   0  0  0  0  0  3  0  0  0  0  0  0
   -0.0020   -3.2440   -5.3460 C   0  0  0  0  0  3  0  0  0  0  0  0
    0.1890   -2.1070   -2.8180 C   0  0  0  0  0  3  0  0  0  0  0  0
    0.8830   -2.1850   -5.1070 C   0  0  0  0  0  3  0  0  0  0  0  0
   -1.9130   -5.0920   -4.6520 S   0  0  0  0  0  0  0  0  0  0  0  0
   -1.3520   -6.2880   -3.4110 C   0  0  0  0  0  1  0  0  0  0  0  0
    1.7820    0.5620    0.9670 O   0  0  0  0  0  0  0  0  0  0  0  0
    0.8070   -0.4840    1.0510 C   0  0  0  0  0  2  0  0  0  0  0  0
    0.3290   -0.6020    2.5100 C   0  0  0  0  0  3  0  0  0  0  0  0
   -0.3470    0.6860    3.0140 C   0  0  0  0  0  2  0  0  0  0  0  0
   -0.6080   -1.8050    2.6950 C   0  0  0  0  0  2  0  0  0  0  0  0
   -1.7290    0.9120    2.4040 C   0  0  0  0  0  2  0  0  0  0  0  0
   -1.9900   -1.5840    2.0820 C   0  0  0  0  0  2  0  0  0  0  0  0
   -2.6350   -0.3000    2.5950 C   0  0  0  0  0  2  0  0  0  0  0  0
  1  2  1  0  0  0  0
  2  3  2  0  0  0  0
  3 21  1  0  0  0  0
  4  8  1  6  0  0  0
  4  3  1  0  0  0  0
  4  5  1  0  0  0  0
  5 10  1  0  0  0  0
  6  5  1  0  0  0  0
  7  8  2  0  0  0  0
  7  6  1  0  0  0  0
  9  1  2  0  0  0  0
  9  8  1  0  0  0  0
 11  1  1  0  0  0  0
 12 11  1  0  0  0  0
 13 11  1  0  0  0  0
 13 17  1  0  0  0  0
 14 15  1  0  0  0  0
 15 17  2  0  0  0  0
 16 18  1  0  0  0  0
 16 14  2  0  0  0  0
 18 13  2  0  0  0  0
 19 14  1  0  0  0  0
 19 20  1  0  0  0  0
 21 22  1  0  0  0  0
 22 23  1  0  0  0  0
 23 25  1  0  0  0  0
 23 24  1  0  0  0  0
 26 28  1  0  0  0  0
 26 24  1  0  0  0  0
 27 28  1  0  0  0  0
 27 25  1  0  0  0  0
M  END
>  <REMARK>
 SMILES CSc1ccc(Nc2nc(OCC3CCCCC3)c3[nH]cnc3n2)cc1
 SMILES IDX 8 1 9 2 10 3 19 4 20 5 21 6 22 7 23 8 24 9 7 11 6 13 3 14
 SMILES IDX 4 15 26 16 5 17 25 18 2 19 1 20 11 21 12 22 13 23 14 24
 SMILES IDX 18 25 15 26 17 27 16 28
 H PARENT 20 10 7 12

>  <TORSDO>
F 6

$$$$
