/home/pchatterjee/Documents/git/vs_workflow/DiffDock/diffdock_run/pdbqt_scrubbed/5329557.pdbqt
 OpenBabel10272516423D

 28 31  0  0  1  0  0  0  0  0999 V2000
   -0.9240   -2.5750   -0.6900 C   0  0  0  0  0  0  0  0  0  0  0  0
   -0.2760   -1.5430   -1.2690 N   0  0  0  0  0  0  0  0  0  0  0  0
   -0.1960   -1.4770   -2.6110 C   0  0  0  0  0  0  0  0  0  0  0  0
   -0.7870   -2.4740   -3.3390 C   0  0  2  0  0  3  0  0  0  0  0  0
   -0.9200   -2.7550   -4.6660 N   0  0  0  0  0  0  0  0  0  0  0  0
   -1.6330   -3.9190   -4.7630 C   0  0  0  0  0  2  0  0  0  0  0  0
   -1.9590   -4.3910   -3.5790 N   0  0  0  0  0  0  0  0  0  0  0  0
   -1.4350   -3.4960   -2.6840 C   0  0  0  0  0  0  0  0  0  0  0  0
   -1.5240   -3.5770   -1.3480 N   0  0  0  0  0  0  0  0  0  0  0  0
   -0.5570   -2.2030   -5.4320 H   0  0  0  0  0  0  0  0  0  0  0  0
   -1.0270   -2.6700    0.6980 N   0  0  0  0  0  0  0  0  0  0  0  0
   -1.5420   -3.5100    0.9240 H   0  0  0  0  0  0  0  0  0  0  0  0
   -0.5290   -1.9260    1.7740 C   0  0  0  0  0  0  0  0  0  0  0  0
   -0.4520   -1.5990    4.2030 C   0  0  0  0  0  0  0  0  0  0  0  0
    0.3810   -0.4950    4.0320 C   0  0  0  0  0  3  0  0  0  0  0  0
   -0.8910   -2.3090    3.0770 C   0  0  0  0  0  3  0  0  0  0  0  0
    0.7480   -0.0940    2.7500 C   0  0  0  0  0  3  0  0  0  0  0  0
    0.2900   -0.8020    1.6340 C   0  0  0  0  0  3  0  0  0  0  0  0
   -0.9420   -2.1540    5.8270 S   0  0  0  0  0  0  0  0  0  0  0  0
   -1.7890   -0.6640    6.4180 C   0  0  0  0  0  1  0  0  0  0  0  0
    0.4560   -0.4430   -3.2470 O   0  0  0  0  0  0  0  0  0  0  0  0
    1.0120    0.5090   -2.3320 C   0  0  0  0  0  2  0  0  0  0  0  0
    1.7280    1.6100   -3.1380 C   0  0  0  0  0  3  0  0  0  0  0  0
    2.1350    2.7790   -2.2340 C   0  0  0  0  0  2  0  0  0  0  0  0
    2.9360    1.0530   -3.9230 C   0  0  0  0  0  2  0  0  0  0  0  0
    3.2510    2.4200   -1.2520 C   0  0  0  0  0  2  0  0  0  0  0  0
    4.2950    1.4790   -3.3610 C   0  0  0  0  0  2  0  0  0  0  0  0
    4.3030    1.4780   -1.8390 C   0  0  0  0  0  2  0  0  0  0  0  0
  1 11  1  0  0  0  0
  2  1  1  0  0  0  0
  3  2  2  0  0  0  0
  4  8  1  6  0  0  0
  4  3  1  0  0  0  0
  5  4  1  0  0  0  0
  6  5  1  0  0  0  0
  6  7  1  0  0  0  0
  7  8  2  0  0  0  0
  8  9  1  0  0  0  0
  9  1  2  0  0  0  0
 10  5  1  0  0  0  0
 11 12  1  0  0  0  0
 11 13  1  0  0  0  0
 13 16  1  0  0  0  0
 14 19  1  0  0  0  0
 15 14  1  0  0  0  0
 16 14  2  0  0  0  0
 17 15  2  0  0  0  0
 18 13  2  0  0  0  0
 18 17  1  0  0  0  0
 19 20  1  0  0  0  0
 21  3  1  0  0  0  0
 21 22  1  0  0  0  0
 23 22  1  0  0  0  0
 23 24  1  0  0  0  0
 24 26  1  0  0  0  0
 25 27  1  0  0  0  0
 25 23  1  0  0  0  0
 27 28  1  0  0  0  0
 28 26  1  0  0  0  0
M  END
>  <REMARK>
 SMILES CSc1cccc(Nc2nc(OCC3CCCCC3)c3[nH]cnc3n2)c1
 SMILES IDX 9 1 10 2 11 3 20 4 21 5 22 6 23 7 24 8 25 9 8 11 7 13 3 14
 SMILES IDX 4 15 26 16 5 17 6 18 2 19 1 20 12 21 13 22 14 23 15 24 19 25
 SMILES IDX 16 26 18 27 17 28
 H PARENT 21 10 8 12

>  <TORSDO>
F 6

$$$$
