/home/pchatterjee/Documents/git/vs_workflow/DiffDock/diffdock_run/pdbqt_scrubbed/76328458.pdbqt
 OpenBabel10272516423D

 27 30  0  0  1  0  0  0  0  0999 V2000
   -2.7040   -0.1370    2.7280 C   0  0  0  0  0  0  0  0  0  0  0  0
   -2.4250    0.7680    1.7740 N   0  0  0  0  0  0  0  0  0  0  0  0
   -1.8770    0.3430    0.6220 C   0  0  0  0  0  0  0  0  0  0  0  0
   -1.6020   -0.9950    0.4990 C   0  0  1  0  0  3  0  0  0  0  0  0
   -1.0530   -1.7830   -0.4670 N   0  0  0  0  0  0  0  0  0  0  0  0
   -1.0290   -3.0830   -0.0040 C   0  0  2  0  0  3  0  0  0  0  0  0
   -1.5440   -3.1320    1.2170 N   0  0  0  0  0  0  0  0  0  0  0  0
   -1.9020   -1.8510    1.5320 C   0  0  0  0  0  0  0  0  0  0  0  0
   -2.4600   -1.4470    2.6840 N   0  0  0  0  0  0  0  0  0  0  0  0
   -0.7250   -1.4610   -1.3650 H   0  0  0  0  0  0  0  0  0  0  0  0
   -3.2600    0.3560    3.8950 N   0  0  0  0  0  0  0  0  0  0  0  0
   -3.0030    1.3250    4.0180 H   0  0  0  0  0  0  0  0  0  0  0  0
   -3.0650   -0.2790    4.6570 H   0  0  0  0  0  0  0  0  0  0  0  0
   -1.5540    1.2080   -0.3970 O   0  0  0  0  0  0  0  0  0  0  0  0
   -1.9890    2.5590   -0.2250 C   0  0  0  0  0  2  0  0  0  0  0  0
   -0.8120    3.5010    0.0810 C   0  0  0  0  0  3  0  0  0  0  0  0
    0.2290    3.4970   -1.0580 C   0  0  0  0  0  2  0  0  0  0  0  0
   -0.1380    3.1940    1.4220 C   0  0  0  0  0  2  0  0  0  0  0  0
    1.6220    3.9580   -0.6210 C   0  0  0  0  0  2  0  0  0  0  0  0
    0.9120    4.2480    1.7850 C   0  0  0  0  0  2  0  0  0  0  0  0
    1.5670    4.9050    0.5690 C   0  0  0  0  0  2  0  0  0  0  0  0
   -0.5080   -4.2280   -0.7610 C   0  0  0  0  0  0  0  0  0  0  0  0
   -0.5790   -5.5090   -0.1920 C   0  0  0  0  0  3  0  0  0  0  0  0
    0.0620   -4.1000   -2.0370 C   0  0  0  0  0  3  0  0  0  0  0  0
   -0.0980   -6.6300   -0.8740 C   0  0  0  0  0  3  0  0  0  0  0  0
    0.5440   -5.2220   -2.7200 C   0  0  0  0  0  3  0  0  0  0  0  0
    0.4640   -6.4850   -2.1390 C   0  0  0  0  0  3  0  0  0  0  0  0
  1 11  1  0  0  0  0
  2  1  1  0  0  0  0
  3  2  2  0  0  0  0
  4  3  1  1  0  0  0
  4  8  1  0  0  0  0
  5  6  1  0  0  0  0
  5  4  1  0  0  0  0
  6 22  1  1  0  0  0
  6  7  1  0  0  0  0
  7  8  2  0  0  0  0
  8  9  1  0  0  0  0
  9  1  2  0  0  0  0
 10  5  1  0  0  0  0
 11 12  1  0  0  0  0
 11 13  1  0  0  0  0
 14 15  1  0  0  0  0
 14  3  1  0  0  0  0
 15 16  1  0  0  0  0
 16 18  1  0  0  0  0
 17 19  1  0  0  0  0
 17 16  1  0  0  0  0
 18 20  1  0  0  0  0
 19 21  1  0  0  0  0
 21 20  1  0  0  0  0
 22 23  1  0  0  0  0
 24 22  2  0  0  0  0
 25 23  2  0  0  0  0
 26 27  2  0  0  0  0
 26 24  1  0  0  0  0
 27 25  1  0  0  0  0
M  END
>  <REMARK>
 SMILES Nc1nc(OCC2CCCCC2)c2[nH]c(-c3ccccc3)nc2n1
 SMILES IDX 2 1 3 2 4 3 13 4 14 5 15 6 22 7 23 8 24 9 1 11 5 14 6 15
 SMILES IDX 7 16 8 17 12 18 9 19 11 20 10 21 16 22 17 23 21 24 18 25
 SMILES IDX 20 26 19 27
 H PARENT 14 10 1 12 1 13

>  <TORSDO>
F 5

$$$$
