/home/pchatterjee/Documents/git/vs_workflow/DiffDock/diffdock_run/pdbqt_scrubbed/9823200.pdbqt
 OpenBabel10272516423D

 33 36  0  0  1  0  0  0  0  0999 V2000
   -1.7870    1.5450   -0.4480 C   0  0  0  0  0  0  0  0  0  0  0  0
   -1.5010    0.2380   -0.5540 N   0  0  0  0  0  0  0  0  0  0  0  0
   -2.3660   -0.5780   -1.1840 C   0  0  1  0  0  3  0  0  0  0  0  0
   -3.5200   -0.1930   -1.7470 N   0  0  0  0  0  0  0  0  0  0  0  0
   -3.8040    1.1100   -1.6000 C   0  0  0  0  0  0  0  0  0  0  0  0
   -4.9390    1.7400   -2.0440 N   0  0  0  0  0  0  0  0  0  0  0  0
   -4.8030    2.9940   -1.6650 C   0  0  0  0  0  3  0  0  0  0  0  0
   -3.6290    3.1950   -0.9870 N   0  0  0  0  0  0  0  0  0  0  0  0
   -2.9740    1.9990   -0.9560 C   0  0  1  0  0  3  0  0  0  0  0  0
   -3.3050    4.0650   -0.5900 H   0  0  0  0  0  0  0  0  0  0  0  0
   -0.9370    2.3480    0.2690 O   0  0  0  0  0  0  0  0  0  0  0  0
    0.1780    2.7190   -0.5490 C   0  0  0  0  0  2  0  0  0  0  0  0
    1.3360    3.2160    0.3380 C   0  0  2  0  0  3  0  0  0  0  0  0
    1.9080    2.1420    1.2950 C   0  0  2  0  0  3  0  0  0  0  0  0
    3.1430    2.6780    2.0520 C   0  0  0  0  0  2  0  0  0  0  0  0
    3.1270    4.1870    2.2930 C   0  0  0  0  0  2  0  0  0  0  0  0
    0.9070    4.4760    1.1290 C   0  0  0  0  0  2  0  0  0  0  0  0
    1.7110    4.7220    2.4060 C   0  0  0  0  0  2  0  0  0  0  0  0
    2.2900    0.8350    0.5880 C   0  0  0  0  0  1  0  0  0  0  0  0
   -2.1050   -1.9440   -1.3040 N   0  0  0  0  0  0  0  0  0  0  0  0
   -2.8590   -2.3690   -1.8270 H   0  0  0  0  0  0  0  0  0  0  0  0
   -1.1930   -2.8130   -0.6930 C   0  0  0  0  0  0  0  0  0  0  0  0
   -1.1570   -4.1540   -1.1210 C   0  0  0  0  0  3  0  0  0  0  0  0
   -0.2740   -2.4180    0.2840 C   0  0  0  0  0  3  0  0  0  0  0  0
   -0.2570   -5.0730   -0.5690 C   0  0  0  0  0  3  0  0  0  0  0  0
    0.6330   -3.3240    0.8430 C   0  0  0  0  0  3  0  0  0  0  0  0
    0.6250   -4.6530    0.4210 C   0  0  0  0  0  0  0  0  0  0  0  0
    1.7630   -5.7990    1.1510 S   0  0  0  0  0  0  0  0  0  0  0  0
    1.7260   -7.0320    0.3970 O   0  0  0  0  0  0  0  0  0  0  0  0
    2.9920   -5.1040    1.4400 O   0  0  0  0  0  0  0  0  0  0  0  0
    1.0010   -6.1440    2.6150 N   0  0  0  0  0  0  0  0  0  0  0  0
    0.2000   -5.5400    2.8040 H   0  0  0  0  0  0  0  0  0  0  0  0
    0.7360   -7.1310    2.6240 H   0  0  0  0  0  0  0  0  0  0  0  0
  1 11  1  0  0  0  0
  2  1  2  0  0  0  0
  3 20  1  6  0  0  0
  3  2  1  0  0  0  0
  4  5  2  0  0  0  0
  4  3  1  0  0  0  0
  6  7  2  0  0  0  0
  6  5  1  0  0  0  0
  7  8  1  0  0  0  0
  8  9  1  0  0  0  0
  8 10  1  0  0  0  0
  9  5  1  1  0  0  0
  9  1  1  0  0  0  0
 12 11  1  0  0  0  0
 13 12  1  1  0  0  0
 13 17  1  0  0  0  0
 13 14  1  0  0  0  0
 14 19  1  6  0  0  0
 14 15  1  0  0  0  0
 15 16  1  0  0  0  0
 16 18  1  0  0  0  0
 17 18  1  0  0  0  0
 20 22  1  0  0  0  0
 21 20  1  0  0  0  0
 22 24  1  0  0  0  0
 23 22  2  0  0  0  0
 23 25  1  0  0  0  0
 24 26  2  0  0  0  0
 25 27  2  0  0  0  0
 27 26  1  0  0  0  0
 27 28  1  0  0  0  0
 28 30  2  0  0  0  0
 28 31  1  0  0  0  0
 29 28  2  0  0  0  0
 31 33  1  0  0  0  0
 31 32  1  0  0  0  0
M  END
>  <REMARK>
 SMILES CC1CCCCC1COc1nc(Nc2ccc(S(N)(=O)=O)cc2)nc2nc[nH]c12
 SMILES IDX 10 1 11 2 12 3 24 4 25 5 26 6 27 7 28 8 29 9 9 11 8 12 7 13
 SMILES IDX 2 14 3 15 4 16 6 17 5 18 1 19 13 20 14 22 15 23 23 24 16 25
 SMILES IDX 22 26 17 27 18 28 20 29 21 30 19 31
 H PARENT 28 10 13 21 19 32 19 33

>  <TORSDO>
F 7

$$$$
