/home/pchatterjee/Documents/git/vs_workflow/DiffDock/diffdock_run/pdbqt_scrubbed/COLIG_2A6.pdbqt
 OpenBabel10272516423D

 26 29  0  0  1  0  0  0  0  0999 V2000
   -1.8930    0.4490    0.7900 C   0  0  0  0  0  0  0  0  0  0  0  0
   -0.8280   -0.3850    0.7950 N   0  0  0  0  0  0  0  0  0  0  0  0
   -1.0140   -1.6970    1.0370 C   0  0  0  0  0  0  0  0  0  0  0  0
   -2.2910   -2.1300    1.2680 C   0  0  2  0  0  3  0  0  0  0  0  0
   -2.8700   -3.3360    1.5380 N   0  0  0  0  0  0  0  0  0  0  0  0
   -4.2140   -3.1180    1.6710 C   0  0  0  0  0  2  0  0  0  0  0  0
   -4.5220   -1.8500    1.5020 N   0  0  0  0  0  0  0  0  0  0  0  0
   -3.3280   -1.2260    1.2490 C   0  0  0  0  0  0  0  0  0  0  0  0
   -3.1590    0.0820    1.0110 N   0  0  0  0  0  0  0  0  0  0  0  0
   -2.3900   -4.2210    1.6220 H   0  0  0  0  0  0  0  0  0  0  0  0
   -1.5580    1.7770    0.5260 N   0  0  0  0  0  0  0  0  0  0  0  0
   -0.5610    1.8420    0.3880 H   0  0  0  0  0  0  0  0  0  0  0  0
   -2.2880    2.9650    0.4170 C   0  0  0  0  0  0  0  0  0  0  0  0
   -3.6390    5.4370    0.1700 C   0  0  0  0  0  3  0  0  0  0  0  0
   -4.3460    4.2730    0.4550 C   0  0  0  0  0  3  0  0  0  0  0  0
   -2.2590    5.3780    0.0070 C   0  0  0  0  0  3  0  0  0  0  0  0
   -3.6750    3.0500    0.5760 C   0  0  0  0  0  3  0  0  0  0  0  0
   -1.5940    4.1540    0.1300 C   0  0  0  0  0  3  0  0  0  0  0  0
    0.0340   -2.5900    1.0450 O   0  0  0  0  0  0  0  0  0  0  0  0
    1.3170   -2.0110    0.7850 C   0  0  0  0  0  2  0  0  0  0  0  0
    1.6000   -1.9080   -0.7280 C   0  0  0  0  0  3  0  0  0  0  0  0
    2.9550   -1.2360   -0.9990 C   0  0  0  0  0  2  0  0  0  0  0  0
    1.5240   -3.2720   -1.4370 C   0  0  0  0  0  2  0  0  0  0  0  0
    4.1440   -2.1400   -0.6770 C   0  0  0  0  0  2  0  0  0  0  0  0
    2.7110   -4.1780   -1.1160 C   0  0  0  0  0  2  0  0  0  0  0  0
    4.0410   -3.4830   -1.3940 C   0  0  0  0  0  2  0  0  0  0  0  0
  1  2  1  0  0  0  0
  1  9  2  0  0  0  0
  2  3  2  0  0  0  0
  3 19  1  0  0  0  0
  4  3  1  6  0  0  0
  4  5  1  0  0  0  0
  5 10  1  0  0  0  0
  5  6  1  0  0  0  0
  7  6  1  0  0  0  0
  8  4  1  0  0  0  0
  8  7  2  0  0  0  0
  9  8  1  0  0  0  0
 11  1  1  0  0  0  0
 12 11  1  0  0  0  0
 13 11  1  0  0  0  0
 13 17  1  0  0  0  0
 14 15  1  0  0  0  0
 15 17  2  0  0  0  0
 16 18  1  0  0  0  0
 16 14  2  0  0  0  0
 18 13  2  0  0  0  0
 20 19  1  0  0  0  0
 21 20  1  0  0  0  0
 22 21  1  0  0  0  0
 22 24  1  0  0  0  0
 23 25  1  0  0  0  0
 23 21  1  0  0  0  0
 26 25  1  0  0  0  0
 26 24  1  0  0  0  0
M  END
>  <REMARK>
 SMILES c1ccc(Nc2nc(OCC3CCCCC3)c3[nH]cnc3n2)cc1
 SMILES IDX 6 1 7 2 8 3 17 4 18 5 19 6 20 7 21 8 22 9 5 11 4 13 1 14
 SMILES IDX 2 15 24 16 3 17 23 18 9 19 10 20 11 21 12 22 16 23 13 24
 SMILES IDX 15 25 14 26
 H PARENT 18 10 5 12

>  <TORSDO>
F 5

$$$$
