/home/pchatterjee/Documents/git/vs_workflow/DiffDock/diffdock_run/pdbqt_scrubbed/Z1013695804.pdbqt
 OpenBabel10272516423D

 25 28  0  0  0  0  0  0  0  0999 V2000
    0.4400    1.7740   -1.7150 N   0  0  0  0  0  0  0  0  0  0  0  0
   -0.2710    2.3910   -2.0840 H   0  0  0  0  0  0  0  0  0  0  0  0
    1.7540    2.2530   -1.7120 C   0  0  0  0  0  0  0  0  0  0  0  0
    4.3510    3.3250   -1.7800 C   0  0  0  0  0  0  0  0  0  0  0  0
    3.2960    4.0560   -2.3040 C   0  0  0  0  0  3  0  0  0  0  0  0
    4.1370    2.0720   -1.2250 C   0  0  0  0  0  3  0  0  0  0  0  0
    2.0060    3.5200   -2.2700 C   0  0  0  0  0  3  0  0  0  0  0  0
    2.8430    1.5410   -1.1950 C   0  0  0  0  0  3  0  0  0  0  0  0
    5.5890    3.8340   -1.8090 F   0  0  0  0  0  0  0  0  0  0  0  0
   -0.1690    0.5990   -1.2840 C   0  0  0  0  0  0  0  0  0  0  0  0
    0.5230   -0.4060   -0.7520 N   0  0  0  0  0  0  0  0  0  0  0  0
   -1.4890    0.5660   -1.4440 N   0  0  0  0  0  0  0  0  0  0  0  0
   -0.1370   -1.5130   -0.3470 C   0  0  0  0  0  0  0  0  0  0  0  0
   -2.1420   -0.5220   -1.0640 C   0  0  0  0  0  0  0  0  0  0  0  0
   -1.5280   -1.6430   -0.4870 C   0  0  0  0  0  0  0  0  0  0  0  0
   -3.4660   -0.5070   -1.2620 N   0  0  0  0  0  0  0  0  0  0  0  0
   -2.2610   -2.7480   -0.1240 N   0  0  0  0  0  0  0  0  0  0  0  0
   -4.1770   -1.5980   -0.9040 C   0  0  0  0  0  3  0  0  0  0  0  0
   -3.5860   -2.7030   -0.3450 C   0  0  0  0  0  3  0  0  0  0  0  0
    0.6260   -2.5620    0.2230 N   0  0  0  0  0  0  0  0  0  0  0  0
    0.3120   -2.8300    1.6320 C   0  0  0  0  0  2  0  0  0  0  0  0
    2.0610   -2.5860   -0.1030 C   0  0  0  0  0  2  0  0  0  0  0  0
    0.9310   -1.7620    2.5410 C   0  0  0  0  0  2  0  0  0  0  0  0
    2.9500   -2.2990    1.1120 C   0  0  0  0  0  2  0  0  0  0  0  0
    2.3170   -1.3060    2.0770 C   0  0  0  0  0  2  0  0  0  0  0  0
  1  3  1  0  0  0  0
  1 10  1  0  0  0  0
  2  1  1  0  0  0  0
  3  8  1  0  0  0  0
  4  6  1  0  0  0  0
  5  7  1  0  0  0  0
  5  4  2  0  0  0  0
  6  8  2  0  0  0  0
  7  3  2  0  0  0  0
  9  4  1  0  0  0  0
 10 11  2  0  0  0  0
 11 13  1  0  0  0  0
 12 10  1  0  0  0  0
 12 14  2  0  0  0  0
 13 20  1  0  0  0  0
 14 15  1  0  0  0  0
 15 13  2  0  0  0  0
 15 17  1  0  0  0  0
 16 14  1  0  0  0  0
 16 18  2  0  0  0  0
 18 19  1  0  0  0  0
 19 17  2  0  0  0  0
 20 21  1  0  0  0  0
 21 23  1  0  0  0  0
 22 20  1  0  0  0  0
 22 24  1  0  0  0  0
 24 25  1  0  0  0  0
 25 23  1  0  0  0  0
M  END
>  <REMARK>
 SMILES Fc1ccc(Nc2nc(N3CCCCC3)c3nccnc3n2)cc1
 SMILES IDX 6 1 5 3 2 4 3 5 24 6 4 7 23 8 1 9 7 10 8 11 22 12 9 13 21 14
 SMILES IDX 16 15 20 16 17 17 19 18 18 19 10 20 11 21 15 22 12 23 14 24
 SMILES IDX 13 25
 H PARENT 6 2

>  <TORSDO>
F 3

$$$$
