/home/pchatterjee/Documents/git/vs_workflow/DiffDock/diffdock_run/pdbqt_scrubbed/Z1011080426.pdbqt
 OpenBabel10272516423D

 30 29  0  0  0  0  0  0  0  0999 V2000
    1.2820    1.8620    0.1650 N   0  0  0  0  0  4  0  0  0  0  0  0
    1.9800    2.5020   -0.2250 H   0  0  0  0  0  0  0  0  0  0  0  0
    0.9000    2.4410    1.5160 C   0  0  0  0  0  2  0  0  0  0  0  0
    0.2600    3.8250    1.3740 C   0  0  0  0  0  2  0  0  0  0  0  0
   -1.1310    3.8450    0.9620 N   0  0  0  0  0  2  0  0  0  0  0  0
   -1.8170    3.0390    0.1120 *   0  0  0  0  0  0  0  0  0  0  0  0
   -2.9460    3.3800   -0.2310 O   0  0  0  0  0 15  0  0  0  0  0  0
   -1.6640    4.6900    1.1740 H   0  0  0  0  0  0  0  0  0  0  0  0
    0.1760    1.8850   -0.9040 C   0  0  0  0  0  2  0  0  0  0  0  0
   -1.2310    1.7260   -0.3340 *   0  0  0  0  0  0  0  0  0  0  0  0
    0.4850    0.9930   -2.0950 C   0  0  0  0  0  0  0  0  0  0  0  0
    1.2690    1.4930   -3.1500 C   0  0  0  0  0  3  0  0  0  0  0  0
    0.0510   -0.3430   -2.1580 C   0  0  0  0  0  3  0  0  0  0  0  0
    1.6110    0.6800   -4.2290 C   0  0  0  0  0  3  0  0  0  0  0  0
    0.4010   -1.1550   -3.2370 C   0  0  0  0  0  3  0  0  0  0  0  0
    1.1830   -0.6450   -4.2690 C   0  0  0  0  0  3  0  0  0  0  0  0
    2.0920    0.5720    0.3190 C   0  0  0  0  0  2  0  0  0  0  0  0
    1.4730   -0.6180    0.9790 C   0  0  0  0  0  0  0  0  0  0  0  0
    2.1360   -1.7850    1.3190 C   0  0  0  0  0  3  0  0  0  0  0  0
    0.1260   -0.6150    1.3100 N   0  0  0  0  0  0  0  0  0  0  0  0
    1.0550   -2.8730    2.0700 S   0  0  0  0  0  0  0  0  0  0  0  0
   -0.2320   -1.7340    1.9160 C   0  0  0  0  0  0  0  0  0  0  0  0
   -1.5210   -1.9350    2.2760 N   0  0  0  0  0  0  0  0  0  0  0  0
   -2.1980   -1.3090    1.8570 H   0  0  0  0  0  0  0  0  0  0  0  0
   -2.1070   -2.8470    3.1740 C   0  0  0  0  0  0  0  0  0  0  0  0
   -3.4520   -3.2050    2.9680 C   0  0  0  0  0  3  0  0  0  0  0  0
   -1.4250   -3.4630    4.2280 C   0  0  0  0  0  3  0  0  0  0  0  0
   -4.0870   -4.1460    3.7830 C   0  0  0  0  0  3  0  0  0  0  0  0
   -2.0550   -4.4090    5.0420 C   0  0  0  0  0  3  0  0  0  0  0  0
   -3.3830   -4.7560    4.8160 C   0  0  0  0  0  3  0  0  0  0  0  0
  1 17  1  0  0  0  0
  1  3  1  0  0  0  0
  2  1  1  0  0  0  0
  4  3  1  0  0  0  0
  5  8  1  0  0  0  0
  5  4  1  0  0  0  0
  9  1  1  0  0  0  0
 11  9  1  0  0  0  0
 12 11  2  0  0  0  0
 13 11  1  0  0  0  0
 14 12  1  0  0  0  0
 15 13  2  0  0  0  0
 16 14  2  0  0  0  0
 16 15  1  0  0  0  0
 17 18  1  0  0  0  0
 18 20  1  0  0  0  0
 18 19  2  0  0  0  0
 19 21  1  0  0  0  0
 20 22  2  0  0  0  0
 22 21  1  0  0  0  0
 22 23  1  0  0  0  0
 23 25  1  0  0  0  0
 24 23  1  0  0  0  0
 25 27  1  0  0  0  0
 26 25  2  0  0  0  0
 26 28  1  0  0  0  0
 27 29  2  0  0  0  0
 28 30  2  0  0  0  0
 30 29  1  0  0  0  0
M  END
>  <REMARK>
 SMILES O=C1CC(c2ccccc2)[NH+](Cc2csc(Nc3ccccc3)n2)CCN1
 SMILES IDX 11 1 25 3 26 4 27 5 2 6 1 7 4 10 3 11 5 13 6 14 10 15 7 16
 SMILES IDX 9 17 8 18 12 19 13 20 14 21 24 22 15 23 16 24 17 25 18 27
 SMILES IDX 19 28 23 29 20 30 22 31 21 32
 H PARENT 11 2 27 8 17 26
 Flexibility Score:   95.900

>  <TORSDO>
F 5

$$$$
