/home/pchatterjee/Documents/git/vs_workflow/DiffDock/diffdock_run/pdbqt_scrubbed/Z1039088436.pdbqt
 OpenBabel10272516423D

 24 27  0  0  1  0  0  0  0  0999 V2000
    0.4520    0.0820   -2.8040 N   0  0  0  0  0  0  0  0  0  0  0  0
   -0.9240    0.5600   -2.6890 C   0  0  0  0  0  2  0  0  0  0  0  0
   -1.4030    0.3860   -1.2480 C   0  0  0  0  0  2  0  0  0  0  0  0
   -1.2330   -1.0660   -0.7540 C   0  0  1  0  0  3  0  0  0  0  0  0
    0.1470   -1.6680   -1.0840 C   0  0  0  0  0  2  0  0  0  0  0  0
    0.6280   -1.3360   -2.4970 C   0  0  0  0  0  2  0  0  0  0  0  0
    1.4220    0.9620   -2.3150 C   0  0  0  0  0  0  0  0  0  0  0  0
    3.0990    1.4950   -0.7760 C   0  0  0  0  0  3  0  0  0  0  0  0
    2.1460    0.6390   -1.2050 N   0  0  0  0  0  0  0  0  0  0  0  0
    3.4110    2.7020   -1.2630 N   0  0  0  0  0  0  0  0  0  0  0  0
    2.6800    2.9920   -2.3470 C   0  0  0  0  0  0  0  0  0  0  0  0
    1.6980    2.2040   -2.9270 C   0  0  0  0  0  0  0  0  0  0  0  0
    2.8040    4.1400   -3.0830 N   0  0  0  0  0  0  0  0  0  0  0  0
    1.2390    2.9160   -4.0740 C   0  0  0  0  0  3  0  0  0  0  0  0
    1.9290    4.1080   -4.1380 C   0  0  0  0  0  3  0  0  0  0  0  0
    3.4660    4.8750   -2.8750 H   0  0  0  0  0  0  0  0  0  0  0  0
   -1.5760   -1.1890    0.7410 C   0  0  0  0  0  2  0  0  0  0  0  0
   -0.5750   -0.4480    1.6220 N   0  0  0  0  0  4  0  0  0  0  0  0
    0.3840   -1.3510    2.3760 C   0  0  0  0  0  2  0  0  0  0  0  0
   -1.2060    0.5910    2.5120 C   0  0  0  0  0  2  0  0  0  0  0  0
   -0.0010   -1.5040    3.8450 C   0  0  0  0  0  2  0  0  0  0  0  0
   -2.0550   -0.0680    3.5940 C   0  0  0  0  0  2  0  0  0  0  0  0
   -1.5010   -1.4070    4.0760 C   0  0  0  0  0  2  0  0  0  0  0  0
    0.0320    0.0880    0.9830 H   0  0  0  0  0  0  0  0  0  0  0  0
  1  2  1  0  0  0  0
  1  6  1  0  0  0  0
  1  7  1  0  0  0  0
  2  3  1  0  0  0  0
  3  4  1  0  0  0  0
  4 17  1  1  0  0  0
  5  4  1  0  0  0  0
  6  5  1  0  0  0  0
  7  9  1  0  0  0  0
  9  8  2  0  0  0  0
 10  8  1  0  0  0  0
 11 10  2  0  0  0  0
 12 11  1  0  0  0  0
 12  7  2  0  0  0  0
 13 16  1  0  0  0  0
 13 11  1  0  0  0  0
 14 12  1  0  0  0  0
 15 14  2  0  0  0  0
 15 13  1  0  0  0  0
 17 18  1  0  0  0  0
 18 19  1  0  0  0  0
 18 20  1  0  0  0  0
 19 21  1  0  0  0  0
 20 22  1  0  0  0  0
 21 23  1  0  0  0  0
 22 23  1  0  0  0  0
 24 18  1  0  0  0  0
M  END
>  <REMARK>
 SMILES c1nc(N2CCC(C[NH+]3CCCCC3)CC2)c2cc[nH]c2n1
 SMILES IDX 4 1 5 2 6 3 7 4 15 5 16 6 3 7 1 8 2 9 22 10 21 11 17 12
 SMILES IDX 20 13 18 14 19 15 8 17 9 18 10 19 14 20 11 21 13 22 12 23
 H PARENT 20 16 9 24

>  <TORSDO>
F 3

$$$$
