/home/pchatterjee/Documents/git/vs_workflow/DiffDock/diffdock_run/pdbqt_scrubbed/Z1041114218.pdbqt
 OpenBabel10272516423D

 30 34  0  0  0  0  0  0  0  0999 V2000
    0.0760    3.5670    0.9290 C   0  0  0  0  0  0  0  0  0  0  0  0
   -0.4900    2.3450    0.8910 N   0  0  0  0  0  0  0  0  0  0  0  0
    0.2810    1.2720    1.0770 C   0  0  0  0  0  0  0  0  0  0  0  0
    1.5890    1.3690    1.3160 N   0  0  0  0  0  0  0  0  0  0  0  0
    2.1490    2.5710    1.3520 C   0  0  0  0  0  0  0  0  0  0  0  0
    3.4680    2.6280    1.5780 N   0  0  0  0  0  0  0  0  0  0  0  0
    4.0570    3.8450    1.6080 C   0  0  0  0  0  3  0  0  0  0  0  0
    3.3510    5.0090    1.4090 C   0  0  0  0  0  3  0  0  0  0  0  0
    2.0260    4.9930    1.1740 N   0  0  0  0  0  0  0  0  0  0  0  0
    1.4340    3.7560    1.1580 C   0  0  0  0  0  0  0  0  0  0  0  0
   -0.7180    4.7390    0.7690 N   0  0  0  0  0  0  0  0  0  0  0  0
   -0.1380    5.5050    0.4340 H   0  0  0  0  0  0  0  0  0  0  0  0
   -2.0980    4.9140    0.5790 C   0  0  0  0  0  0  0  0  0  0  0  0
   -4.8540    5.3990    0.2050 C   0  0  0  0  0  3  0  0  0  0  0  0
   -3.9210    6.3710   -0.1430 C   0  0  0  0  0  3  0  0  0  0  0  0
   -4.4200    4.1950    0.7520 C   0  0  0  0  0  3  0  0  0  0  0  0
   -2.5570    6.1300    0.0490 C   0  0  0  0  0  3  0  0  0  0  0  0
   -3.0540    3.9600    0.9410 C   0  0  0  0  0  3  0  0  0  0  0  0
   -0.2980    0.0160    1.0560 N   0  0  0  0  0  0  0  0  0  0  0  0
   -1.6200   -0.1450    0.4280 C   0  0  0  0  0  2  0  0  0  0  0  0
    0.6340   -1.1190    0.9230 C   0  0  0  0  0  2  0  0  0  0  0  0
   -1.5320   -0.9860   -0.8660 C   0  0  0  0  0  2  0  0  0  0  0  0
   -0.1230   -2.4270    0.6160 C   0  0  0  0  0  2  0  0  0  0  0  0
   -0.9140   -2.3220   -0.6320 N   0  0  0  0  0  0  0  0  0  0  0  0
   -0.4570   -2.9320   -1.8080 C   0  0  0  0  0  0  0  0  0  0  0  0
   -1.3670   -3.1930   -2.8490 C   0  0  0  0  0  3  0  0  0  0  0  0
    0.8760   -3.3100   -2.0210 C   0  0  0  0  0  3  0  0  0  0  0  0
   -0.9670   -3.7970   -4.0450 C   0  0  0  0  0  3  0  0  0  0  0  0
    1.2850   -3.9140   -3.2170 C   0  0  0  0  0  3  0  0  0  0  0  0
    0.3630   -4.1580   -4.2290 C   0  0  0  0  0  3  0  0  0  0  0  0
  1 10  2  0  0  0  0
  2  1  1  0  0  0  0
  2  3  2  0  0  0  0
  3  4  1  0  0  0  0
  4  5  2  0  0  0  0
  5  6  1  0  0  0  0
  6  7  2  0  0  0  0
  8  7  1  0  0  0  0
  9  8  2  0  0  0  0
 10  9  1  0  0  0  0
 10  5  1  0  0  0  0
 11  1  1  0  0  0  0
 12 11  1  0  0  0  0
 13 11  1  0  0  0  0
 13 18  1  0  0  0  0
 14 16  1  0  0  0  0
 15 17  1  0  0  0  0
 15 14  2  0  0  0  0
 16 18  2  0  0  0  0
 17 13  2  0  0  0  0
 19  3  1  0  0  0  0
 20 19  1  0  0  0  0
 21 19  1  0  0  0  0
 22 24  1  0  0  0  0
 22 20  1  0  0  0  0
 23 21  1  0  0  0  0
 24 23  1  0  0  0  0
 25 24  1  0  0  0  0
 26 25  2  0  0  0  0
 27 25  1  0  0  0  0
 28 26  1  0  0  0  0
 29 27  2  0  0  0  0
 30 28  2  0  0  0  0
 30 29  1  0  0  0  0
M  END
>  <REMARK>
 SMILES c1ccc(Nc2nc(N3CCN(c4ccccc4)CC3)nc3nccnc23)cc1
 SMILES IDX 6 1 7 2 8 3 21 4 22 5 23 6 24 7 25 8 26 9 27 10 5 11 4 13
 SMILES IDX 1 14 2 15 29 16 3 17 28 18 9 19 10 20 20 21 11 22 19 23
 SMILES IDX 12 24 13 25 14 26 18 27 15 28 17 29 16 30
 H PARENT 5 12

>  <TORSDO>
F 4

$$$$
