/home/pchatterjee/Documents/git/vs_workflow/DiffDock/diffdock_run/pdbqt_scrubbed/Z1041113950.pdbqt
 OpenBabel10272516423D

 29 32  0  0  0  0  0  0  0  0999 V2000
    0.6610    1.7920    0.3980 C   0  0  0  0  0  0  0  0  0  0  0  0
    0.5950    1.4900   -0.9130 N   0  0  0  0  0  0  0  0  0  0  0  0
    1.2660    2.2540   -1.7740 C   0  0  0  0  0  0  0  0  0  0  0  0
    2.0140    3.2910   -1.3980 N   0  0  0  0  0  0  0  0  0  0  0  0
    2.0720    3.5910   -0.1070 C   0  0  0  0  0  0  0  0  0  0  0  0
    2.8170    4.6480    0.2400 N   0  0  0  0  0  0  0  0  0  0  0  0
    2.8830    4.9770    1.5500 C   0  0  0  0  0  3  0  0  0  0  0  0
    2.2110    4.2700    2.5210 C   0  0  0  0  0  3  0  0  0  0  0  0
    1.4500    3.2050    2.2120 N   0  0  0  0  0  0  0  0  0  0  0  0
    1.3980    2.8680    0.8830 C   0  0  0  0  0  0  0  0  0  0  0  0
   -0.0040    0.9810    1.3620 N   0  0  0  0  0  0  0  0  0  0  0  0
   -0.2340    1.5370    2.1820 H   0  0  0  0  0  0  0  0  0  0  0  0
   -0.7610   -0.1930    1.2170 C   0  0  0  0  0  0  0  0  0  0  0  0
   -2.3260   -2.5560    1.0350 C   0  0  0  0  0  0  0  0  0  0  0  0
   -1.3740   -2.2420    0.0570 C   0  0  0  0  0  3  0  0  0  0  0  0
   -2.4830   -1.6920    2.1330 C   0  0  0  0  0  0  0  0  0  0  0  0
   -0.5990   -1.0820    0.1550 C   0  0  0  0  0  3  0  0  0  0  0  0
   -1.6970   -0.5260    2.2090 C   0  0  0  0  0  3  0  0  0  0  0  0
   -3.1410   -3.8110    0.8960 C   0  0  0  0  0  1  0  0  0  0  0  0
   -3.4800   -1.9800    3.2220 C   0  0  0  0  0  1  0  0  0  0  0  0
    1.2570    2.0000   -3.1420 N   0  0  0  0  0  0  0  0  0  0  0  0
    1.8580    2.6650   -3.6080 H   0  0  0  0  0  0  0  0  0  0  0  0
    0.5090    1.1450   -3.9600 C   0  0  0  0  0  0  0  0  0  0  0  0
    0.9030    0.9900   -5.3030 C   0  0  0  0  0  3  0  0  0  0  0  0
   -0.5730    0.3840   -3.5100 C   0  0  0  0  0  3  0  0  0  0  0  0
    0.2300    0.1210   -6.1680 C   0  0  0  0  0  3  0  0  0  0  0  0
   -1.2390   -0.4820   -4.3750 C   0  0  0  0  0  0  0  0  0  0  0  0
   -0.8490   -0.6200   -5.7000 C   0  0  0  0  0  3  0  0  0  0  0  0
   -2.2770   -1.1980   -3.9200 F   0  0  0  0  0  0  0  0  0  0  0  0
  1 10  2  0  0  0  0
  1 11  1  0  0  0  0
  2  1  1  0  0  0  0
  3  4  1  0  0  0  0
  3  2  2  0  0  0  0
  4  5  2  0  0  0  0
  5  6  1  0  0  0  0
  5 10  1  0  0  0  0
  6  7  2  0  0  0  0
  7  8  1  0  0  0  0
  9  8  2  0  0  0  0
 10  9  1  0  0  0  0
 11 12  1  0  0  0  0
 13 11  1  0  0  0  0
 13 18  1  0  0  0  0
 14 16  1  0  0  0  0
 15 17  1  0  0  0  0
 15 14  2  0  0  0  0
 16 18  2  0  0  0  0
 16 20  1  0  0  0  0
 17 13  2  0  0  0  0
 19 14  1  0  0  0  0
 21  3  1  0  0  0  0
 22 21  1  0  0  0  0
 23 25  1  0  0  0  0
 23 21  1  0  0  0  0
 24 23  2  0  0  0  0
 26 28  2  0  0  0  0
 26 24  1  0  0  0  0
 27 29  1  0  0  0  0
 27 25  2  0  0  0  0
 28 27  1  0  0  0  0
M  END
>  <REMARK>
 SMILES Cc1ccc(Nc2nc(Nc3cccc(F)c3)nc3nccnc23)cc1C
 SMILES IDX 7 1 8 2 9 3 18 4 19 5 20 6 21 7 22 8 23 9 24 10 6 11 5 13
 SMILES IDX 2 14 3 15 26 16 4 17 25 18 1 19 27 20 10 21 11 23 12 24
 SMILES IDX 17 25 13 26 15 27 14 28 16 29
 H PARENT 6 12 10 22

>  <TORSDO>
F 4

$$$$
