/home/pchatterjee/Documents/git/vs_workflow/DiffDock/diffdock_run/pdbqt_scrubbed/Z1041113928.pdbqt
 OpenBabel10272516423D

 32 36  0  0  0  0  0  0  0  0999 V2000
    1.9250   -2.2470    0.0210 N   0  0  0  0  0  0  0  0  0  0  0  0
    0.5620   -2.5830    0.4860 C   0  0  0  0  0  2  0  0  0  0  0  0
   -0.4430   -1.4610    0.1460 C   0  0  0  0  0  2  0  0  0  0  0  0
   -0.4080   -1.1350   -1.2930 N   0  0  0  0  0  0  0  0  0  0  0  0
    0.9440   -0.8100   -1.8010 C   0  0  0  0  0  2  0  0  0  0  0  0
    1.9770   -1.8910   -1.4090 C   0  0  0  0  0  2  0  0  0  0  0  0
    2.8390   -1.7680    0.9560 C   0  0  0  0  0  0  0  0  0  0  0  0
    3.5860   -0.5730    0.8520 C   0  0  0  0  0  0  0  0  0  0  0  0
    4.5320   -0.2230    1.8330 C   0  0  0  0  0  3  0  0  0  0  0  0
    4.7280   -1.0250    2.9540 C   0  0  0  0  0  3  0  0  0  0  0  0
    3.0760   -2.5560    2.1040 C   0  0  0  0  0  3  0  0  0  0  0  0
    3.9960   -2.1930    3.0920 C   0  0  0  0  0  3  0  0  0  0  0  0
    3.4070    0.2410   -0.2430 O   0  0  0  0  0  0  0  0  0  0  0  0
    3.2640    1.6220    0.0830 C   0  0  0  0  0  1  0  0  0  0  0  0
   -1.3930   -0.2260   -1.6860 C   0  0  0  0  0  0  0  0  0  0  0  0
   -2.5490   -0.1990   -1.0160 N   0  0  0  0  0  0  0  0  0  0  0  0
   -1.1660    0.5620   -2.7390 N   0  0  0  0  0  0  0  0  0  0  0  0
   -3.5110    0.6540   -1.4120 C   0  0  0  0  0  0  0  0  0  0  0  0
   -2.1090    1.4100   -3.1250 C   0  0  0  0  0  0  0  0  0  0  0  0
   -3.3480    1.5190   -2.4880 C   0  0  0  0  0  0  0  0  0  0  0  0
   -1.8390    2.1970   -4.1750 N   0  0  0  0  0  0  0  0  0  0  0  0
   -4.3160    2.4050   -2.8870 N   0  0  0  0  0  0  0  0  0  0  0  0
   -2.7900    3.0690   -4.5790 C   0  0  0  0  0  3  0  0  0  0  0  0
   -4.0080    3.1740   -3.9470 C   0  0  0  0  0  3  0  0  0  0  0  0
   -4.7550    0.7190   -0.7280 N   0  0  0  0  0  0  0  0  0  0  0  0
   -5.3340    1.4680   -1.1000 H   0  0  0  0  0  0  0  0  0  0  0  0
   -5.3430   -0.0620    0.2750 C   0  0  0  0  0  0  0  0  0  0  0  0
   -4.8040   -1.2630    0.7450 C   0  0  0  0  0  3  0  0  0  0  0  0
   -6.5240    0.4020    0.8790 C   0  0  0  0  0  3  0  0  0  0  0  0
   -5.4270   -1.9870    1.7680 C   0  0  0  0  0  3  0  0  0  0  0  0
   -7.1500   -0.3150    1.9040 C   0  0  0  0  0  3  0  0  0  0  0  0
   -6.6000   -1.5120    2.3480 C   0  0  0  0  0  3  0  0  0  0  0  0
  1  2  1  0  0  0  0
  1  7  1  0  0  0  0
  3  2  1  0  0  0  0
  4  3  1  0  0  0  0
  5  6  1  0  0  0  0
  5  4  1  0  0  0  0
  6  1  1  0  0  0  0
  7 11  1  0  0  0  0
  8  7  2  0  0  0  0
  8  9  1  0  0  0  0
  9 10  2  0  0  0  0
 10 12  1  0  0  0  0
 11 12  2  0  0  0  0
 13 14  1  0  0  0  0
 13  8  1  0  0  0  0
 15  4  1  0  0  0  0
 15 16  2  0  0  0  0
 17 15  1  0  0  0  0
 18 16  1  0  0  0  0
 18 25  1  0  0  0  0
 19 17  2  0  0  0  0
 19 20  1  0  0  0  0
 20 18  2  0  0  0  0
 21 19  1  0  0  0  0
 22 20  1  0  0  0  0
 23 21  2  0  0  0  0
 23 24  1  0  0  0  0
 24 22  2  0  0  0  0
 25 27  1  0  0  0  0
 26 25  1  0  0  0  0
 27 28  2  0  0  0  0
 27 29  1  0  0  0  0
 28 30  1  0  0  0  0
 29 31  2  0  0  0  0
 30 32  2  0  0  0  0
 31 32  1  0  0  0  0
M  END
>  <REMARK>
 SMILES COc1ccccc1N1CCN(c2nc(Nc3ccccc3)c3nccnc3n2)CC1
 SMILES IDX 9 1 10 2 11 3 12 4 30 5 31 6 8 7 3 8 4 9 5 10 7 11 6 12 2 13
 SMILES IDX 1 14 13 15 14 16 29 17 15 18 28 19 23 20 27 21 24 22 26 23
 SMILES IDX 25 24 16 25 17 27 18 28 22 29 19 30 21 31 20 32
 H PARENT 16 26

>  <TORSDO>
F 5

$$$$
