/home/pchatterjee/Documents/git/vs_workflow/DiffDock/diffdock_run/pdbqt_scrubbed/Z105619926.pdbqt
 OpenBabel10272516423D

 24 26  0  0  0  0  0  0  0  0999 V2000
   -0.2170    1.2770   -1.5290 N   0  0  0  0  0  4  0  0  0  0  0  0
   -0.5150    2.1060   -2.0560 H   0  0  0  0  0  0  0  0  0  0  0  0
    0.4660    0.3760   -2.5500 C   0  0  0  0  0  2  0  0  0  0  0  0
    1.4010    1.1900   -3.4270 C   0  0  0  0  0  1  0  0  0  0  0  0
   -1.5240    0.6620   -1.0070 C   0  0  0  0  0  2  0  0  0  0  0  0
   -1.3380   -0.6160   -0.1930 C   0  0  0  0  0  0  0  0  0  0  0  0
   -0.7940   -1.6560   -0.7380 N   0  0  0  0  0  0  0  0  0  0  0  0
   -1.7500   -0.5820    1.1130 N   0  0  0  0  0  0  0  0  0  0  0  0
   -0.6340   -2.8110    0.0520 C   0  0  0  0  0  0  0  0  0  0  0  0
   -1.6250   -1.6490    1.9680 C   0  0  0  0  0  0  0  0  0  0  0  0
   -0.0640   -3.9490   -0.5200 C   0  0  0  0  0  3  0  0  0  0  0  0
   -1.0220   -2.8620    1.3950 C   0  0  0  0  0  0  0  0  0  0  0  0
    0.1150   -5.1100    0.2390 C   0  0  0  0  0  3  0  0  0  0  0  0
   -0.8490   -4.0160    2.1640 C   0  0  0  0  0  3  0  0  0  0  0  0
   -0.2770   -5.1440    1.5780 C   0  0  0  0  0  3  0  0  0  0  0  0
   -2.1990    0.2210    1.5340 H   0  0  0  0  0  0  0  0  0  0  0  0
   -1.9900   -1.5710    3.1320 O   0  0  0  0  0  0  0  0  0  0  0  0
    0.7100    1.7300   -0.4110 C   0  0  0  0  0  2  0  0  0  0  0  0
    1.0060    3.2340   -0.5220 C   0  0  0  0  0  3  0  0  0  0  0  0
   -0.2600    4.0940   -0.3230 C   0  0  0  0  0  2  0  0  0  0  0  0
    2.0880    3.6360    0.4880 C   0  0  0  0  0  2  0  0  0  0  0  0
    0.0260    5.5060    0.1970 C   0  0  0  0  0  2  0  0  0  0  0  0
    2.5130    5.0980    0.3210 C   0  0  0  0  0  2  0  0  0  0  0  0
    1.4030    5.9990   -0.2200 C   0  0  0  0  0  2  0  0  0  0  0  0
  1  5  1  0  0  0  0
  1 18  1  0  0  0  0
  2  1  1  0  0  0  0
  3  1  1  0  0  0  0
  4  3  1  0  0  0  0
  5  6  1  0  0  0  0
  6  8  1  0  0  0  0
  7  6  2  0  0  0  0
  7  9  1  0  0  0  0
  8 16  1  0  0  0  0
  8 10  1  0  0  0  0
  9 12  1  0  0  0  0
 10 17  2  0  0  0  0
 11  9  2  0  0  0  0
 11 13  1  0  0  0  0
 12 10  1  0  0  0  0
 12 14  2  0  0  0  0
 13 15  2  0  0  0  0
 15 14  1  0  0  0  0
 19 18  1  0  0  0  0
 19 20  1  0  0  0  0
 19 21  1  0  0  0  0
 20 22  1  0  0  0  0
 23 21  1  0  0  0  0
 24 22  1  0  0  0  0
 24 23  1  0  0  0  0
M  END
>  <REMARK>
 SMILES CC[NH+](Cc1nc2ccccc2c(=O)[nH]1)CC1CCCCC1
 SMILES IDX 3 1 2 3 1 4 4 5 5 6 6 7 15 8 7 9 13 10 8 11 12 12 9 13 11 14
 SMILES IDX 10 15 14 17 16 18 17 19 18 20 22 21 19 22 21 23 20 24
 H PARENT 3 2 15 16

>  <TORSDO>
F 5

$$$$
