/home/pchatterjee/Documents/git/vs_workflow/DiffDock/diffdock_run/pdbqt_scrubbed/Z107240550.pdbqt
 OpenBabel10272516423D

 33 36  0  0  0  0  0  0  0  0999 V2000
    0.8980    0.9260   -0.4900 C   0  0  0  0  0  2  0  0  0  0  0  0
    1.2780    0.2000   -1.7630 C   0  0  0  0  0  0  0  0  0  0  0  0
    2.7470   -1.0090   -2.9400 C   0  0  0  0  0  0  0  0  0  0  0  0
    2.4900   -0.3540   -1.8210 N   0  0  0  0  0  4  0  0  0  0  0  0
    1.9010   -1.1640   -3.9460 N   0  0  0  0  0  0  0  0  0  0  0  0
    0.7100   -0.5900   -3.8000 C   0  0  0  0  0  0  0  0  0  0  0  0
    0.3620    0.1030   -2.7240 N   0  0  0  0  0  2  0  0  0  0  0  0
    3.9830   -1.6130   -3.0470 N   0  0  0  0  0  0  0  0  0  0  0  0
    4.3630   -1.8050   -2.1300 H   0  0  0  0  0  0  0  0  0  0  0  0
    3.9410   -2.3880   -3.6940 H   0  0  0  0  0  0  0  0  0  0  0  0
   -0.1650   -0.7610   -4.8710 N   0  0  0  0  0  0  0  0  0  0  0  0
    0.2900   -1.3030   -5.5910 H   0  0  0  0  0  0  0  0  0  0  0  0
   -1.5100   -0.4380   -5.0840 C   0  0  0  0  0  0  0  0  0  0  0  0
   -2.0670   -0.6940   -6.3490 C   0  0  0  0  0  3  0  0  0  0  0  0
   -2.3340    0.1620   -4.1250 C   0  0  0  0  0  3  0  0  0  0  0  0
   -3.3980   -0.3770   -6.6390 C   0  0  0  0  0  3  0  0  0  0  0  0
   -3.6670    0.4800   -4.4100 C   0  0  0  0  0  3  0  0  0  0  0  0
   -4.1990    0.2100   -5.6660 C   0  0  0  0  0  3  0  0  0  0  0  0
    0.2320    0.0470    0.4790 N   0  0  0  0  0  0  0  0  0  0  0  0
    0.9980   -0.8340    1.2360 C   0  0  0  0  0  3  0  0  0  0  0  0
   -1.1600    0.0630    0.5350 C   0  0  0  0  0  0  0  0  0  0  0  0
    0.4260   -1.7010    2.0850 C   0  0  0  0  0  0  0  0  0  0  0  0
   -1.7810   -0.9180    1.4680 C   0  0  0  0  0  3  0  0  0  0  0  0
   -1.0170   -1.7460    2.1930 C   0  0  0  0  0  3  0  0  0  0  0  0
   -1.8840    0.8190   -0.1040 O   0  0  0  0  0  0  0  0  0  0  0  0
    1.4530   -2.7770    3.0170 S   0  0  0  0  0  0  0  0  0  0  0  0
    0.6770   -3.9490    3.3780 O   0  0  0  0  0  0  0  0  0  0  0  0
    2.7210   -2.9350    2.3290 O   0  0  0  0  0  0  0  0  0  0  0  0
    1.7950   -1.9760    4.4630 N   0  0  0  0  0  0  0  0  0  0  0  0
    2.6910   -0.8020    4.4610 C   0  0  0  0  0  2  0  0  0  0  0  0
    0.7240   -1.7890    5.4590 C   0  0  0  0  0  2  0  0  0  0  0  0
    2.0210    0.1940    5.3990 C   0  0  0  0  0  2  0  0  0  0  0  0
    1.2680   -0.6970    6.3700 C   0  0  0  0  0  2  0  0  0  0  0  0
  1 19  1  0  0  0  0
  2  1  1  0  0  0  0
  3  4  2  0  0  0  0
  4  2  2  0  0  0  0
  5  6  2  0  0  0  0
  5  3  1  0  0  0  0
  6  7  1  0  0  0  0
  7  2  1  0  0  0  0
  8  3  1  0  0  0  0
  8  9  1  0  0  0  0
 10  8  1  0  0  0  0
 11  6  1  0  0  0  0
 12 11  1  0  0  0  0
 13 11  1  0  0  0  0
 13 15  1  0  0  0  0
 14 13  2  0  0  0  0
 16 14  1  0  0  0  0
 16 18  2  0  0  0  0
 17 15  2  0  0  0  0
 18 17  1  0  0  0  0
 19 21  1  0  0  0  0
 19 20  1  0  0  0  0
 20 22  2  0  0  0  0
 21 23  1  0  0  0  0
 22 24  1  0  0  0  0
 22 26  1  0  0  0  0
 23 24  2  0  0  0  0
 25 21  2  0  0  0  0
 26 27  2  0  0  0  0
 26 29  1  0  0  0  0
 28 26  2  0  0  0  0
 29 31  1  0  0  0  0
 30 29  1  0  0  0  0
 30 32  1  0  0  0  0
 31 33  1  0  0  0  0
 32 33  1  0  0  0  0
M  END
>  <REMARK>
 SMILES Nc1nc(Cn2cc(S(=O)(=O)N3CCCC3)ccc2=O)nc(Nc2ccccc2)n1
 SMILES IDX 5 1 4 2 2 3 3 4 30 5 22 6 21 7 1 8 23 11 24 13 25 14 29 15
 SMILES IDX 26 16 28 17 27 18 6 19 7 20 19 21 8 22 18 23 17 24 20 25
 SMILES IDX 9 26 10 27 11 28 12 29 13 30 16 31 14 32 15 33
 H PARENT 1 9 1 10 23 12

>  <TORSDO>
F 7

$$$$
