/home/pchatterjee/Documents/git/vs_workflow/DiffDock/diffdock_run/pdbqt_scrubbed/Z107740192.pdbqt
 OpenBabel10272516423D

 32 35  0  0  1  0  0  0  0  0999 V2000
    0.7910    0.1500   -2.0660 C   0  0  0  0  0  0  0  0  0  0  0  0
    0.8160    0.4180   -3.4010 N   0  0  0  0  0  0  0  0  0  0  0  0
   -0.3340    0.8060   -3.9790 C   0  0  0  0  0  0  0  0  0  0  0  0
   -0.3640    1.0840   -5.3410 C   0  0  0  0  0  3  0  0  0  0  0  0
   -1.5390    1.4950   -5.9710 C   0  0  0  0  0  3  0  0  0  0  0  0
   -2.7030    1.6320   -5.2250 C   0  0  0  0  0  3  0  0  0  0  0  0
   -2.6810    1.3550   -3.8580 C   0  0  0  0  0  3  0  0  0  0  0  0
   -1.5150    0.9430   -3.2210 C   0  0  0  0  0  0  0  0  0  0  0  0
   -1.5320    0.6830   -1.9000 N   0  0  0  0  0  0  0  0  0  0  0  0
   -0.3900    0.2710   -1.3130 C   0  0  0  0  0  0  0  0  0  0  0  0
    2.0860   -0.2230   -1.3960 C   0  0  2  0  0  3  0  0  0  0  0  0
    3.2930    0.1210   -2.1410 C   0  0  0  0  0  0  0  0  0  0  0  0
    4.2940    0.4070   -2.6580 N   0  0  0  0  0  0  0  0  0  0  0  0
    2.0910   -1.9940   -1.1970 S   0  0  0  0  0  0  0  0  0  0  0  0
    2.2150   -2.6660   -2.4770 O   0  0  0  0  0  0  0  0  0  0  0  0
    1.0120   -2.3750   -0.2940 O   0  0  0  0  0  0  0  0  0  0  0  0
    3.5930   -2.3290   -0.2850 C   0  0  0  0  0  0  0  0  0  0  0  0
    4.7360   -2.7680   -0.9650 C   0  0  0  0  0  3  0  0  0  0  0  0
    3.5920   -2.1910    1.1090 C   0  0  0  0  0  3  0  0  0  0  0  0
    5.8970   -3.0410   -0.2410 C   0  0  0  0  0  3  0  0  0  0  0  0
    4.7590   -2.4690    1.8220 C   0  0  0  0  0  3  0  0  0  0  0  0
    5.9000   -2.8870    1.1420 C   0  0  0  0  0  0  0  0  0  0  0  0
    7.0160   -3.1530    1.8330 F   0  0  0  0  0  0  0  0  0  0  0  0
   -0.3830   -0.0280    0.0660 N   0  0  0  0  0  0  0  0  0  0  0  0
   -0.1760   -1.0320    0.1570 H   0  0  0  0  0  0  0  0  0  0  0  0
   -1.6450    0.2720    0.7530 C   0  0  0  0  0  2  0  0  0  0  0  0
   -1.4830    0.0610    2.2710 C   0  0  0  0  0  3  0  0  0  0  0  0
   -1.3430   -1.4180    2.6550 C   0  0  0  0  0  2  0  0  0  0  0  0
   -2.6740    0.6960    3.0180 C   0  0  0  0  0  2  0  0  0  0  0  0
   -1.0790   -1.5970    4.1530 C   0  0  0  0  0  2  0  0  0  0  0  0
   -2.9230    0.1050    4.4080 C   0  0  0  0  0  2  0  0  0  0  0  0
   -1.6570   -0.4770    5.0180 C   0  0  0  0  0  2  0  0  0  0  0  0
  1 11  1  0  0  0  0
  1 10  1  0  0  0  0
  2  1  2  0  0  0  0
  3  2  1  0  0  0  0
  3  8  1  0  0  0  0
  4  3  2  0  0  0  0
  5  4  1  0  0  0  0
  5  6  2  0  0  0  0
  6  7  1  0  0  0  0
  7  8  2  0  0  0  0
  8  9  1  0  0  0  0
  9 10  2  0  0  0  0
 10 24  1  0  0  0  0
 11 12  1  6  0  0  0
 11 14  1  0  0  0  0
 13 12  3  0  0  0  0
 14 16  2  0  0  0  0
 14 17  1  0  0  0  0
 15 14  2  0  0  0  0
 17 19  1  0  0  0  0
 18 17  2  0  0  0  0
 18 20  1  0  0  0  0
 19 21  2  0  0  0  0
 20 22  2  0  0  0  0
 22 21  1  0  0  0  0
 22 23  1  0  0  0  0
 24 25  1  0  0  0  0
 24 26  1  0  0  0  0
 26 27  1  0  0  0  0
 27 28  1  0  0  0  0
 27 29  1  0  0  0  0
 28 30  1  0  0  0  0
 29 31  1  0  0  0  0
 30 32  1  0  0  0  0
 31 32  1  0  0  0  0
M  END
>  <REMARK>
 SMILES N#CC(c1nc2ccccc2nc1NCC1CCCCC1)S(=O)(=O)c1ccc(F)cc1
 SMILES IDX 4 1 5 2 6 3 7 4 8 5 9 6 10 7 11 8 12 9 13 10 3 11 2 12 1 13
 SMILES IDX 22 14 23 15 24 16 25 17 26 18 31 19 27 20 30 21 28 22 29 23
 SMILES IDX 14 24 15 26 16 27 17 28 21 29 18 30 20 31 19 32
 H PARENT 14 25

>  <TORSDO>
F 7

$$$$
