/home/pchatterjee/Documents/git/vs_workflow/DiffDock/diffdock_run/pdbqt_scrubbed/Z107273728.pdbqt
 OpenBabel10272516423D

 34 37  0  0  0  0  0  0  0  0999 V2000
    3.6430   -1.8480   -0.0200 C   0  0  0  0  0  2  0  0  0  0  0  0
    3.2250   -0.6830   -0.7880 N   0  0  0  0  0  0  0  0  0  0  0  0
    3.2560    0.6850   -2.4220 C   0  0  0  0  0  0  0  0  0  0  0  0
    3.8580   -0.4150   -1.9520 N   0  0  0  0  0  0  0  0  0  0  0  0
    2.2380    1.1200   -1.5490 C   0  0  0  0  0  0  0  0  0  0  0  0
    2.2750    0.2580   -0.4640 C   0  0  0  0  0  0  0  0  0  0  0  0
    3.6990    1.2720   -3.7110 C   0  0  0  0  0  1  0  0  0  0  0  0
    1.4830    0.2560    0.7930 C   0  0  0  0  0  1  0  0  0  0  0  0
    1.2020    2.4730   -1.7840 S   0  0  0  0  0  0  0  0  0  0  0  0
    1.8040    3.5120   -0.9780 O   0  0  0  0  0  0  0  0  0  0  0  0
    1.0530    2.6060   -3.2170 O   0  0  0  0  0  0  0  0  0  0  0  0
   -0.3410    2.1040   -1.1370 N   0  0  0  0  0  0  0  0  0  0  0  0
   -1.0490    0.9980   -1.8420 C   0  0  0  0  0  2  0  0  0  0  0  0
   -1.2120    3.3030   -0.9920 C   0  0  0  0  0  2  0  0  0  0  0  0
   -2.2710    0.5810   -1.0260 C   0  0  0  0  0  2  0  0  0  0  0  0
   -2.4470    2.9360   -0.1710 C   0  0  0  0  0  2  0  0  0  0  0  0
   -3.2040    1.7660   -0.7940 C   0  0  0  0  0  2  0  0  0  0  0  0
    2.6930   -2.9920   -0.2370 C   0  0  0  0  0  0  0  0  0  0  0  0
    3.0150   -3.9150   -1.1430 N   0  0  0  0  0  4  0  0  0  0  0  0
    1.5790   -3.0270    0.5000 N   0  0  0  0  0  0  0  0  0  0  0  0
    2.1310   -4.8850   -1.2980 C   0  0  0  0  0  0  0  0  0  0  0  0
    0.7490   -4.0370    0.2620 C   0  0  0  0  0  0  0  0  0  0  0  0
    0.9840   -4.9810   -0.6460 N   0  0  0  0  0  2  0  0  0  0  0  0
    2.4160   -5.8510   -2.2420 N   0  0  0  0  0  0  0  0  0  0  0  0
    1.5670   -6.2750   -2.5900 H   0  0  0  0  0  0  0  0  0  0  0  0
    3.0670   -5.4910   -2.9290 H   0  0  0  0  0  0  0  0  0  0  0  0
   -0.4660   -4.1580    0.9350 N   0  0  0  0  0  0  0  0  0  0  0  0
   -0.9480   -4.9810    0.6030 H   0  0  0  0  0  0  0  0  0  0  0  0
   -1.0470   -3.4910    2.0200 C   0  0  0  0  0  0  0  0  0  0  0  0
   -2.3870   -3.7710    2.3370 C   0  0  0  0  0  3  0  0  0  0  0  0
   -0.3940   -2.5130    2.7760 C   0  0  0  0  0  3  0  0  0  0  0  0
   -3.0420   -3.1120    3.3820 C   0  0  0  0  0  3  0  0  0  0  0  0
   -1.0430   -1.8500    3.8230 C   0  0  0  0  0  3  0  0  0  0  0  0
   -2.3670   -2.1500    4.1260 C   0  0  0  0  0  3  0  0  0  0  0  0
  2  6  1  0  0  0  0
  2  1  1  0  0  0  0
  3  4  2  0  0  0  0
  3  5  1  0  0  0  0
  4  2  1  0  0  0  0
  5  6  2  0  0  0  0
  6  8  1  0  0  0  0
  7  3  1  0  0  0  0
  9  5  1  0  0  0  0
  9 12  1  0  0  0  0
  9 10  2  0  0  0  0
 11  9  2  0  0  0  0
 12 14  1  0  0  0  0
 13 12  1  0  0  0  0
 13 15  1  0  0  0  0
 14 16  1  0  0  0  0
 15 17  1  0  0  0  0
 17 16  1  0  0  0  0
 18  1  1  0  0  0  0
 18 20  1  0  0  0  0
 19 18  2  0  0  0  0
 21 19  2  0  0  0  0
 21 23  1  0  0  0  0
 22 20  2  0  0  0  0
 22 27  1  0  0  0  0
 23 22  1  0  0  0  0
 24 21  1  0  0  0  0
 25 24  1  0  0  0  0
 26 24  1  0  0  0  0
 27 29  1  0  0  0  0
 28 27  1  0  0  0  0
 29 30  2  0  0  0  0
 29 31  1  0  0  0  0
 30 32  1  0  0  0  0
 31 33  2  0  0  0  0
 32 34  2  0  0  0  0
 33 34  1  0  0  0  0
M  END
>  <REMARK>
 SMILES Cc1nn(Cc2nc(N)nc(Nc3ccccc3)n2)c(C)c1S(=O)(=O)N1CCCCC1
 SMILES IDX 5 1 4 2 2 3 3 4 22 5 20 6 1 7 21 8 23 9 24 10 25 11 26 12
 SMILES IDX 27 13 31 14 28 15 30 16 29 17 6 18 7 19 19 20 8 21 11 22
 SMILES IDX 10 23 9 24 12 27 13 29 14 30 18 31 15 32 17 33 16 34
 H PARENT 9 25 9 26 12 28

>  <TORSDO>
F 7

$$$$
