/home/pchatterjee/Documents/git/vs_workflow/DiffDock/diffdock_run/pdbqt_scrubbed/Z1102775719.pdbqt
 OpenBabel10272516423D

 24 27  0  0  1  0  0  0  0  0999 V2000
   -1.8160    0.5820   -1.3300 C   0  0  0  0  0  0  0  0  0  0  0  0
   -3.1750    0.4030   -1.6090 C   0  0  0  0  0  3  0  0  0  0  0  0
   -4.1030    1.3260   -1.1280 C   0  0  0  0  0  3  0  0  0  0  0  0
   -3.6740    2.4230   -0.3790 C   0  0  0  0  0  3  0  0  0  0  0  0
   -2.3150    2.6080   -0.1160 C   0  0  0  0  0  3  0  0  0  0  0  0
   -1.3830    1.6980   -0.6130 C   0  0  0  0  0  0  0  0  0  0  0  0
   -0.8580   -0.3990   -1.8650 C   0  0  0  0  0  0  0  0  0  0  0  0
   -0.5260   -0.2820   -3.0430 O   0  0  0  0  0  0  0  0  0  0  0  0
   -0.4200   -1.4360   -1.0400 N   0  0  0  0  0  0  0  0  0  0  0  0
    0.3930   -2.4720   -1.6710 C   0  0  0  0  0  2  0  0  0  0  0  0
   -0.8970   -1.6700    0.3260 C   0  0  0  0  0  2  0  0  0  0  0  0
    0.6080   -3.6940   -0.7880 C   0  0  0  0  0  2  0  0  0  0  0  0
    0.1580   -2.2860    1.2720 C   0  0  1  0  0  3  0  0  0  0  0  0
    1.1190   -3.2700    0.5820 C   0  0  0  0  0  2  0  0  0  0  0  0
    0.8870   -1.2740    2.0290 N   0  0  0  0  0  0  0  0  0  0  0  0
    1.6590   -0.2650    1.5230 C   0  0  0  0  0  3  0  0  0  0  0  0
    0.9150   -1.1680    3.3930 C   0  0  0  0  0  3  0  0  0  0  0  0
    2.1260    0.4130    2.6260 C   0  0  0  0  0  3  0  0  0  0  0  0
    1.6600   -0.1570    3.7830 N   0  0  0  0  0  0  0  0  0  0  0  0
   -0.0570    1.8690   -0.3260 O   0  0  0  0  0  0  0  0  0  0  0  0
    0.5290    2.8470   -1.1970 C   0  0  0  0  0  2  0  0  0  0  0  0
    2.0140    2.6320   -1.1940 C   0  0  0  0  0  3  0  0  0  0  0  0
    2.8410    2.9820   -2.4030 C   0  0  0  0  0  2  0  0  0  0  0  0
    2.6190    1.5380   -2.0410 C   0  0  0  0  0  2  0  0  0  0  0  0
  1  6  1  0  0  0  0
  2  1  2  0  0  0  0
  2  3  1  0  0  0  0
  3  4  2  0  0  0  0
  4  5  1  0  0  0  0
  6 20  1  0  0  0  0
  6  5  2  0  0  0  0
  7  1  1  0  0  0  0
  7  9  1  0  0  0  0
  8  7  2  0  0  0  0
  9 11  1  0  0  0  0
 10  9  1  0  0  0  0
 10 12  1  0  0  0  0
 12 14  1  0  0  0  0
 13 11  1  6  0  0  0
 13 15  1  0  0  0  0
 14 13  1  0  0  0  0
 15 17  1  0  0  0  0
 16 15  1  0  0  0  0
 16 18  2  0  0  0  0
 17 19  2  0  0  0  0
 18 19  1  0  0  0  0
 21 22  1  0  0  0  0
 21 20  1  0  0  0  0
 23 24  1  0  0  0  0
 23 22  1  0  0  0  0
 24 22  1  0  0  0  0
M  END
>  <REMARK>
 SMILES O=C(c1ccccc1OCC1CC1)N1CCCC(n2ccnc2)C1
 SMILES IDX 3 1 4 2 5 3 6 4 7 5 8 6 2 7 1 8 14 9 15 10 24 11 16 12 18 13
 SMILES IDX 17 14 19 15 20 16 23 17 21 18 22 19 9 20 10 21 11 22 12 23
 SMILES IDX 13 24
 H PARENT

>  <TORSDO>
F 6

$$$$
