/home/pchatterjee/Documents/git/vs_workflow/DiffDock/diffdock_run/pdbqt_scrubbed/Z1127203562.pdbqt
 OpenBabel10272516423D

 27 29  0  0  0  0  0  0  0  0999 V2000
    2.4670   -1.0570   -1.2490 N   0  0  0  0  0  0  0  0  0  0  0  0
    3.8980   -0.7630   -1.0210 C   0  0  0  0  0  3  0  0  0  0  0  0
    4.1890   -0.2330    0.3850 C   0  0  0  0  0  1  0  0  0  0  0  0
    4.7940   -1.9560   -1.3650 C   0  0  0  0  0  1  0  0  0  0  0  0
    1.7280   -0.0680   -2.0480 C   0  0  0  0  0  2  0  0  0  0  0  0
    1.3390    1.1290   -1.1920 C   0  0  0  0  0  0  0  0  0  0  0  0
    1.8040    2.3100   -1.4490 N   0  0  0  0  0  0  0  0  0  0  0  0
    0.4670    0.8710   -0.1660 N   0  0  0  0  0  0  0  0  0  0  0  0
    1.3980    3.3690   -0.6180 C   0  0  0  0  0  0  0  0  0  0  0  0
    0.0080    1.8310    0.6980 C   0  0  0  0  0  0  0  0  0  0  0  0
    1.8910    4.6500   -0.8690 C   0  0  0  0  0  3  0  0  0  0  0  0
    0.5160    3.1910    0.4540 C   0  0  0  0  0  0  0  0  0  0  0  0
    1.5120    5.7300   -0.0650 C   0  0  0  0  0  3  0  0  0  0  0  0
    0.1300    4.2630    1.2660 C   0  0  0  0  0  3  0  0  0  0  0  0
    0.6320    5.5360    1.0020 C   0  0  0  0  0  3  0  0  0  0  0  0
    0.1710   -0.0810    0.0190 H   0  0  0  0  0  0  0  0  0  0  0  0
   -0.7770    1.5780    1.6040 O   0  0  0  0  0  0  0  0  0  0  0  0
    1.8430   -2.0440   -0.4920 C   0  0  0  0  0  0  0  0  0  0  0  0
    0.4970   -2.1900   -0.7490 N   0  0  0  0  0  0  0  0  0  0  0  0
    2.4090   -2.7100    0.3670 O   0  0  0  0  0  0  0  0  0  0  0  0
    0.3170   -2.2670   -1.7400 H   0  0  0  0  0  0  0  0  0  0  0  0
   -0.2650   -3.1430    0.0440 C   0  0  0  0  0  2  0  0  0  0  0  0
   -1.7600   -3.0340   -0.2340 C   0  0  0  0  0  3  0  0  0  0  0  0
   -2.3770   -1.7110    0.2180 C   0  0  0  0  0  2  0  0  0  0  0  0
   -2.5810   -4.0920    0.5140 C   0  0  0  0  0  2  0  0  0  0  0  0
   -3.8620   -2.0310    0.2520 C   0  0  0  0  0  2  0  0  0  0  0  0
   -3.9240   -3.4360    0.8400 C   0  0  0  0  0  2  0  0  0  0  0  0
  1  2  1  0  0  0  0
  1 18  1  0  0  0  0
  2  3  1  0  0  0  0
  4  2  1  0  0  0  0
  5  1  1  0  0  0  0
  5  6  1  0  0  0  0
  6  8  1  0  0  0  0
  7  6  2  0  0  0  0
  7  9  1  0  0  0  0
  8 16  1  0  0  0  0
  8 10  1  0  0  0  0
  9 12  1  0  0  0  0
 10 17  2  0  0  0  0
 11  9  2  0  0  0  0
 11 13  1  0  0  0  0
 12 10  1  0  0  0  0
 12 14  2  0  0  0  0
 13 15  2  0  0  0  0
 15 14  1  0  0  0  0
 18 20  2  0  0  0  0
 19 18  1  0  0  0  0
 19 22  1  0  0  0  0
 21 19  1  0  0  0  0
 23 22  1  0  0  0  0
 23 24  1  0  0  0  0
 23 25  1  0  0  0  0
 24 26  1  0  0  0  0
 25 27  1  0  0  0  0
 26 27  1  0  0  0  0
M  END
>  <REMARK>
 SMILES CC(C)N(Cc1nc2ccccc2c(=O)[nH]1)C(=O)NCC1CCCC1
 SMILES IDX 4 1 2 2 1 3 3 4 5 5 6 6 7 7 16 8 8 9 14 10 9 11 13 12 10 13
 SMILES IDX 12 14 11 15 15 17 17 18 19 19 18 20 20 22 21 23 22 24 25 25
 SMILES IDX 23 26 24 27
 H PARENT 16 16 19 21

>  <TORSDO>
F 6

$$$$
