/home/pchatterjee/Documents/git/vs_workflow/DiffDock/diffdock_run/pdbqt_scrubbed/Z1139464384.pdbqt
 OpenBabel10272516423D

 27 30  0  0  1  0  0  0  0  0999 V2000
   -0.7220    0.5110   -0.1620 N   0  0  0  0  0  4  0  0  0  0  0  0
   -0.9610   -0.9600   -0.4440 C   0  0  0  0  0  2  0  0  0  0  0  0
   -0.5530   -1.8140    0.7560 C   0  0  0  0  0  2  0  0  0  0  0  0
    0.5080   -1.1450    1.6180 C   0  0  0  0  0  2  0  0  0  0  0  0
    0.0220    0.2060    2.1870 C   0  0  1  0  0  3  0  0  0  0  0  0
   -1.0050    0.8820    1.2630 C   0  0  0  0  0  2  0  0  0  0  0  0
    0.2980    0.6280   -0.3190 H   0  0  0  0  0  0  0  0  0  0  0  0
   -1.2850    1.4960   -1.2140 C   0  0  2  0  0  3  0  0  0  0  0  0
   -2.7440    1.2020   -1.5260 C   0  0  0  0  0  1  0  0  0  0  0  0
   -0.3560    1.4990   -2.4460 C   0  0  0  0  0  0  0  0  0  0  0  0
    0.8280    0.9830   -2.3040 N   0  0  0  0  0  0  0  0  0  0  0  0
   -0.7920    2.0790   -3.6010 N   0  0  0  0  0  0  0  0  0  0  0  0
    1.6900    1.0040   -3.4190 C   0  0  0  0  0  0  0  0  0  0  0  0
   -0.0280    2.1480   -4.7400 C   0  0  0  0  0  0  0  0  0  0  0  0
    2.9630    0.4450   -3.3000 C   0  0  0  0  0  3  0  0  0  0  0  0
    1.3190    1.5640   -4.6450 C   0  0  0  0  0  0  0  0  0  0  0  0
    3.8430    0.4480   -4.3880 C   0  0  0  0  0  3  0  0  0  0  0  0
    2.1880    1.5740   -5.7390 C   0  0  0  0  0  3  0  0  0  0  0  0
    3.4560    1.0110   -5.6050 C   0  0  0  0  0  3  0  0  0  0  0  0
   -1.7070    2.4990   -3.7060 H   0  0  0  0  0  0  0  0  0  0  0  0
   -0.4600    2.6660   -5.7600 O   0  0  0  0  0  0  0  0  0  0  0  0
   -0.5830    0.1050    3.6020 C   0  0  0  0  0  2  0  0  0  0  0  0
    0.3620   -0.2950    4.6190 N   0  0  0  0  0  0  0  0  0  0  0  0
    1.1980    0.4910    5.3440 C   0  0  0  0  0  3  0  0  0  0  0  0
    0.4820   -1.5860    4.9640 N   0  0  0  0  0  0  0  0  0  0  0  0
    1.8970   -0.2610    6.1610 N   0  0  0  0  0  0  0  0  0  0  0  0
    1.4250   -1.5180    5.9090 C   0  0  0  0  0  3  0  0  0  0  0  0
  1  6  1  0  0  0  0
  2  1  1  0  0  0  0
  2  3  1  0  0  0  0
  3  4  1  0  0  0  0
  4  5  1  0  0  0  0
  5 22  1  1  0  0  0
  6  5  1  0  0  0  0
  7  1  1  0  0  0  0
  8  9  1  6  0  0  0
  8  1  1  0  0  0  0
 10 11  2  0  0  0  0
 10  8  1  0  0  0  0
 12 10  1  0  0  0  0
 13 15  1  0  0  0  0
 13 11  1  0  0  0  0
 14 16  1  0  0  0  0
 14 12  1  0  0  0  0
 16 13  2  0  0  0  0
 17 15  2  0  0  0  0
 18 19  2  0  0  0  0
 18 16  1  0  0  0  0
 19 17  1  0  0  0  0
 20 12  1  0  0  0  0
 21 14  2  0  0  0  0
 22 23  1  0  0  0  0
 23 25  1  0  0  0  0
 23 24  1  0  0  0  0
 24 26  2  0  0  0  0
 25 27  2  0  0  0  0
 27 26  1  0  0  0  0
M  END
>  <REMARK>
 SMILES CC(c1nc2ccccc2c(=O)[nH]1)[NH+]1CCCC(Cn2cncn2)C1
 SMILES IDX 14 1 15 2 16 3 17 4 18 5 25 6 2 8 1 9 3 10 4 11 13 12 5 13
 SMILES IDX 11 14 6 15 10 16 7 17 9 18 8 19 12 21 19 22 20 23 21 24
 SMILES IDX 24 25 22 26 23 27
 H PARENT 14 7 13 20

>  <TORSDO>
F 4

$$$$
