/home/pchatterjee/Documents/git/vs_workflow/DiffDock/diffdock_run/pdbqt_scrubbed/Z1139464858.pdbqt
 OpenBabel10272516423D

 26 29  0  0  1  0  0  0  0  0999 V2000
   -1.2410   -2.7280   -0.2080 C   0  0  0  0  0  2  0  0  0  0  0  0
    0.1720   -2.5190    0.1950 C   0  0  0  0  0  0  0  0  0  0  0  0
    2.0190   -1.9010    0.9860 C   0  0  0  0  0  0  0  0  0  0  0  0
    2.3340   -2.8870    0.1300 N   0  0  0  0  0  0  0  0  0  0  0  0
    0.6550   -1.6540    1.0570 N   0  0  0  0  0  0  0  0  0  0  0  0
    1.1150   -3.2920   -0.3980 O   0  0  0  0  0  0  0  0  0  0  0  0
    2.9800   -1.1590    1.8020 C   0  0  0  0  0  0  0  0  0  0  0  0
    4.3110   -0.9050    1.4030 C   0  0  0  0  0  0  0  0  0  0  0  0
    5.1630   -0.1970    2.2730 C   0  0  0  0  0  3  0  0  0  0  0  0
    4.7090    0.2710    3.5050 C   0  0  0  0  0  3  0  0  0  0  0  0
    2.5390   -0.6690    3.0490 C   0  0  0  0  0  3  0  0  0  0  0  0
    3.3960    0.0390    3.8930 C   0  0  0  0  0  3  0  0  0  0  0  0
    4.8790   -1.3670    0.0870 C   0  0  0  0  0  1  0  0  0  0  0  0
   -2.1180   -1.4920    0.0520 N   0  0  0  0  0  4  0  0  0  0  0  0
   -3.5930   -1.8080    0.1020 C   0  0  0  0  0  2  0  0  0  0  0  0
   -1.7350   -0.3390   -0.8730 C   0  0  0  0  0  2  0  0  0  0  0  0
   -4.2720   -1.4020   -1.1940 C   0  0  0  0  0  2  0  0  0  0  0  0
   -2.8550    0.7040   -0.8800 C   0  0  2  0  0  3  0  0  0  0  0  0
   -4.1430    0.0990   -1.4680 C   0  0  0  0  0  2  0  0  0  0  0  0
   -1.8380   -1.1940    1.0000 H   0  0  0  0  0  0  0  0  0  0  0  0
   -2.4550    2.0240   -1.5700 C   0  0  0  0  0  2  0  0  0  0  0  0
   -2.0620    1.9030   -2.9540 N   0  0  0  0  0  0  0  0  0  0  0  0
   -2.6150    2.4990   -4.0410 C   0  0  0  0  0  3  0  0  0  0  0  0
   -1.0200    1.1240   -3.3000 N   0  0  0  0  0  0  0  0  0  0  0  0
   -1.9610    2.1270   -5.1160 N   0  0  0  0  0  0  0  0  0  0  0  0
   -0.9840    1.3120   -4.6240 C   0  0  0  0  0  3  0  0  0  0  0  0
  1 14  1  0  0  0  0
  1  2  1  0  0  0  0
  2  5  2  0  0  0  0
  3  5  1  0  0  0  0
  3  7  1  0  0  0  0
  4  3  2  0  0  0  0
  6  4  1  0  0  0  0
  6  2  1  0  0  0  0
  7 11  1  0  0  0  0
  8  7  2  0  0  0  0
  8  9  1  0  0  0  0
  9 10  2  0  0  0  0
 10 12  1  0  0  0  0
 11 12  2  0  0  0  0
 13  8  1  0  0  0  0
 14 15  1  0  0  0  0
 14 20  1  0  0  0  0
 16 14  1  0  0  0  0
 17 15  1  0  0  0  0
 18 21  1  6  0  0  0
 18 16  1  0  0  0  0
 19 17  1  0  0  0  0
 19 18  1  0  0  0  0
 22 21  1  0  0  0  0
 23 22  1  0  0  0  0
 24 22  1  0  0  0  0
 25 26  1  0  0  0  0
 25 23  2  0  0  0  0
 26 24  2  0  0  0  0
M  END
>  <REMARK>
 SMILES Cc1ccccc1-c1noc(C[NH+]2CCCC(Cn3cncn3)C2)n1
 SMILES IDX 12 1 11 2 8 3 9 4 25 5 10 6 7 7 2 8 3 9 4 10 6 11 5 12 1 13
 SMILES IDX 13 14 14 15 24 16 15 17 17 18 16 19 18 21 19 22 20 23 23 24
 SMILES IDX 21 25 22 26
 H PARENT 13 20

>  <TORSDO>
F 5

$$$$
