/home/pchatterjee/Documents/git/vs_workflow/DiffDock/diffdock_run/pdbqt_scrubbed/Z1139476087.pdbqt
 OpenBabel10272516423D

 26 29  0  0  1  0  0  0  0  0999 V2000
    0.9620   -0.0960   -0.3150 C   0  0  1  0  0  3  0  0  0  0  0  0
    1.5160   -1.1540   -1.2870 C   0  0  0  0  0  2  0  0  0  0  0  0
    2.8310   -0.7020   -1.9030 C   0  0  0  0  0  2  0  0  0  0  0  0
    2.6430    0.5630   -2.7360 C   0  0  0  0  0  2  0  0  0  0  0  0
    1.4050    1.3720   -2.3630 C   0  0  0  0  0  2  0  0  0  0  0  0
    1.1920    1.3220   -0.8770 N   0  0  0  0  0  4  0  0  0  0  0  0
    2.0890    1.6130   -0.4520 H   0  0  0  0  0  0  0  0  0  0  0  0
   -0.4480   -0.4560    0.2050 C   0  0  0  0  0  2  0  0  0  0  0  0
   -1.4850   -0.6640   -0.7870 N   0  0  0  0  0  0  0  0  0  0  0  0
   -2.6240   -0.2610   -2.5300 C   0  0  0  0  0  0  0  0  0  0  0  0
   -3.2110   -1.3860   -1.9240 C   0  0  0  0  0  3  0  0  0  0  0  0
   -1.5820    0.1970   -1.8210 N   0  0  0  0  0  0  0  0  0  0  0  0
   -2.4600   -1.6280   -0.7940 C   0  0  0  0  0  0  0  0  0  0  0  0
   -3.0350    0.4060   -3.7890 C   0  0  0  0  0  1  0  0  0  0  0  0
   -2.6150   -2.6810    0.2440 C   0  0  0  0  0  1  0  0  0  0  0  0
    0.2680    2.4180   -0.3840 C   0  0  0  0  0  2  0  0  0  0  0  0
    0.5110    2.6900    1.0620 C   0  0  0  0  0  0  0  0  0  0  0  0
    1.5860    2.3140    1.7330 N   0  0  0  0  0  0  0  0  0  0  0  0
   -0.3840    3.3500    1.8680 N   0  0  0  0  0  0  0  0  0  0  0  0
    1.3750    2.7520    3.0230 C   0  0  0  0  0  0  0  0  0  0  0  0
    0.1500    3.3910    3.1230 C   0  0  0  0  0  0  0  0  0  0  0  0
    2.1520    2.6530    4.1830 C   0  0  0  0  0  3  0  0  0  0  0  0
   -0.4210    3.9320    4.2070 N   0  0  0  0  0  0  0  0  0  0  0  0
    1.6140    3.2030    5.3490 C   0  0  0  0  0  3  0  0  0  0  0  0
    0.3610    3.8130    5.3070 C   0  0  0  0  0  3  0  0  0  0  0  0
   -1.2840    3.7470    1.6190 H   0  0  0  0  0  0  0  0  0  0  0  0
  1  8  1  6  0  0  0
  2  1  1  0  0  0  0
  3  2  1  0  0  0  0
  4  5  1  0  0  0  0
  4  3  1  0  0  0  0
  5  6  1  0  0  0  0
  6  7  1  0  0  0  0
  6 16  1  0  0  0  0
  6  1  1  0  0  0  0
  9  8  1  0  0  0  0
 10 11  1  0  0  0  0
 10 12  2  0  0  0  0
 11 13  2  0  0  0  0
 12  9  1  0  0  0  0
 13  9  1  0  0  0  0
 13 15  1  0  0  0  0
 14 10  1  0  0  0  0
 16 17  1  0  0  0  0
 17 18  2  0  0  0  0
 17 19  1  0  0  0  0
 18 20  1  0  0  0  0
 19 21  1  0  0  0  0
 20 21  2  0  0  0  0
 20 22  1  0  0  0  0
 21 23  1  0  0  0  0
 22 24  2  0  0  0  0
 23 25  2  0  0  0  0
 25 24  1  0  0  0  0
 26 19  1  0  0  0  0
M  END
>  <REMARK>
 SMILES Cc1cc(C)n(CC2CCCC[NH+]2Cc2nc3cccnc3[nH]2)n1
 SMILES IDX 8 1 9 2 10 3 11 4 12 5 13 6 7 8 6 9 2 10 3 11 24 12 4 13
 SMILES IDX 1 14 5 15 14 16 15 17 16 18 23 19 17 20 22 21 18 22 21 23
 SMILES IDX 19 24 20 25
 H PARENT 13 7 23 26

>  <TORSDO>
F 4

$$$$
