/home/pchatterjee/Documents/git/vs_workflow/DiffDock/diffdock_run/pdbqt_scrubbed/Z1159125105.pdbqt
 OpenBabel10272516423D

 30 33  0  0  0  0  0  0  0  0999 V2000
   -2.7110    2.7990    1.4880 C   0  0  0  0  0  0  0  0  0  0  0  0
   -3.4300    3.9640    1.4260 C   0  0  0  0  0  3  0  0  0  0  0  0
   -3.1850    4.7310    0.3190 C   0  0  0  0  0  3  0  0  0  0  0  0
   -2.3110    4.3860   -0.6460 N   0  0  0  0  0  0  0  0  0  0  0  0
   -1.6500    3.2250   -0.4990 C   0  0  0  0  0  0  0  0  0  0  0  0
   -1.8260    2.4170    0.5500 N   0  0  0  0  0  0  0  0  0  0  0  0
   -2.9350    1.9960    2.6060 O   0  0  0  0  0  0  0  0  0  0  0  0
   -2.2430    0.8100    2.6390 C   0  0  0  0  0  0  0  0  0  0  0  0
   -0.8530   -1.5810    2.7510 C   0  0  0  0  0  0  0  0  0  0  0  0
   -2.0390   -1.5130    2.0250 C   0  0  0  0  0  3  0  0  0  0  0  0
   -0.3630   -0.4720    3.4360 C   0  0  0  0  0  3  0  0  0  0  0  0
   -2.7450   -0.3120    1.9740 C   0  0  0  0  0  3  0  0  0  0  0  0
   -1.0660    0.7320    3.3870 C   0  0  0  0  0  3  0  0  0  0  0  0
   -0.1710   -2.7330    2.7910 F   0  0  0  0  0  0  0  0  0  0  0  0
   -0.7660    2.9100   -1.5270 N   0  0  0  0  0  0  0  0  0  0  0  0
   -0.7860    3.6460   -2.2160 H   0  0  0  0  0  0  0  0  0  0  0  0
    0.1060    1.8420   -1.7580 C   0  0  0  0  0  0  0  0  0  0  0  0
    0.2900    0.7770   -0.8760 C   0  0  0  0  0  3  0  0  0  0  0  0
    0.8300    1.8070   -2.9550 C   0  0  0  0  0  3  0  0  0  0  0  0
    1.1710   -0.2770   -1.1680 C   0  0  0  0  0  3  0  0  0  0  0  0
    1.7110    0.7550   -3.2440 C   0  0  0  0  0  3  0  0  0  0  0  0
    1.9220   -0.2940   -2.3420 C   0  0  0  0  0  0  0  0  0  0  0  0
    2.7630   -1.3380   -2.7260 N   0  0  0  0  0  0  0  0  0  0  0  0
    3.4770   -1.0260   -3.3780 H   0  0  0  0  0  0  0  0  0  0  0  0
    3.2010   -2.3790   -1.7860 C   0  0  0  0  0  3  0  0  0  0  0  0
    2.1740   -3.5210   -1.7720 C   0  0  0  0  0  2  0  0  0  0  0  0
    4.5940   -2.8950   -2.1890 C   0  0  0  0  0  2  0  0  0  0  0  0
    2.8410   -4.8320   -1.3950 C   0  0  0  0  0  2  0  0  0  0  0  0
    4.4790   -4.1570   -3.0270 C   0  0  0  0  0  2  0  0  0  0  0  0
    3.8640   -5.2270   -2.3080 O   0  0  0  0  0  0  0  0  0  0  0  0
  1  7  1  0  0  0  0
  2  1  1  0  0  0  0
  3  2  2  0  0  0  0
  4  5  2  0  0  0  0
  4  3  1  0  0  0  0
  5  6  1  0  0  0  0
  6  1  2  0  0  0  0
  7  8  1  0  0  0  0
  8 13  1  0  0  0  0
  9 14  1  0  0  0  0
  9 11  1  0  0  0  0
 10  9  2  0  0  0  0
 12 10  1  0  0  0  0
 12  8  2  0  0  0  0
 13 11  2  0  0  0  0
 15  5  1  0  0  0  0
 16 15  1  0  0  0  0
 17 15  1  0  0  0  0
 17 18  1  0  0  0  0
 19 17  2  0  0  0  0
 20 18  2  0  0  0  0
 21 19  1  0  0  0  0
 21 22  2  0  0  0  0
 22 20  1  0  0  0  0
 23 22  1  0  0  0  0
 23 25  1  0  0  0  0
 24 23  1  0  0  0  0
 25 26  1  0  0  0  0
 26 28  1  0  0  0  0
 27 25  1  0  0  0  0
 29 30  1  0  0  0  0
 29 27  1  0  0  0  0
 30 28  1  0  0  0  0
M  END
>  <REMARK>
 SMILES Fc1ccc(Oc2ccnc(Nc3ccc(NC4CCOCC4)cc3)n2)cc1
 SMILES IDX 7 1 8 2 9 3 10 4 11 5 26 6 6 7 5 8 2 9 3 10 28 11 4 12 27 13
 SMILES IDX 1 14 12 15 13 17 14 18 25 19 15 20 24 21 16 22 17 23 18 25
 SMILES IDX 19 26 23 27 20 28 22 29 21 30
 H PARENT 12 16 17 24

>  <TORSDO>
F 6

$$$$
