/home/pchatterjee/Documents/git/vs_workflow/DiffDock/diffdock_run/pdbqt_scrubbed/Z1173513799.pdbqt
 OpenBabel10272516423D

 27 30  0  0  1  0  0  0  0  0999 V2000
   -0.5520   -0.2300    1.9880 C   0  0  0  0  0  2  0  0  0  0  0  0
    0.1570   -1.5350    1.6710 N   0  0  0  0  0  4  0  0  0  0  0  0
    1.4760   -1.6110    2.3930 C   0  0  0  0  0  1  0  0  0  0  0  0
    0.4160   -1.5390    0.6800 H   0  0  0  0  0  0  0  0  0  0  0  0
   -0.6750   -2.7780    1.9240 C   0  0  0  0  0  2  0  0  0  0  0  0
   -1.7790   -2.9870    0.9380 C   0  0  0  0  0  0  0  0  0  0  0  0
   -3.1210   -2.7560    1.2630 C   0  0  0  0  0  3  0  0  0  0  0  0
   -1.5030   -3.4220   -0.3540 C   0  0  0  0  0  3  0  0  0  0  0  0
   -4.1110   -2.9530    0.3010 C   0  0  0  0  0  3  0  0  0  0  0  0
   -2.4420   -3.6060   -1.3040 N   0  0  0  0  0  0  0  0  0  0  0  0
   -3.7270   -3.3800   -0.9590 C   0  0  0  0  0  3  0  0  0  0  0  0
   -1.2830    0.4190    0.7920 C   0  0  1  0  0  3  0  0  0  0  0  0
   -1.9640    1.7290    1.2690 C   0  0  0  0  0  2  0  0  0  0  0  0
   -0.3480    0.7150   -0.3870 C   0  0  0  0  0  2  0  0  0  0  0  0
   -1.4530    2.9810    0.5520 C   0  0  0  0  0  2  0  0  0  0  0  0
    0.6350    1.7050    0.0660 N   0  0  0  0  0  0  0  0  0  0  0  0
    0.0740    3.0210    0.4330 C   0  0  0  0  0  2  0  0  0  0  0  0
    1.8040    1.7470   -0.7080 C   0  0  0  0  0  0  0  0  0  0  0  0
    1.9690    0.8660   -1.7300 N   0  0  0  0  0  0  0  0  0  0  0  0
    2.8910    2.5840   -0.4710 C   0  0  0  0  0  0  0  0  0  0  0  0
    3.0940    0.9070   -2.4770 C   0  0  0  0  0  3  0  0  0  0  0  0
    3.2140    3.5100    0.4850 N   0  0  0  0  0  0  0  0  0  0  0  0
    4.0060    2.5490   -1.2960 C   0  0  0  0  0  0  0  0  0  0  0  0
    4.1390    1.7140   -2.3350 N   0  0  0  0  0  0  0  0  0  0  0  0
    4.4510    4.0120    0.1890 C   0  0  0  0  0  3  0  0  0  0  0  0
    4.9570    3.4460   -0.8840 N   0  0  0  0  0  0  0  0  0  0  0  0
    2.6550    3.7690    1.2860 H   0  0  0  0  0  0  0  0  0  0  0  0
  2  5  1  0  0  0  0
  2  1  1  0  0  0  0
  2  3  1  0  0  0  0
  4  2  1  0  0  0  0
  6  7  1  0  0  0  0
  6  5  1  0  0  0  0
  8  6  2  0  0  0  0
  9  7  2  0  0  0  0
 10 11  2  0  0  0  0
 10  8  1  0  0  0  0
 11  9  1  0  0  0  0
 12 13  1  0  0  0  0
 12  1  1  1  0  0  0
 14 16  1  0  0  0  0
 14 12  1  0  0  0  0
 15 13  1  0  0  0  0
 16 17  1  0  0  0  0
 17 15  1  0  0  0  0
 18 20  2  0  0  0  0
 18 16  1  0  0  0  0
 19 18  1  0  0  0  0
 20 22  1  0  0  0  0
 21 24  1  0  0  0  0
 21 19  2  0  0  0  0
 22 27  1  0  0  0  0
 23 26  1  0  0  0  0
 23 20  1  0  0  0  0
 24 23  2  0  0  0  0
 25 22  1  0  0  0  0
 26 25  2  0  0  0  0
M  END
>  <REMARK>
 SMILES C[NH+](Cc1cccnc1)CC1CCCN(c2ncnc3nc[nH]c23)C1
 SMILES IDX 10 1 2 2 1 3 3 5 4 6 5 7 9 8 6 9 8 10 7 11 11 12 12 13 25 14
 SMILES IDX 13 15 15 16 14 17 16 18 17 19 24 20 18 21 23 22 20 23 19 24
 SMILES IDX 22 25 21 26
 H PARENT 2 4 23 27

>  <TORSDO>
F 5

$$$$
