/home/pchatterjee/Documents/git/vs_workflow/DiffDock/diffdock_run/pdbqt_scrubbed/Z1193314231.pdbqt
 OpenBabel10272516423D

 28 32  0  0  1  0  0  0  0  0999 V2000
   -1.8740   -0.5430   -0.4330 C   0  0  2  0  0  3  0  0  0  0  0  0
   -2.3940    0.7390    0.2430 C   0  0  0  0  0  2  0  0  0  0  0  0
   -1.5380    1.1550    1.4390 C   0  0  0  0  0  2  0  0  0  0  0  0
   -1.3350    0.0100    2.4350 C   0  0  0  0  0  2  0  0  0  0  0  0
   -0.8610   -1.1710    1.7270 N   0  0  0  0  0  0  0  0  0  0  0  0
   -1.6980   -1.6520    0.6190 C   0  0  0  0  0  2  0  0  0  0  0  0
   -0.6210   -0.2740   -1.2280 C   0  0  0  0  0  0  0  0  0  0  0  0
    0.7900    0.3660   -2.7230 C   0  0  0  0  0  0  0  0  0  0  0  0
    1.5420   -0.2420   -1.7410 C   0  0  0  0  0  3  0  0  0  0  0  0
   -0.5510    0.3400   -2.3930 N   0  0  0  0  0  0  0  0  0  0  0  0
    0.6400   -0.6320   -0.7940 N   0  0  0  0  0  0  0  0  0  0  0  0
    0.8380   -1.1410    0.0670 H   0  0  0  0  0  0  0  0  0  0  0  0
    1.2990    0.9750   -3.9400 C   0  0  0  0  0  0  0  0  0  0  0  0
    2.2370    2.1740   -6.2980 C   0  0  0  0  0  3  0  0  0  0  0  0
    1.0330    2.5980   -5.7330 C   0  0  0  0  0  3  0  0  0  0  0  0
    2.9720    1.1550   -5.6950 C   0  0  0  0  0  3  0  0  0  0  0  0
    0.5660    2.0000   -4.5630 C   0  0  0  0  0  3  0  0  0  0  0  0
    2.5080    0.5570   -4.5190 C   0  0  0  0  0  3  0  0  0  0  0  0
    0.0170   -2.0770    2.3090 C   0  0  0  0  0  0  0  0  0  0  0  0
    0.7680   -2.8210    1.4470 N   0  0  0  0  0  0  0  0  0  0  0  0
    0.2910   -2.2250    3.6880 C   0  0  0  0  0  0  0  0  0  0  0  0
    1.7420   -3.6170    1.9320 C   0  0  0  0  0  3  0  0  0  0  0  0
   -0.2360   -1.7370    4.9220 C   0  0  0  0  0  3  0  0  0  0  0  0
    1.3420   -3.0660    4.0350 C   0  0  0  0  0  0  0  0  0  0  0  0
    2.1130   -3.7840    3.2100 N   0  0  0  0  0  0  0  0  0  0  0  0
    0.5280   -2.2560    5.9560 C   0  0  0  0  0  3  0  0  0  0  0  0
    1.4860   -3.0530    5.3940 N   0  0  0  0  0  0  0  0  0  0  0  0
    2.2030   -3.5720    5.8900 H   0  0  0  0  0  0  0  0  0  0  0  0
  1  7  1  1  0  0  0
  1  2  1  0  0  0  0
  1  6  1  0  0  0  0
  2  3  1  0  0  0  0
  3  4  1  0  0  0  0
  5 19  1  0  0  0  0
  5  4  1  0  0  0  0
  6  5  1  0  0  0  0
  7 11  1  0  0  0  0
  8 10  1  0  0  0  0
  8  9  2  0  0  0  0
  9 11  1  0  0  0  0
 10  7  2  0  0  0  0
 11 12  1  0  0  0  0
 13  8  1  0  0  0  0
 14 15  2  0  0  0  0
 14 16  1  0  0  0  0
 15 17  1  0  0  0  0
 16 18  2  0  0  0  0
 17 13  2  0  0  0  0
 18 13  1  0  0  0  0
 19 21  1  0  0  0  0
 20 22  1  0  0  0  0
 20 19  2  0  0  0  0
 21 24  2  0  0  0  0
 21 23  1  0  0  0  0
 22 25  2  0  0  0  0
 23 26  2  0  0  0  0
 24 27  1  0  0  0  0
 25 24  1  0  0  0  0
 27 28  1  0  0  0  0
 27 26  1  0  0  0  0
M  END
>  <REMARK>
 SMILES c1ccc(-c2c[nH]c(C3CCCN(c4ncnc5[nH]ccc45)C3)n2)cc1
 SMILES IDX 9 1 10 2 11 3 12 4 13 5 23 6 8 7 5 8 6 9 24 10 7 11 4 13
 SMILES IDX 1 14 2 15 26 16 3 17 25 18 14 19 15 20 22 21 16 22 21 23
 SMILES IDX 18 24 17 25 20 26 19 27
 H PARENT 7 12 19 28

>  <TORSDO>
F 3

$$$$
