/home/pchatterjee/Documents/git/vs_workflow/DiffDock/diffdock_run/pdbqt_scrubbed/Z1192499493.pdbqt
 OpenBabel10272516423D

 24 26  0  0  1  0  0  0  0  0999 V2000
    0.6510    0.2140    1.6810 C   0  0  0  0  0  2  0  0  0  0  0  0
   -0.5220    0.9510    1.0230 C   0  0  0  0  0  0  0  0  0  0  0  0
   -1.0340    0.2530   -0.0550 N   0  0  0  0  0  0  0  0  0  0  0  0
   -0.9010    2.0390    1.4470 O   0  0  0  0  0  0  0  0  0  0  0  0
   -0.5630   -0.6350   -0.2240 H   0  0  0  0  0  0  0  0  0  0  0  0
   -2.0940    0.6090   -0.9040 C   0  0  0  0  0  0  0  0  0  0  0  0
   -2.8240    1.7950   -0.7830 C   0  0  0  0  0  3  0  0  0  0  0  0
   -2.4220   -0.2870   -1.9250 C   0  0  0  0  0  3  0  0  0  0  0  0
   -3.8710    2.0830   -1.6700 C   0  0  0  0  0  3  0  0  0  0  0  0
   -3.4700    0.0130   -2.8040 C   0  0  0  0  0  0  0  0  0  0  0  0
   -4.2050    1.1950   -2.6900 C   0  0  0  0  0  0  0  0  0  0  0  0
   -3.8400   -0.9130   -3.8880 C   0  0  0  0  0  0  0  0  0  0  0  0
   -5.2610    1.5170   -3.5610 N   0  0  0  0  0  0  0  0  0  0  0  0
   -4.8800   -0.5070   -4.6830 N   0  0  0  0  0  0  0  0  0  0  0  0
   -5.5400    0.6720   -4.4930 C   0  0  0  0  0  3  0  0  0  0  0  0
   -3.2590   -1.9770   -4.0670 O   0  0  0  0  0  0  0  0  0  0  0  0
   -5.1430   -1.1330   -5.4310 H   0  0  0  0  0  0  0  0  0  0  0  0
    0.8060   -1.0970    1.1480 O   0  0  0  0  0  0  0  0  0  0  0  0
    1.6320   -1.9680    1.9250 C   0  0  0  0  0  2  0  0  0  0  0  0
    3.1370   -1.6580    1.9200 C   0  0  2  0  0  3  0  0  0  0  0  0
    3.6190   -0.6460    2.9480 C   0  0  0  0  0  2  0  0  0  0  0  0
    3.5850   -1.1900    0.6360 O   0  0  0  0  0  0  0  0  0  0  0  0
    4.9030   -0.1650    2.3170 C   0  0  0  0  0  2  0  0  0  0  0  0
    4.5500   -0.1500    0.8440 C   0  0  0  0  0  2  0  0  0  0  0  0
  2  4  2  0  0  0  0
  2  1  1  0  0  0  0
  3  2  1  0  0  0  0
  5  3  1  0  0  0  0
  6  7  1  0  0  0  0
  6  3  1  0  0  0  0
  8  6  2  0  0  0  0
  9  7  2  0  0  0  0
 10 11  2  0  0  0  0
 10  8  1  0  0  0  0
 11  9  1  0  0  0  0
 12 10  1  0  0  0  0
 13 11  1  0  0  0  0
 14 15  1  0  0  0  0
 14 12  1  0  0  0  0
 15 13  2  0  0  0  0
 16 12  2  0  0  0  0
 17 14  1  0  0  0  0
 18  1  1  0  0  0  0
 18 19  1  0  0  0  0
 20 19  1  6  0  0  0
 20 21  1  0  0  0  0
 22 24  1  0  0  0  0
 22 20  1  0  0  0  0
 23 21  1  0  0  0  0
 24 23  1  0  0  0  0
M  END
>  <REMARK>
 SMILES O=C(COCC1CCCO1)Nc1ccc2nc[nH]c(=O)c2c1
 SMILES IDX 3 1 2 2 11 3 1 4 12 6 13 7 22 8 14 9 21 10 15 11 19 12 16 13
 SMILES IDX 18 14 17 15 20 16 4 18 5 19 6 20 7 21 10 22 8 23 9 24
 H PARENT 11 5 18 17

>  <TORSDO>
F 5

$$$$
