/home/pchatterjee/Documents/git/vs_workflow/DiffDock/diffdock_run/pdbqt_scrubbed/Z1198960055.pdbqt
 OpenBabel10272516423D

 26 29  0  0  0  0  0  0  0  0999 V2000
    0.6280    2.7120   -1.4670 C   0  0  0  0  0  0  0  0  0  0  0  0
    0.9300    3.9230   -2.1130 C   0  0  0  0  0  3  0  0  0  0  0  0
    2.1070    4.6170   -1.8280 C   0  0  0  0  0  3  0  0  0  0  0  0
    3.0040    4.1070   -0.8950 C   0  0  0  0  0  3  0  0  0  0  0  0
    2.7200    2.9100   -0.2380 C   0  0  0  0  0  3  0  0  0  0  0  0
    1.5280    2.2220   -0.5020 C   0  0  0  0  0  0  0  0  0  0  0  0
   -0.6640    2.0400   -1.8440 C   0  0  0  0  0  0  0  0  0  0  0  0
   -0.8150    0.7330   -1.4250 N   0  0  0  0  0  0  0  0  0  0  0  0
   -0.0330    0.3460   -0.9040 H   0  0  0  0  0  0  0  0  0  0  0  0
   -1.4830    2.6800   -2.4960 O   0  0  0  0  0  0  0  0  0  0  0  0
   -1.9160   -0.1250   -1.6100 C   0  0  0  0  0  0  0  0  0  0  0  0
   -4.4220   -4.0640   -1.2510 C   0  0  0  0  0  0  0  0  0  0  0  0
   -3.0180   -3.7080   -0.7470 C   0  0  0  0  0  2  0  0  0  0  0  0
   -4.9250   -2.9480   -1.9100 N   0  0  0  0  0  0  0  0  0  0  0  0
   -2.8640   -2.2930   -1.2170 C   0  0  0  0  0  0  0  0  0  0  0  0
   -4.0160   -1.9040   -1.8930 C   0  0  0  0  0  0  0  0  0  0  0  0
   -1.8040   -1.4160   -1.0660 C   0  0  0  0  0  3  0  0  0  0  0  0
   -4.1610   -0.6490   -2.4380 C   0  0  0  0  0  3  0  0  0  0  0  0
   -3.0930    0.2460   -2.2910 C   0  0  0  0  0  3  0  0  0  0  0  0
   -4.9990   -5.1280   -1.1040 O   0  0  0  0  0  0  0  0  0  0  0  0
   -5.8400   -2.9280   -2.3340 H   0  0  0  0  0  0  0  0  0  0  0  0
    1.2640    1.0330    0.1320 O   0  0  0  0  0  0  0  0  0  0  0  0
    1.3230    1.1300    1.5610 C   0  0  0  0  0  2  0  0  0  0  0  0
    0.4730    0.0310    2.1240 C   0  0  0  0  0  3  0  0  0  0  0  0
    0.8000   -0.5810    3.4620 C   0  0  0  0  0  2  0  0  0  0  0  0
    0.9950   -1.3810    2.2020 C   0  0  0  0  0  2  0  0  0  0  0  0
  1  6  1  0  0  0  0
  2  3  1  0  0  0  0
  2  1  2  0  0  0  0
  3  4  2  0  0  0  0
  4  5  1  0  0  0  0
  6  5  2  0  0  0  0
  6 22  1  0  0  0  0
  7  1  1  0  0  0  0
  7  8  1  0  0  0  0
  8  9  1  0  0  0  0
 10  7  2  0  0  0  0
 11  8  1  0  0  0  0
 11 17  1  0  0  0  0
 12 20  2  0  0  0  0
 12 13  1  0  0  0  0
 14 16  1  0  0  0  0
 14 12  1  0  0  0  0
 15 17  2  0  0  0  0
 15 13  1  0  0  0  0
 16 15  1  0  0  0  0
 18 19  1  0  0  0  0
 18 16  2  0  0  0  0
 19 11  2  0  0  0  0
 21 14  1  0  0  0  0
 22 23  1  0  0  0  0
 23 24  1  0  0  0  0
 24 26  1  0  0  0  0
 24 25  1  0  0  0  0
 26 25  1  0  0  0  0
M  END
>  <REMARK>
 SMILES O=C1Cc2cc(NC(=O)c3ccccc3OCC3CC3)ccc2N1
 SMILES IDX 10 1 11 2 12 3 13 4 14 5 15 6 8 7 7 8 9 10 6 11 2 12 3 13
 SMILES IDX 24 14 4 15 23 16 5 17 22 18 21 19 1 20 16 22 17 23 18 24
 SMILES IDX 19 25 20 26
 H PARENT 7 9 24 21

>  <TORSDO>
F 5

$$$$
