/home/pchatterjee/Documents/git/vs_workflow/DiffDock/diffdock_run/pdbqt_scrubbed/Z1212723352.pdbqt
 OpenBabel10272516423D

 25 28  0  0  0  0  0  0  0  0999 V2000
   -1.8280   -1.3380   -0.7780 C   0  0  0  0  0  2  0  0  0  0  0  0
   -0.8800   -0.5160    0.0330 C   0  0  0  0  0  0  0  0  0  0  0  0
    0.3590    0.9090    0.9580 C   0  0  0  0  0  0  0  0  0  0  0  0
    0.5170   -0.1920    1.7130 N   0  0  0  0  0  0  0  0  0  0  0  0
   -0.5240    0.7430   -0.0880 N   0  0  0  0  0  0  0  0  0  0  0  0
   -0.3020   -1.1360    1.1020 O   0  0  0  0  0  0  0  0  0  0  0  0
    1.0380    2.1760    1.2100 C   0  0  0  0  0  0  0  0  0  0  0  0
    2.3320    4.6240    1.6760 C   0  0  0  0  0  0  0  0  0  0  0  0
    2.5620    3.5460    2.5270 C   0  0  0  0  0  3  0  0  0  0  0  0
    1.4640    4.4950    0.5950 C   0  0  0  0  0  3  0  0  0  0  0  0
    1.9180    2.3260    2.2950 C   0  0  0  0  0  3  0  0  0  0  0  0
    0.8200    3.2750    0.3630 C   0  0  0  0  0  3  0  0  0  0  0  0
    3.1240    6.1240    1.9630 Cl  0  0  0  0  0  0  0  0  0  0  0  0
   -1.4250   -2.7180   -1.0880 N   0  0  0  0  0  0  0  0  0  0  0  0
   -1.2350   -3.2670   -0.2580 H   0  0  0  0  0  0  0  0  0  0  0  0
   -0.4090   -2.8360   -2.0350 C   0  0  0  0  0  0  0  0  0  0  0  0
   -0.0870   -1.8120   -2.8520 N   0  0  0  0  0  0  0  0  0  0  0  0
    0.3150   -4.0030   -2.2070 C   0  0  0  0  0  0  0  0  0  0  0  0
    0.9130   -1.9740   -3.7460 C   0  0  0  0  0  3  0  0  0  0  0  0
    0.2830   -5.2480   -1.6400 N   0  0  0  0  0  0  0  0  0  0  0  0
    1.3230   -4.0800   -3.1510 C   0  0  0  0  0  0  0  0  0  0  0  0
    1.6650   -3.0590   -3.9540 N   0  0  0  0  0  0  0  0  0  0  0  0
    1.2580   -6.0010   -2.2350 C   0  0  0  0  0  3  0  0  0  0  0  0
    1.9070   -5.3190   -3.1520 N   0  0  0  0  0  0  0  0  0  0  0  0
   -0.3600   -5.5640   -0.9290 H   0  0  0  0  0  0  0  0  0  0  0  0
  1  2  1  0  0  0  0
  2  6  1  0  0  0  0
  3  7  1  0  0  0  0
  3  4  2  0  0  0  0
  5  2  2  0  0  0  0
  5  3  1  0  0  0  0
  6  4  1  0  0  0  0
  7 11  1  0  0  0  0
  8 13  1  0  0  0  0
  8  9  1  0  0  0  0
 10  8  2  0  0  0  0
 11  9  2  0  0  0  0
 12 10  1  0  0  0  0
 12  7  2  0  0  0  0
 14  1  1  0  0  0  0
 14 15  1  0  0  0  0
 16 14  1  0  0  0  0
 17 16  1  0  0  0  0
 18 16  2  0  0  0  0
 18 20  1  0  0  0  0
 19 17  2  0  0  0  0
 20 25  1  0  0  0  0
 21 18  1  0  0  0  0
 22 19  1  0  0  0  0
 22 21  2  0  0  0  0
 23 20  1  0  0  0  0
 24 21  1  0  0  0  0
 24 23  2  0  0  0  0
M  END
>  <REMARK>
 SMILES Clc1ccc(-c2noc(CNc3ncnc4nc[nH]c34)n2)cc1
 SMILES IDX 10 1 9 2 6 3 7 4 21 5 8 6 5 7 2 8 3 9 23 10 4 11 22 12 1 13
 SMILES IDX 11 14 12 16 13 17 20 18 14 19 19 20 16 21 15 22 18 23 17 24
 H PARENT 11 15 19 25

>  <TORSDO>
F 4

$$$$
