/home/pchatterjee/Documents/git/vs_workflow/DiffDock/diffdock_run/pdbqt_scrubbed/Z1212176114.pdbqt
 OpenBabel10272516423D

 28 31  0  0  0  0  0  0  0  0999 V2000
    3.0370    1.2840   -1.7910 O   0  0  0  0  0  0  0  0  0  0  0  0
    1.9490    0.7130   -1.8040 C   0  0  0  0  0  0  0  0  0  0  0  0
    1.4360    0.0990   -0.6870 N   0  0  0  0  0  0  0  0  0  0  0  0
    0.6110   -0.4810   -0.8050 H   0  0  0  0  0  0  0  0  0  0  0  0
    1.1250    0.6790   -3.0600 C   0  0  0  0  0  0  0  0  0  0  0  0
    1.6000    1.4600   -4.1310 C   0  0  0  0  0  3  0  0  0  0  0  0
   -0.0630   -0.0650   -3.2240 C   0  0  0  0  0  0  0  0  0  0  0  0
    0.9140    1.5100   -5.3430 C   0  0  0  0  0  3  0  0  0  0  0  0
   -0.7410   -0.0070   -4.4510 C   0  0  0  0  0  3  0  0  0  0  0  0
   -0.2560    0.7780   -5.5010 C   0  0  0  0  0  3  0  0  0  0  0  0
   -0.4850   -0.8340   -2.1690 O   0  0  0  0  0  0  0  0  0  0  0  0
   -1.7630   -1.4620   -2.2550 C   0  0  0  0  0  2  0  0  0  0  0  0
   -2.0170   -2.1500   -0.9480 C   0  0  0  0  0  3  0  0  0  0  0  0
   -3.4240   -2.3530   -0.4490 C   0  0  0  0  0  2  0  0  0  0  0  0
   -2.5170   -1.3730    0.2430 C   0  0  0  0  0  2  0  0  0  0  0  0
    2.2190   -0.0650    0.5130 C   0  0  0  0  0  2  0  0  0  0  0  0
    1.3320   -0.4060    1.6810 C   0  0  0  0  0  0  0  0  0  0  0  0
    1.3460   -1.6870    2.2430 C   0  0  0  0  0  3  0  0  0  0  0  0
    0.4540    0.5620    2.2020 C   0  0  0  0  0  3  0  0  0  0  0  0
    0.5040   -1.9940    3.3100 C   0  0  0  0  0  3  0  0  0  0  0  0
   -0.3990    0.2670    3.2760 C   0  0  0  0  0  0  0  0  0  0  0  0
   -0.3610   -1.0240    3.8200 C   0  0  0  0  0  3  0  0  0  0  0  0
   -1.3290    1.2510    3.8310 C   0  0  0  0  0  0  0  0  0  0  0  0
   -2.3080    1.0220    4.6890 N   0  0  0  0  0  0  0  0  0  0  0  0
   -1.3240    2.5970    3.5560 N   0  0  0  0  0  0  0  0  0  0  0  0
   -2.9440    2.2100    4.9630 N   0  0  0  0  0  0  0  0  0  0  0  0
   -2.3380    3.1470    4.2770 C   0  0  0  0  0  3  0  0  0  0  0  0
   -0.6830    3.0850    2.9510 H   0  0  0  0  0  0  0  0  0  0  0  0
  2  1  2  0  0  0  0
  2  3  1  0  0  0  0
  3 16  1  0  0  0  0
  4  3  1  0  0  0  0
  5  2  1  0  0  0  0
  6  5  2  0  0  0  0
  7  5  1  0  0  0  0
  7 11  1  0  0  0  0
  8  6  1  0  0  0  0
  9  7  2  0  0  0  0
 10  8  2  0  0  0  0
 10  9  1  0  0  0  0
 12 11  1  0  0  0  0
 12 13  1  0  0  0  0
 13 14  1  0  0  0  0
 13 15  1  0  0  0  0
 14 15  1  0  0  0  0
 16 17  1  0  0  0  0
 17 19  2  0  0  0  0
 17 18  1  0  0  0  0
 18 20  2  0  0  0  0
 19 21  1  0  0  0  0
 20 22  1  0  0  0  0
 21 22  2  0  0  0  0
 21 23  1  0  0  0  0
 23 24  2  0  0  0  0
 24 26  1  0  0  0  0
 25 23  1  0  0  0  0
 25 27  1  0  0  0  0
 27 26  2  0  0  0  0
 28 25  1  0  0  0  0
M  END
>  <REMARK>
 SMILES O=C(NCc1cccc(-c2nnc[nH]2)c1)c1ccccc1OCC1CC1
 SMILES IDX 1 1 2 2 3 3 16 5 17 6 21 7 18 8 20 9 19 10 22 11 23 12 24 13
 SMILES IDX 25 14 26 15 4 16 5 17 6 18 15 19 7 20 9 21 8 22 10 23 11 24
 SMILES IDX 14 25 12 26 13 27
 H PARENT 3 4 14 28

>  <TORSDO>
F 7

$$$$
