/home/pchatterjee/Documents/git/vs_workflow/DiffDock/diffdock_run/pdbqt_scrubbed/Z1228382446.pdbqt
 OpenBabel10272516423D

 28 31  0  0  1  0  0  0  0  0999 V2000
   -1.1460   -0.6410   -0.5250 C   0  0  0  0  0  2  0  0  0  0  0  0
   -0.7250    0.3100    0.4770 N   0  0  0  0  0  0  0  0  0  0  0  0
   -0.3880   -0.0980    1.7430 C   0  0  0  0  0  0  0  0  0  0  0  0
   -0.3620   -1.2850    2.0570 O   0  0  0  0  0  0  0  0  0  0  0  0
   -0.8820    1.2960    0.2850 H   0  0  0  0  0  0  0  0  0  0  0  0
   -0.0520    0.9540    2.6960 C   0  0  0  0  0  0  0  0  0  0  0  0
    0.5180    0.7130    3.9410 C   0  0  0  0  0  0  0  0  0  0  0  0
    0.7390    1.8760    4.6130 O   0  0  0  0  0  0  0  0  0  0  0  0
    0.3090    2.8930    3.8240 C   0  0  0  0  0  0  0  0  0  0  0  0
   -0.1860    2.3730    2.6440 C   0  0  2  0  0  3  0  0  0  0  0  0
    0.3760    4.1970    4.1870 N   0  0  0  0  0  0  0  0  0  0  0  0
   -0.7030    3.3070    1.6810 C   0  0  0  0  0  0  0  0  0  0  0  0
   -0.0850    5.0050    3.2900 C   0  0  0  0  0  2  0  0  0  0  0  0
   -0.5990    4.6220    2.0720 N   0  0  0  0  0  0  0  0  0  0  0  0
    0.9270   -0.5220    4.6500 C   0  0  0  0  0  1  0  0  0  0  0  0
   -1.2020    2.9820    0.6080 O   0  0  0  0  0  0  0  0  0  0  0  0
   -0.9570    5.3090    1.4270 H   0  0  0  0  0  0  0  0  0  0  0  0
   -1.2020   -0.0210   -1.8960 C   0  0  0  0  0  0  0  0  0  0  0  0
   -2.1570    0.9700   -2.1770 C   0  0  0  0  0  3  0  0  0  0  0  0
   -0.3160   -0.3930   -2.9160 C   0  0  0  0  0  0  0  0  0  0  0  0
   -2.2070    1.5810   -3.4330 C   0  0  0  0  0  3  0  0  0  0  0  0
   -0.3490    0.2300   -4.1650 C   0  0  0  0  0  3  0  0  0  0  0  0
   -1.2990    1.2150   -4.4250 C   0  0  0  0  0  3  0  0  0  0  0  0
    0.6330   -1.3560   -2.6830 O   0  0  0  0  0  0  0  0  0  0  0  0
    0.2860   -2.6730   -3.1840 C   0  0  0  0  0  3  0  0  0  0  0  0
    0.9180   -3.0800   -4.5380 C   0  0  0  0  0  2  0  0  0  0  0  0
    1.0830   -3.8420   -2.5520 C   0  0  0  0  0  2  0  0  0  0  0  0
    2.0510   -3.7550   -3.7440 C   0  0  0  0  0  2  0  0  0  0  0  0
  1  2  1  0  0  0  0
  2  3  1  0  0  0  0
  3  4  2  0  0  0  0
  3  6  1  0  0  0  0
  5  2  1  0  0  0  0
  6  7  2  0  0  0  0
  7  8  1  0  0  0  0
  7 15  1  0  0  0  0
  9 11  2  0  0  0  0
  9  8  1  0  0  0  0
 10 12  1  1  0  0  0
 10  6  1  0  0  0  0
 10  9  1  0  0  0  0
 12 14  1  0  0  0  0
 13 11  1  0  0  0  0
 14 13  1  0  0  0  0
 16 12  2  0  0  0  0
 17 14  1  0  0  0  0
 18  1  1  0  0  0  0
 19 18  1  0  0  0  0
 20 24  1  0  0  0  0
 20 18  2  0  0  0  0
 21 19  2  0  0  0  0
 22 20  1  0  0  0  0
 23 22  2  0  0  0  0
 23 21  1  0  0  0  0
 25 24  1  0  0  0  0
 25 27  1  0  0  0  0
 26 28  1  0  0  0  0
 26 25  1  0  0  0  0
 28 27  1  0  0  0  0
M  END
>  <REMARK>
 SMILES Cc1oc2nc[nH]c(=O)c2c1C(=O)NCc1ccccc1OC1CCC1
 SMILES IDX 15 1 14 2 12 3 13 4 11 6 2 7 3 8 4 9 10 10 5 11 8 12 6 13
 SMILES IDX 7 14 1 15 9 16 16 18 17 19 21 20 18 21 20 22 19 23 22 24
 SMILES IDX 23 25 24 26 26 27 25 28
 H PARENT 14 5 7 17

>  <TORSDO>
F 5

$$$$
