/home/pchatterjee/Documents/git/vs_workflow/DiffDock/diffdock_run/pdbqt_scrubbed/Z1255854579.pdbqt
 OpenBabel10272516423D

 32 35  0  0  1  0  0  0  0  0999 V2000
    1.9420   -2.2810    0.5880 C   0  0  0  0  0  0  0  0  0  0  0  0
    3.0850   -2.0800    0.1780 O   0  0  0  0  0  0  0  0  0  0  0  0
    1.4700   -1.6560    1.7590 N   0  0  0  0  0  0  0  0  0  0  0  0
    1.8030    0.2240    3.3700 C   0  0  1  0  0  3  0  0  0  0  0  0
    0.6440   -0.3280    4.2060 C   0  0  0  0  0  2  0  0  0  0  0  0
    2.4530   -0.8610    2.5110 C   0  0  0  0  0  2  0  0  0  0  0  0
   -0.3320   -1.1740    3.3910 C   0  0  0  0  0  2  0  0  0  0  0  0
    0.3820   -2.2310    2.5550 C   0  0  0  0  0  2  0  0  0  0  0  0
    1.3750    1.4400    2.5500 C   0  0  0  0  0  0  0  0  0  0  0  0
    0.7220    1.1540    1.3670 N   0  0  0  0  0  0  0  0  0  0  0  0
    0.1480    2.0170    0.4880 C   0  0  0  0  0  0  0  0  0  0  0  0
   -0.4320    1.5010   -0.5430 N   0  0  0  0  0  0  0  0  0  0  0  0
    0.2060    3.3450    0.7470 N   0  0  0  0  0  0  0  0  0  0  0  0
   -1.0420    2.3860   -1.4500 C   0  0  0  0  0  0  0  0  0  0  0  0
   -0.3390    4.2950   -0.0770 C   0  0  0  0  0  0  0  0  0  0  0  0
   -1.6940    1.8640   -2.5690 C   0  0  0  0  0  3  0  0  0  0  0  0
   -1.0240    3.7730   -1.2730 C   0  0  0  0  0  0  0  0  0  0  0  0
   -2.3080    2.7140   -3.4950 C   0  0  0  0  0  3  0  0  0  0  0  0
   -1.6350    4.6320   -2.1910 C   0  0  0  0  0  3  0  0  0  0  0  0
   -2.2780    4.0960   -3.3060 C   0  0  0  0  0  3  0  0  0  0  0  0
    1.5410    2.5870    2.9630 O   0  0  0  0  0  0  0  0  0  0  0  0
    0.6570    0.1860    1.0770 H   0  0  0  0  0  0  0  0  0  0  0  0
    0.6900    3.6660    1.5800 H   0  0  0  0  0  0  0  0  0  0  0  0
   -0.2700    5.4960    0.1560 O   0  0  0  0  0  0  0  0  0  0  0  0
    0.9430   -3.1680   -0.1790 C   0  0  0  0  0  2  0  0  0  0  0  0
    1.3850   -3.6750   -1.4290 O   0  0  0  0  0  0  0  0  0  0  0  0
    1.3250   -2.8510   -2.5180 C   0  0  0  0  0  0  0  0  0  0  0  0
    1.5800   -3.4860   -3.7380 C   0  0  0  0  0  3  0  0  0  0  0  0
    1.0610   -1.4820   -2.5080 C   0  0  0  0  0  3  0  0  0  0  0  0
    1.5630   -2.7670   -4.9340 C   0  0  0  0  0  3  0  0  0  0  0  0
    1.0510   -0.7590   -3.7050 C   0  0  0  0  0  3  0  0  0  0  0  0
    1.2980   -1.4000   -4.9170 C   0  0  0  0  0  3  0  0  0  0  0  0
  1  3  1  0  0  0  0
  2  1  2  0  0  0  0
  3  6  1  0  0  0  0
  3  8  1  0  0  0  0
  4  9  1  6  0  0  0
  4  5  1  0  0  0  0
  6  4  1  0  0  0  0
  7  5  1  0  0  0  0
  8  7  1  0  0  0  0
  9 21  2  0  0  0  0
 10  9  1  0  0  0  0
 11 13  1  0  0  0  0
 11 10  1  0  0  0  0
 12 11  2  0  0  0  0
 13 23  1  0  0  0  0
 14 17  1  0  0  0  0
 14 12  1  0  0  0  0
 15 24  2  0  0  0  0
 15 13  1  0  0  0  0
 16 14  2  0  0  0  0
 17 15  1  0  0  0  0
 18 20  2  0  0  0  0
 18 16  1  0  0  0  0
 19 17  2  0  0  0  0
 20 19  1  0  0  0  0
 22 10  1  0  0  0  0
 25  1  1  0  0  0  0
 26 25  1  0  0  0  0
 27 29  1  0  0  0  0
 27 26  1  0  0  0  0
 28 27  2  0  0  0  0
 30 32  2  0  0  0  0
 30 28  1  0  0  0  0
 31 29  2  0  0  0  0
 32 31  1  0  0  0  0
M  END
>  <REMARK>
 SMILES O=C(Nc1nc2ccccc2c(=O)[nH]1)C1CCCN(C(=O)COc2ccccc2)C1
 SMILES IDX 20 1 21 2 19 3 15 4 16 5 30 6 17 7 18 8 2 9 3 10 4 11 5 12
 SMILES IDX 14 13 6 14 12 15 7 16 11 17 8 18 10 19 9 20 1 21 13 24 22 25
 SMILES IDX 23 26 24 27 25 28 29 29 26 30 28 31 27 32
 H PARENT 3 22 14 23

>  <TORSDO>
F 5

$$$$
