/home/pchatterjee/Documents/git/vs_workflow/DiffDock/diffdock_run/pdbqt_scrubbed/Z1274688759.pdbqt
 OpenBabel10272516423D

 26 29  0  0  1  0  0  0  0  0999 V2000
   -1.5810    1.8390   -2.5290 C   0  0  0  0  0  0  0  0  0  0  0  0
   -1.6460    2.1420   -3.9030 C   0  0  0  0  0  3  0  0  0  0  0  0
   -2.8590    2.4540   -4.5120 C   0  0  0  0  0  3  0  0  0  0  0  0
   -4.0220    2.4720   -3.7540 C   0  0  0  0  0  3  0  0  0  0  0  0
   -3.9770    2.1710   -2.3890 C   0  0  0  0  0  3  0  0  0  0  0  0
   -2.7670    1.8400   -1.7620 C   0  0  0  0  0  0  0  0  0  0  0  0
   -0.2130    1.5300   -1.9950 C   0  0  0  0  0  0  0  0  0  0  0  0
   -0.0770    1.3250   -0.6360 N   0  0  0  0  0  0  0  0  0  0  0  0
   -0.9270    1.3790   -0.0790 H   0  0  0  0  0  0  0  0  0  0  0  0
    0.7580    1.4640   -2.7440 O   0  0  0  0  0  0  0  0  0  0  0  0
    1.2140    1.0380   -0.0310 C   0  0  2  0  0  3  0  0  0  0  0  0
    2.5580   -0.6950    1.9010 N   0  0  0  0  0  4  0  0  0  0  0  0
    2.8820   -0.8690    0.4330 C   0  0  2  0  0  3  0  0  0  0  0  0
    2.3960    0.7690    2.2390 C   0  0  1  0  0  3  0  0  0  0  0  0
    4.2050   -0.1680    0.1030 C   0  0  0  0  0  2  0  0  0  0  0  0
    1.6690   -0.3890   -0.3670 C   0  0  0  0  0  2  0  0  0  0  0  0
    3.7040    1.5180    1.9630 C   0  0  0  0  0  2  0  0  0  0  0  0
    1.1710    1.2920    1.4780 C   0  0  0  0  0  2  0  0  0  0  0  0
    4.3240    1.2740    0.5900 C   0  0  0  0  0  2  0  0  0  0  0  0
    3.4650   -1.4570    2.8330 C   0  0  0  0  0  1  0  0  0  0  0  0
    1.6380   -1.1350    2.0460 H   0  0  0  0  0  0  0  0  0  0  0  0
   -2.6670    1.5430   -0.4250 O   0  0  0  0  0  0  0  0  0  0  0  0
   -3.8400    1.1590    0.3030 C   0  0  0  0  0  2  0  0  0  0  0  0
   -4.1800   -0.2750    0.0320 C   0  0  0  0  0  3  0  0  0  0  0  0
   -5.3900   -0.8920    0.6880 C   0  0  0  0  0  2  0  0  0  0  0  0
   -5.3810   -0.6590   -0.7960 C   0  0  0  0  0  2  0  0  0  0  0  0
  1  7  1  0  0  0  0
  1  6  1  0  0  0  0
  2  1  2  0  0  0  0
  3  2  1  0  0  0  0
  3  4  2  0  0  0  0
  4  5  1  0  0  0  0
  5  6  2  0  0  0  0
  6 22  1  0  0  0  0
  7  8  1  0  0  0  0
  8  9  1  0  0  0  0
 10  7  2  0  0  0  0
 11  8  1  1  0  0  0
 11 18  1  0  0  0  0
 12 21  1  0  0  0  0
 12 14  1  0  0  0  0
 12 20  1  0  0  0  0
 13 16  1  6  0  0  0
 13 12  1  0  0  0  0
 14 18  1  6  0  0  0
 15 13  1  0  0  0  0
 15 19  1  0  0  0  0
 16 11  1  0  0  0  0
 17 14  1  0  0  0  0
 19 17  1  0  0  0  0
 22 23  1  0  0  0  0
 24 23  1  0  0  0  0
 24 25  1  0  0  0  0
 26 24  1  0  0  0  0
 26 25  1  0  0  0  0
M  END
>  <REMARK>
 SMILES C[NH+]1C2CCCC1CC(NC(=O)c1ccccc1OCC1CC1)C2
 SMILES IDX 13 1 14 2 15 3 16 4 17 5 18 6 11 7 10 8 12 10 9 11 2 12 3 13
 SMILES IDX 7 14 4 15 24 16 6 17 8 18 5 19 1 20 19 22 20 23 21 24 22 25
 SMILES IDX 23 26
 H PARENT 10 9 2 21

>  <TORSDO>
F 5

$$$$
