/home/pchatterjee/Documents/git/vs_workflow/DiffDock/diffdock_run/pdbqt_scrubbed/Z1276127611.pdbqt
 OpenBabel10272516423D

 26 28  0  0  1  0  0  0  0  0999 V2000
    0.3580   -0.8910   -2.0520 N   0  0  0  0  0  0  0  0  0  0  0  0
    0.3050   -0.3580   -3.3170 C   0  0  0  0  0  0  0  0  0  0  0  0
    0.3980   -1.0520   -4.3260 O   0  0  0  0  0  0  0  0  0  0  0  0
    0.3420   -0.2680   -1.2470 H   0  0  0  0  0  0  0  0  0  0  0  0
    0.5020   -2.3200   -1.8130 C   0  0  2  0  0  3  0  0  0  0  0  0
   -0.8040   -3.0630   -2.0980 C   0  0  0  0  0  1  0  0  0  0  0  0
    0.9070   -2.5260   -0.3910 C   0  0  0  0  0  0  0  0  0  0  0  0
    0.5990   -1.8270    0.6860 N   0  0  0  0  0  0  0  0  0  0  0  0
    1.7040   -3.6020   -0.1300 O   0  0  0  0  0  0  0  0  0  0  0  0
    1.2490   -2.5250    1.6770 C   0  0  0  0  0  0  0  0  0  0  0  0
    1.9290   -3.6010    1.2460 N   0  0  0  0  0  0  0  0  0  0  0  0
    1.1860   -2.1370    3.1330 C   0  0  0  0  0  0  0  0  0  0  0  0
    0.5110   -3.2610    3.9470 C   0  0  0  0  0  1  0  0  0  0  0  0
    0.3680   -0.8440    3.3300 C   0  0  0  0  0  1  0  0  0  0  0  0
    2.6060   -1.8970    3.6870 C   0  0  0  0  0  1  0  0  0  0  0  0
    0.1420    1.1230   -3.4320 C   0  0  0  0  0  0  0  0  0  0  0  0
    0.3790    1.6980   -4.6920 C   0  0  0  0  0  3  0  0  0  0  0  0
   -0.2360    1.9630   -2.3750 C   0  0  0  0  0  0  0  0  0  0  0  0
    0.2730    3.0790   -4.8830 C   0  0  0  0  0  3  0  0  0  0  0  0
   -0.3140    3.3490   -2.5600 C   0  0  0  0  0  3  0  0  0  0  0  0
   -0.0660    3.9050   -3.8140 C   0  0  0  0  0  3  0  0  0  0  0  0
   -0.4780    1.4850   -1.1130 O   0  0  0  0  0  0  0  0  0  0  0  0
   -1.8840    1.3030   -0.8940 C   0  0  0  0  0  2  0  0  0  0  0  0
   -2.0990    1.2030    0.5860 C   0  0  0  0  0  3  0  0  0  0  0  0
   -2.2720    2.4600    1.4080 C   0  0  0  0  0  2  0  0  0  0  0  0
   -3.4360    1.5240    1.2020 C   0  0  0  0  0  2  0  0  0  0  0  0
  1  5  1  0  0  0  0
  1  4  1  0  0  0  0
  2  1  1  0  0  0  0
  3  2  2  0  0  0  0
  5  6  1  1  0  0  0
  5  7  1  0  0  0  0
  7  9  1  0  0  0  0
  7  8  2  0  0  0  0
  8 10  1  0  0  0  0
  9 11  1  0  0  0  0
 10 12  1  0  0  0  0
 11 10  2  0  0  0  0
 12 14  1  0  0  0  0
 12 15  1  0  0  0  0
 12 13  1  0  0  0  0
 16  2  1  0  0  0  0
 16 18  1  0  0  0  0
 17 16  2  0  0  0  0
 18 22  1  0  0  0  0
 19 17  1  0  0  0  0
 19 21  2  0  0  0  0
 20 18  2  0  0  0  0
 21 20  1  0  0  0  0
 22 23  1  0  0  0  0
 23 24  1  0  0  0  0
 24 26  1  0  0  0  0
 24 25  1  0  0  0  0
 26 25  1  0  0  0  0
M  END
>  <REMARK>
 SMILES CC(NC(=O)c1ccccc1OCC1CC1)c1nc(C(C)(C)C)no1
 SMILES IDX 3 1 4 2 5 3 2 5 1 6 17 7 18 8 25 9 19 10 24 11 20 12 21 13
 SMILES IDX 22 14 23 15 6 16 7 17 11 18 8 19 10 20 9 21 12 22 13 23
 SMILES IDX 14 24 15 25 16 26
 H PARENT 3 4

>  <TORSDO>
F 7

$$$$
