/home/pchatterjee/Documents/git/vs_workflow/DiffDock/diffdock_run/pdbqt_scrubbed/Z1272453975.pdbqt
 OpenBabel10272516423D

 28 32  0  0  0  0  0  0  0  0999 V2000
   -1.3540   -0.0410   -0.3150 C   0  0  0  0  0  0  0  0  0  0  0  0
   -1.1600   -1.0600    0.6150 C   0  0  0  0  0  3  0  0  0  0  0  0
   -0.3000   -0.8880    1.7050 C   0  0  0  0  0  3  0  0  0  0  0  0
    0.3860    0.3110    1.8980 C   0  0  0  0  0  0  0  0  0  0  0  0
    0.2120    1.3350    0.9760 C   0  0  0  0  0  3  0  0  0  0  0  0
   -0.6490    1.1570   -0.1140 C   0  0  0  0  0  3  0  0  0  0  0  0
   -2.2030   -0.1380   -1.4260 N   0  0  0  0  0  0  0  0  0  0  0  0
   -2.2210    0.6890   -2.0070 H   0  0  0  0  0  0  0  0  0  0  0  0
   -3.0530   -1.1490   -1.8980 C   0  0  0  0  0  0  0  0  0  0  0  0
   -4.0180   -3.2710   -1.7690 C   0  0  0  0  0  3  0  0  0  0  0  0
   -3.1810   -2.3430   -1.2660 N   0  0  0  0  0  0  0  0  0  0  0  0
   -4.7900   -3.1860   -2.8640 N   0  0  0  0  0  0  0  0  0  0  0  0
   -4.6410   -2.0000   -3.4650 C   0  0  0  0  0  0  0  0  0  0  0  0
   -3.8210   -0.9560   -3.0660 C   0  0  0  0  0  0  0  0  0  0  0  0
   -5.3000   -1.6230   -4.6010 N   0  0  0  0  0  0  0  0  0  0  0  0
   -4.0070    0.0860   -4.0210 C   0  0  0  0  0  3  0  0  0  0  0  0
   -4.9230   -0.3540   -4.9540 C   0  0  0  0  0  3  0  0  0  0  0  0
   -5.9620   -2.2110   -5.0870 H   0  0  0  0  0  0  0  0  0  0  0  0
    1.1860    0.3380    3.0010 O   0  0  0  0  0  0  0  0  0  0  0  0
    1.7720    1.5870    3.3970 C   0  0  0  0  0  2  0  0  0  0  0  0
    3.1070    1.8410    2.7820 C   0  0  0  0  0  0  0  0  0  0  0  0
    4.2540    1.4340    3.3460 N   0  0  0  0  0  0  0  0  0  0  0  0
    3.2620    2.5470    1.6120 N   0  0  0  0  0  0  0  0  0  0  0  0
    5.2250    1.8770    2.4470 O   0  0  0  0  0  0  0  0  0  0  0  0
    4.5630    2.5180    1.4390 C   0  0  0  0  0  0  0  0  0  0  0  0
    5.2740    3.1580    0.2140 C   0  0  0  0  0  3  0  0  0  0  0  0
    6.1570    2.3040   -0.6530 C   0  0  0  0  0  2  0  0  0  0  0  0
    4.8330    2.7720   -1.1730 C   0  0  0  0  0  2  0  0  0  0  0  0
  1  6  2  0  0  0  0
  1  2  1  0  0  0  0
  2  3  2  0  0  0  0
  3  4  1  0  0  0  0
  4 19  1  0  0  0  0
  5  4  2  0  0  0  0
  6  5  1  0  0  0  0
  7  1  1  0  0  0  0
  8  7  1  0  0  0  0
  9  7  1  0  0  0  0
  9 11  1  0  0  0  0
 10 11  2  0  0  0  0
 12 10  1  0  0  0  0
 13 14  1  0  0  0  0
 13 12  2  0  0  0  0
 14  9  2  0  0  0  0
 15 13  1  0  0  0  0
 16 14  1  0  0  0  0
 17 15  1  0  0  0  0
 17 16  2  0  0  0  0
 18 15  1  0  0  0  0
 19 20  1  0  0  0  0
 21 22  2  0  0  0  0
 21 20  1  0  0  0  0
 23 21  1  0  0  0  0
 24 22  1  0  0  0  0
 25 23  2  0  0  0  0
 25 24  1  0  0  0  0
 26 25  1  0  0  0  0
 27 26  1  0  0  0  0
 28 27  1  0  0  0  0
 28 26  1  0  0  0  0
M  END
>  <REMARK>
 SMILES c1nc(Nc2ccc(OCc3noc(C4CC4)n3)cc2)c2cc[nH]c2n1
 SMILES IDX 5 1 6 2 7 3 8 4 19 5 20 6 4 7 3 9 1 10 2 11 26 12 25 13
 SMILES IDX 21 14 24 15 22 16 23 17 9 19 10 20 11 21 12 22 18 23 13 24
 SMILES IDX 14 25 15 26 16 27 17 28
 H PARENT 4 8 24 18

>  <TORSDO>
F 6

$$$$
