/home/pchatterjee/Documents/git/vs_workflow/DiffDock/diffdock_run/pdbqt_scrubbed/Z1365840340.pdbqt
 OpenBabel10272516423D

 27 29  0  0  1  0  0  0  0  0999 V2000
    1.0440    1.8810   -2.2880 C   0  0  0  0  0  0  0  0  0  0  0  0
    2.2820    2.1820   -2.8690 C   0  0  0  0  0  3  0  0  0  0  0  0
    2.3500    2.8880   -4.0730 C   0  0  0  0  0  3  0  0  0  0  0  0
    1.1840    3.2960   -4.7130 C   0  0  0  0  0  3  0  0  0  0  0  0
   -0.0540    3.0020   -4.1450 C   0  0  0  0  0  3  0  0  0  0  0  0
   -0.1380    2.3040   -2.9280 C   0  0  0  0  0  0  0  0  0  0  0  0
    0.9040    1.1570   -1.1350 O   0  0  0  0  0  0  0  0  0  0  0  0
    2.0680    0.8730   -0.3540 C   0  0  0  0  0  2  0  0  0  0  0  0
    1.6060    0.1740    0.9240 C   0  0  0  0  0  2  0  0  0  0  0  0
    0.8940    1.1120    1.7410 O   0  0  0  0  0  0  0  0  0  0  0  0
    0.3350    0.4830    2.8860 C   0  0  0  0  0  1  0  0  0  0  0  0
   -1.5150    2.0550   -2.3930 C   0  0  0  0  0  0  0  0  0  0  0  0
   -1.6350    1.8130   -1.0440 N   0  0  0  0  0  0  0  0  0  0  0  0
   -2.4850    2.0990   -3.1440 O   0  0  0  0  0  0  0  0  0  0  0  0
   -0.7790    1.5940   -0.5380 H   0  0  0  0  0  0  0  0  0  0  0  0
   -2.8780    1.3300   -0.4620 C   0  0  2  0  0  3  0  0  0  0  0  0
   -3.0700    1.9220    0.9290 C   0  0  0  0  0  1  0  0  0  0  0  0
   -2.8330   -0.1620   -0.3940 C   0  0  0  0  0  0  0  0  0  0  0  0
   -1.9130   -0.9610    0.1110 N   0  0  0  0  0  0  0  0  0  0  0  0
   -3.9100   -0.8320   -0.9000 O   0  0  0  0  0  0  0  0  0  0  0  0
   -2.4530   -2.2000   -0.1210 C   0  0  0  0  0  0  0  0  0  0  0  0
   -3.6550   -2.1920   -0.7110 N   0  0  0  0  0  0  0  0  0  0  0  0
   -1.7670   -3.4620    0.2630 C   0  0  0  0  0  3  0  0  0  0  0  0
   -1.4700   -3.5570    1.7710 C   0  0  0  0  0  2  0  0  0  0  0  0
   -0.4130   -3.6410   -0.4380 C   0  0  0  0  0  2  0  0  0  0  0  0
    0.0410   -3.7240    1.8940 C   0  0  0  0  0  2  0  0  0  0  0  0
    0.4500   -4.3680    0.5810 C   0  0  0  0  0  2  0  0  0  0  0  0
  1  7  1  0  0  0  0
  2  1  1  0  0  0  0
  3  2  2  0  0  0  0
  4  5  2  0  0  0  0
  4  3  1  0  0  0  0
  5  6  1  0  0  0  0
  6 12  1  0  0  0  0
  6  1  2  0  0  0  0
  7  8  1  0  0  0  0
  8  9  1  0  0  0  0
  9 10  1  0  0  0  0
 10 11  1  0  0  0  0
 12 13  1  0  0  0  0
 13 15  1  0  0  0  0
 13 16  1  0  0  0  0
 14 12  2  0  0  0  0
 16 18  1  0  0  0  0
 16 17  1  1  0  0  0
 18 19  2  0  0  0  0
 20 22  1  0  0  0  0
 20 18  1  0  0  0  0
 21 19  1  0  0  0  0
 21 23  1  0  0  0  0
 22 21  2  0  0  0  0
 23 24  1  0  0  0  0
 24 26  1  0  0  0  0
 25 23  1  0  0  0  0
 25 27  1  0  0  0  0
 27 26  1  0  0  0  0
M  END
>  <REMARK>
 SMILES COCCOc1ccccc1C(=O)NC(C)c1nc(C2CCCC2)no1
 SMILES IDX 6 1 7 2 8 3 9 4 10 5 11 6 5 7 4 8 3 9 2 10 1 11 12 12 14 13
 SMILES IDX 13 14 15 16 16 17 17 18 18 19 26 20 19 21 25 22 20 23 21 24
 SMILES IDX 24 25 22 26 23 27
 H PARENT 14 15

>  <TORSDO>
F 8

$$$$
