/home/pchatterjee/Documents/git/vs_workflow/DiffDock/diffdock_run/pdbqt_scrubbed/Z1366063550.pdbqt
 OpenBabel10272516423D

 28 31  0  0  1  0  0  0  0  0999 V2000
    3.2990    1.5100   -2.8680 C   0  0  0  0  0  0  0  0  0  0  0  0
    3.9950    2.2330   -3.8570 C   0  0  0  0  0  3  0  0  0  0  0  0
    4.5560    1.5890   -4.9580 C   0  0  0  0  0  3  0  0  0  0  0  0
    4.4270    0.2120   -5.0840 C   0  0  0  0  0  3  0  0  0  0  0  0
    3.7520   -0.5220   -4.1050 C   0  0  0  0  0  3  0  0  0  0  0  0
    3.1940    0.1100   -2.9800 C   0  0  0  0  0  0  0  0  0  0  0  0
    2.7290    2.3270   -1.7520 C   0  0  0  0  0  0  0  0  0  0  0  0
    1.7110    1.7820   -1.0110 N   0  0  0  0  0  0  0  0  0  0  0  0
    1.4450    0.8130   -1.1680 H   0  0  0  0  0  0  0  0  0  0  0  0
    3.1450    3.4650   -1.5450 O   0  0  0  0  0  0  0  0  0  0  0  0
    1.0840    2.5110    0.0830 C   0  0  2  0  0  3  0  0  0  0  0  0
    1.9280    2.4260    1.3530 C   0  0  0  0  0  1  0  0  0  0  0  0
   -0.2830    1.9630    0.3200 C   0  0  0  0  0  0  0  0  0  0  0  0
   -0.8060    0.8050   -0.0240 N   0  0  0  0  0  0  0  0  0  0  0  0
   -1.1510    2.7620    1.0090 O   0  0  0  0  0  0  0  0  0  0  0  0
   -2.0730    0.8960    0.4920 C   0  0  0  0  0  0  0  0  0  0  0  0
   -2.3410    2.0440    1.1280 N   0  0  0  0  0  0  0  0  0  0  0  0
   -3.0610   -0.2170    0.3590 C   0  0  0  0  0  3  0  0  0  0  0  0
   -4.2570    0.1740   -0.5310 C   0  0  0  0  0  2  0  0  0  0  0  0
   -3.5280   -0.7440    1.7210 C   0  0  0  0  0  2  0  0  0  0  0  0
   -5.5300   -0.6230   -0.2310 C   0  0  0  0  0  2  0  0  0  0  0  0
   -4.4120   -1.9860    1.5790 C   0  0  0  0  0  2  0  0  0  0  0  0
   -5.2180   -2.0220    0.2800 C   0  0  0  0  0  2  0  0  0  0  0  0
    2.5410   -0.5780   -1.9860 O   0  0  0  0  0  0  0  0  0  0  0  0
    2.7970   -1.9860   -1.9060 C   0  0  0  0  0  2  0  0  0  0  0  0
    2.2340   -2.5780   -0.6450 C   0  0  0  0  0  3  0  0  0  0  0  0
    2.0910   -1.7830    0.6270 C   0  0  0  0  0  2  0  0  0  0  0  0
    0.8650   -2.1990   -0.1430 C   0  0  0  0  0  2  0  0  0  0  0  0
  1  7  1  0  0  0  0
  2  1  2  0  0  0  0
  3  2  1  0  0  0  0
  4  3  2  0  0  0  0
  4  5  1  0  0  0  0
  5  6  2  0  0  0  0
  6  1  1  0  0  0  0
  6 24  1  0  0  0  0
  7 10  2  0  0  0  0
  7  8  1  0  0  0  0
  8 11  1  0  0  0  0
  9  8  1  0  0  0  0
 11 13  1  0  0  0  0
 11 12  1  1  0  0  0
 13 15  1  0  0  0  0
 14 13  2  0  0  0  0
 14 16  1  0  0  0  0
 15 17  1  0  0  0  0
 16 17  2  0  0  0  0
 18 16  1  0  0  0  0
 18 20  1  0  0  0  0
 19 21  1  0  0  0  0
 19 18  1  0  0  0  0
 21 23  1  0  0  0  0
 22 20  1  0  0  0  0
 23 22  1  0  0  0  0
 24 25  1  0  0  0  0
 25 26  1  0  0  0  0
 26 28  1  0  0  0  0
 26 27  1  0  0  0  0
 28 27  1  0  0  0  0
M  END
>  <REMARK>
 SMILES CC(NC(=O)c1ccccc1OCC1CC1)c1nc(C2CCCCC2)no1
 SMILES IDX 6 1 7 2 8 3 9 4 10 5 11 6 4 7 3 8 5 10 2 11 1 12 17 13 18 14
 SMILES IDX 27 15 19 16 26 17 20 18 21 19 25 20 22 21 24 22 23 23 12 24
 SMILES IDX 13 25 14 26 15 27 16 28
 H PARENT 3 9

>  <TORSDO>
F 7

$$$$
