/home/pchatterjee/Documents/git/vs_workflow/DiffDock/diffdock_run/pdbqt_scrubbed/Z1368316620.pdbqt
 OpenBabel10272516423D

 29 32  0  0  1  0  0  0  0  0999 V2000
   -1.7230    2.4370   -1.5890 N   0  0  0  0  0  0  0  0  0  0  0  0
   -0.9690    2.2300   -0.4860 C   0  0  0  0  0  0  0  0  0  0  0  0
   -0.3430    0.9750   -0.6860 O   0  0  0  0  0  0  0  0  0  0  0  0
   -2.2640    3.3010   -1.7230 H   0  0  0  0  0  0  0  0  0  0  0  0
   -1.8030    1.4570   -2.6570 C   0  0  1  0  0  3  0  0  0  0  0  0
   -0.9070    1.6830   -3.8010 C   0  0  0  0  0  1  0  0  0  0  0  0
   -1.7630    0.0270   -2.1470 C   0  0  0  0  0  0  0  0  0  0  0  0
   -2.4160   -0.4740   -1.1000 N   0  0  0  0  0  0  0  0  0  0  0  0
   -1.0800   -0.9720   -2.6550 O   0  0  0  0  0  0  0  0  0  0  0  0
   -2.1380   -1.7970   -0.9570 C   0  0  0  0  0  0  0  0  0  0  0  0
   -1.2910   -2.0730   -1.9580 N   0  0  0  0  0  0  0  0  0  0  0  0
   -2.6200   -2.7450    0.0790 C   0  0  0  0  0  2  0  0  0  0  0  0
   -1.4890   -3.3020    0.8650 C   0  0  0  0  0  0  0  0  0  0  0  0
   -0.8830   -2.6210    1.8940 C   0  0  0  0  0  3  0  0  0  0  0  0
   -1.0880   -4.5880    0.4830 C   0  0  0  0  0  3  0  0  0  0  0  0
    0.1650   -3.2420    2.5730 C   0  0  0  0  0  3  0  0  0  0  0  0
   -0.0390   -5.2100    1.1630 C   0  0  0  0  0  3  0  0  0  0  0  0
    0.5370   -4.5010    2.1800 C   0  0  0  0  0  3  0  0  0  0  0  0
   -0.5380    2.6650    0.7180 C   0  0  0  0  0  0  0  0  0  0  0  0
   -1.6950    3.9120    0.7000 C   0  0  0  0  0  3  0  0  0  0  0  0
   -0.1240    3.0830    1.8770 C   0  0  0  0  0  0  0  0  0  0  0  0
   -1.8210    4.7700    1.6560 C   0  0  0  0  0  3  0  0  0  0  0  0
   -0.1460    3.8800    2.9070 C   0  0  0  0  0  3  0  0  0  0  0  0
   -1.1240    4.9030    2.8470 C   0  0  0  0  0  3  0  0  0  0  0  0
    0.9730    2.0180    2.0290 O   0  0  0  0  0  0  0  0  0  0  0  0
    1.7050    2.0440    3.1370 C   0  0  0  0  0  2  0  0  0  0  0  0
    2.8040    0.9830    3.1720 C   0  0  0  0  0  3  0  0  0  0  0  0
    3.8310    1.1370    2.0370 C   0  0  0  0  0  2  0  0  0  0  0  0
    2.9000   -0.0010    2.0520 C   0  0  0  0  0  2  0  0  0  0  0  0
  1  2  1  0  0  0  0
  2 19  1  0  0  0  0
  3  2  2  0  0  0  0
  4  1  1  0  0  0  0
  5  6  1  6  0  0  0
  5  7  1  0  0  0  0
  5  1  1  0  0  0  0
  7  8  2  0  0  0  0
  8 10  1  0  0  0  0
  9  7  1  0  0  0  0
  9 11  1  0  0  0  0
 10 12  1  0  0  0  0
 11 10  2  0  0  0  0
 12 13  1  0  0  0  0
 13 14  1  0  0  0  0
 14 16  2  0  0  0  0
 15 13  2  0  0  0  0
 15 17  1  0  0  0  0
 17 18  2  0  0  0  0
 18 16  1  0  0  0  0
 19 21  1  0  0  0  0
 20 19  2  0  0  0  0
 20 22  1  0  0  0  0
 21 25  1  0  0  0  0
 21 23  2  0  0  0  0
 22 24  2  0  0  0  0
 24 23  1  0  0  0  0
 25 26  1  0  0  0  0
 26 27  1  0  0  0  0
 28 29  1  0  0  0  0
 28 27  1  0  0  0  0
 29 27  1  0  0  0  0
M  END
>  <REMARK>
 SMILES CC(NC(=O)c1ccccc1OCC1CC1)c1nc(Cc2ccccc2)no1
 SMILES IDX 3 1 4 2 5 3 2 5 1 6 17 7 18 8 28 9 19 10 27 11 20 12 21 13
 SMILES IDX 22 14 26 15 23 16 25 17 24 18 6 19 7 20 11 21 8 22 10 23
 SMILES IDX 9 24 12 25 13 26 14 27 15 28 16 29
 H PARENT 3 4

>  <TORSDO>
F 8

$$$$
