/home/pchatterjee/Documents/git/vs_workflow/DiffDock/diffdock_run/pdbqt_scrubbed/Z1381816014.pdbqt
 OpenBabel10272516423D

 26 28  0  0  1  0  0  0  0  0999 V2000
   -1.1510   -0.9830    0.7550 C   0  0  1  0  0  3  0  0  0  0  0  0
    0.2040   -0.5160    1.0170 N   0  0  0  0  0  0  0  0  0  0  0  0
    0.7230   -0.3950    2.2950 C   0  0  0  0  0  0  0  0  0  0  0  0
    0.1590   -0.8370    3.2920 O   0  0  0  0  0  0  0  0  0  0  0  0
    0.6420    0.0770    0.3130 H   0  0  0  0  0  0  0  0  0  0  0  0
    1.9970    0.3400    2.3310 C   0  0  0  0  0  0  0  0  0  0  0  0
    2.6950    0.5600    3.4570 N   0  0  0  0  0  0  0  0  0  0  0  0
    2.5750    0.8910    1.1950 N   0  0  0  0  0  0  0  0  0  0  0  0
    3.8000    1.2880    3.0230 O   0  0  0  0  0  0  0  0  0  0  0  0
    3.6660    1.4490    1.6730 C   0  0  0  0  0  0  0  0  0  0  0  0
    4.7050    2.1920    0.9840 C   0  0  0  0  0  0  0  0  0  0  0  0
    4.6220    2.4230   -0.3930 C   0  0  0  0  0  3  0  0  0  0  0  0
    5.8200    2.7070    1.6410 C   0  0  0  0  0  3  0  0  0  0  0  0
    5.6250    3.1390   -1.0450 C   0  0  0  0  0  3  0  0  0  0  0  0
    6.8110    3.4070    1.0340 N   0  0  0  0  0  0  0  0  0  0  0  0
    6.6900    3.6070   -0.2950 C   0  0  0  0  0  3  0  0  0  0  0  0
   -2.1710    0.1720    0.8710 C   0  0  0  0  0  2  0  0  0  0  0  0
   -2.0830    1.2750   -0.1770 C   0  0  0  0  0  2  0  0  0  0  0  0
   -0.8050    1.8980   -0.1640 O   0  0  0  0  0  0  0  0  0  0  0  0
   -0.7390    2.3960    0.6700 H   0  0  0  0  0  0  0  0  0  0  0  0
   -1.2030   -1.8610   -0.5260 C   0  0  0  0  0  3  0  0  0  0  0  0
   -2.6300   -2.2830   -0.9030 C   0  0  0  0  0  2  0  0  0  0  0  0
   -0.4440   -1.2950   -1.7470 C   0  0  0  0  0  2  0  0  0  0  0  0
   -2.6430   -3.3540   -1.9980 C   0  0  0  0  0  2  0  0  0  0  0  0
   -0.9710   -1.8070   -3.0900 C   0  0  0  0  0  2  0  0  0  0  0  0
   -1.4840   -3.2350   -2.9880 C   0  0  0  0  0  2  0  0  0  0  0  0
  1 17  1  6  0  0  0
  1  2  1  0  0  0  0
  2  3  1  0  0  0  0
  3  6  1  0  0  0  0
  3  4  2  0  0  0  0
  5  2  1  0  0  0  0
  6  7  2  0  0  0  0
  8 10  2  0  0  0  0
  8  6  1  0  0  0  0
  9  7  1  0  0  0  0
 10  9  1  0  0  0  0
 11 13  1  0  0  0  0
 11 10  1  0  0  0  0
 12 11  2  0  0  0  0
 14 12  1  0  0  0  0
 14 16  2  0  0  0  0
 15 13  2  0  0  0  0
 16 15  1  0  0  0  0
 18 19  1  0  0  0  0
 18 17  1  0  0  0  0
 19 20  1  0  0  0  0
 21  1  1  0  0  0  0
 22 21  1  0  0  0  0
 23 21  1  0  0  0  0
 24 22  1  0  0  0  0
 25 26  1  0  0  0  0
 25 23  1  0  0  0  0
 26 24  1  0  0  0  0
M  END
>  <REMARK>
 SMILES O=C(NC(CCO)C1CCCCC1)c1noc(-c2cccnc2)n1
 SMILES IDX 4 1 3 2 2 3 1 4 14 6 15 7 24 8 16 9 17 10 18 11 19 12 23 13
 SMILES IDX 20 14 22 15 21 16 5 17 6 18 7 19 8 21 9 22 13 23 10 24 12 25
 SMILES IDX 11 26
 H PARENT 3 5 7 20

>  <TORSDO>
F 7

$$$$
