/home/pchatterjee/Documents/git/vs_workflow/DiffDock/diffdock_run/pdbqt_scrubbed/Z1396714415.pdbqt
 OpenBabel10272516423D

 25 27  0  0  1  0  0  0  0  0999 V2000
   -4.3130    3.0160   -0.0700 C   0  0  0  0  0  1  0  0  0  0  0  0
   -2.8770    2.5820   -0.0000 C   0  0  0  0  0  0  0  0  0  0  0  0
   -1.9150    3.4130    0.5820 C   0  0  0  0  0  3  0  0  0  0  0  0
   -0.5750    3.0200    0.6360 C   0  0  0  0  0  3  0  0  0  0  0  0
   -0.1710    1.7890    0.1000 C   0  0  0  0  0  0  0  0  0  0  0  0
   -1.1360    0.9800   -0.5230 C   0  0  0  0  0  0  0  0  0  0  0  0
   -2.4780    1.3640   -0.5620 C   0  0  0  0  0  3  0  0  0  0  0  0
   -0.7260   -0.2330   -1.0130 O   0  0  0  0  0  0  0  0  0  0  0  0
   -1.0880   -0.4380   -2.3890 C   0  0  0  0  0  2  0  0  0  0  0  0
   -0.1640   -1.4830   -3.0420 C   0  0  2  0  0  3  0  0  0  0  0  0
   -0.2950   -2.8600   -2.4150 C   0  0  0  0  0  2  0  0  0  0  0  0
    1.3040   -1.1910   -2.7890 C   0  0  0  0  0  2  0  0  0  0  0  0
    0.7690   -2.8970   -1.3320 C   0  0  0  0  0  2  0  0  0  0  0  0
    1.5670   -1.7010   -1.4670 O   0  0  0  0  0  0  0  0  0  0  0  0
    1.2770    1.3830    0.1550 C   0  0  0  0  0  2  0  0  0  0  0  0
    1.5060    0.0150    0.6860 N   0  0  0  0  0  4  0  0  0  0  0  0
    0.9450   -0.6260    0.0940 H   0  0  0  0  0  0  0  0  0  0  0  0
    2.4650   -0.2880    0.4810 H   0  0  0  0  0  0  0  0  0  0  0  0
    1.1760   -0.1920    2.1160 C   0  0  0  0  0  2  0  0  0  0  0  0
    1.3880   -1.6090    2.5420 C   0  0  0  0  0  0  0  0  0  0  0  0
    0.3440   -2.5400    2.5360 C   0  0  0  0  0  3  0  0  0  0  0  0
    2.6460   -2.0600    2.9290 C   0  0  0  0  0  3  0  0  0  0  0  0
    0.5930   -3.8590    2.9100 C   0  0  0  0  0  3  0  0  0  0  0  0
    2.9120   -3.3340    3.2810 N   0  0  0  0  0  0  0  0  0  0  0  0
    1.8830   -4.2070    3.2700 C   0  0  0  0  0  3  0  0  0  0  0  0
  1  2  1  0  0  0  0
  2  3  1  0  0  0  0
  3  4  2  0  0  0  0
  5 15  1  0  0  0  0
  5  4  1  0  0  0  0
  6  5  2  0  0  0  0
  7  6  1  0  0  0  0
  7  2  2  0  0  0  0
  8  6  1  0  0  0  0
  9  8  1  0  0  0  0
 10 12  1  0  0  0  0
 10 11  1  0  0  0  0
 10  9  1  1  0  0  0
 11 13  1  0  0  0  0
 12 14  1  0  0  0  0
 14 13  1  0  0  0  0
 15 16  1  0  0  0  0
 16 19  1  0  0  0  0
 17 16  1  0  0  0  0
 18 16  1  0  0  0  0
 19 20  1  0  0  0  0
 20 22  1  0  0  0  0
 21 20  2  0  0  0  0
 21 23  1  0  0  0  0
 22 24  2  0  0  0  0
 23 25  2  0  0  0  0
 25 24  1  0  0  0  0
M  END
>  <REMARK>
 SMILES Cc1ccc(C[NH2+]Cc2cccnc2)c(OCC2CCOC2)c1
 SMILES IDX 1 1 2 2 3 3 4 4 5 5 15 6 23 7 16 8 17 9 18 10 19 11 22 12
 SMILES IDX 20 13 21 14 6 15 7 16 8 19 9 20 10 21 14 22 11 23 13 24
 SMILES IDX 12 25
 H PARENT 7 17 7 18

>  <TORSDO>
F 7

$$$$
