/home/pchatterjee/Documents/git/vs_workflow/DiffDock/diffdock_run/pdbqt_scrubbed/Z1400966843.pdbqt
 OpenBabel10272516423D

 27 30  0  0  1  0  0  0  0  0999 V2000
   -2.1660   -0.9390   -2.2540 O   0  0  0  0  0  0  0  0  0  0  0  0
   -1.2320   -0.1560   -2.0690 C   0  0  0  0  0  0  0  0  0  0  0  0
   -0.6360   -0.0410   -0.8090 N   0  0  0  0  0  0  0  0  0  0  0  0
   -1.1040   -0.9490    0.2350 C   0  0  0  0  0  2  0  0  0  0  0  0
   -0.2640   -0.8820    1.5050 C   0  0  0  0  0  2  0  0  0  0  0  0
   -0.1790    0.5610    2.0250 C   0  0  2  0  0  3  0  0  0  0  0  0
    0.1520    1.5640    0.9010 C   0  0  0  0  0  2  0  0  0  0  0  0
    0.4200    0.9040   -0.4510 C   0  0  0  0  0  2  0  0  0  0  0  0
   -0.6760    0.7350   -3.1790 C   0  0  0  0  0  2  0  0  0  0  0  0
   -1.1820    0.3950   -4.5480 C   0  0  0  0  0  0  0  0  0  0  0  0
   -2.0690    1.1410   -5.3080 C   0  0  0  0  0  3  0  0  0  0  0  0
   -0.8280   -0.7480   -5.3350 C   0  0  0  0  0  0  0  0  0  0  0  0
   -2.2660    0.4930   -6.4990 N   0  0  0  0  0  0  0  0  0  0  0  0
    0.0010   -1.8710   -5.1640 C   0  0  0  0  0  3  0  0  0  0  0  0
   -1.5140   -0.6460   -6.5400 C   0  0  0  0  0  0  0  0  0  0  0  0
    0.0700   -2.7910   -6.2110 C   0  0  0  0  0  3  0  0  0  0  0  0
   -1.4790   -1.4950   -7.5840 N   0  0  0  0  0  0  0  0  0  0  0  0
   -0.6710   -2.5580   -7.3650 C   0  0  0  0  0  3  0  0  0  0  0  0
   -2.8710    0.7880   -7.2530 H   0  0  0  0  0  0  0  0  0  0  0  0
    0.8100    0.6780    3.1970 C   0  0  0  0  0  2  0  0  0  0  0  0
    0.3690   -0.1800    4.2500 O   0  0  0  0  0  0  0  0  0  0  0  0
    1.0770   -0.1550    5.4210 C   0  0  0  0  0  0  0  0  0  0  0  0
    0.5350   -0.9360    6.4480 C   0  0  0  0  0  3  0  0  0  0  0  0
    2.2560    0.5530    5.6540 C   0  0  0  0  0  3  0  0  0  0  0  0
    1.1590   -1.0090    7.6950 C   0  0  0  0  0  3  0  0  0  0  0  0
    2.8820    0.4810    6.9040 C   0  0  0  0  0  3  0  0  0  0  0  0
    2.3340   -0.2970    7.9240 C   0  0  0  0  0  3  0  0  0  0  0  0
  1  2  2  0  0  0  0
  2  3  1  0  0  0  0
  3  8  1  0  0  0  0
  3  4  1  0  0  0  0
  4  5  1  0  0  0  0
  5  6  1  0  0  0  0
  6 20  1  1  0  0  0
  7  6  1  0  0  0  0
  8  7  1  0  0  0  0
  9  2  1  0  0  0  0
 10  9  1  0  0  0  0
 11 10  2  0  0  0  0
 12 14  1  0  0  0  0
 12 10  1  0  0  0  0
 13 11  1  0  0  0  0
 15 13  1  0  0  0  0
 15 12  2  0  0  0  0
 16 14  2  0  0  0  0
 17 18  2  0  0  0  0
 17 15  1  0  0  0  0
 18 16  1  0  0  0  0
 19 13  1  0  0  0  0
 20 21  1  0  0  0  0
 21 22  1  0  0  0  0
 22 24  2  0  0  0  0
 22 23  1  0  0  0  0
 23 25  2  0  0  0  0
 24 26  1  0  0  0  0
 25 27  1  0  0  0  0
 26 27  2  0  0  0  0
M  END
>  <REMARK>
 SMILES O=C(Cc1c[nH]c2ncccc12)N1CCC(COc2ccccc2)CC1
 SMILES IDX 1 1 2 2 13 3 14 4 15 5 16 6 25 7 26 8 3 9 4 10 5 11 12 12
 SMILES IDX 6 13 11 14 7 15 10 16 8 17 9 18 17 20 18 21 19 22 20 23
 SMILES IDX 24 24 21 25 23 26 22 27
 H PARENT 6 19

>  <TORSDO>
F 5

$$$$
