/home/pchatterjee/Documents/git/vs_workflow/DiffDock/diffdock_run/pdbqt_scrubbed/Z1440380604.pdbqt
 OpenBabel10272516423D

 27 30  0  0  1  0  0  0  0  0999 V2000
    1.6320   -0.9750    0.4560 O   0  0  0  0  0  0  0  0  0  0  0  0
    0.8370   -0.1050    0.1100 C   0  0  0  0  0  0  0  0  0  0  0  0
    0.2700    0.7520    1.0200 N   0  0  0  0  0  0  0  0  0  0  0  0
    0.0400    1.6650    0.6650 H   0  0  0  0  0  0  0  0  0  0  0  0
    0.4380    0.0810   -1.2060 N   0  0  0  0  0  0  0  0  0  0  0  0
    1.0250   -0.7990   -2.2200 C   0  0  0  0  0  2  0  0  0  0  0  0
    0.0930   -1.9100   -2.6500 C   0  0  0  0  0  0  0  0  0  0  0  0
   -0.2520   -2.9340   -1.7570 C   0  0  0  0  0  3  0  0  0  0  0  0
   -0.4380   -1.9360   -3.9480 C   0  0  0  0  0  3  0  0  0  0  0  0
   -1.1130   -3.9590   -2.1510 C   0  0  0  0  0  3  0  0  0  0  0  0
   -1.3000   -2.9630   -4.3400 C   0  0  0  0  0  3  0  0  0  0  0  0
   -1.6370   -3.9730   -3.4420 C   0  0  0  0  0  3  0  0  0  0  0  0
   -0.6360    0.9820   -1.6370 C   0  0  0  0  0  2  0  0  0  0  0  0
   -0.0110    2.3230   -1.9910 C   0  0  0  0  0  3  0  0  0  0  0  0
    0.6590    2.4780   -3.3850 C   0  0  0  0  0  2  0  0  0  0  0  0
   -1.0220    3.4020   -2.4690 C   0  0  0  0  0  2  0  0  0  0  0  0
    0.0760    3.9040   -3.4280 C   0  0  0  0  0  2  0  0  0  0  0  0
    0.6400    0.6950    2.4340 C   0  0  2  0  0  3  0  0  0  0  0  0
   -0.4430    1.4100    3.2820 C   0  0  0  0  0  2  0  0  0  0  0  0
    2.0590    1.2880    2.6740 C   0  0  0  0  0  2  0  0  0  0  0  0
   -0.1660    1.3130    4.7950 C   0  0  0  0  0  2  0  0  0  0  0  0
    2.2810    1.5660    4.1160 C   0  0  0  0  0  0  0  0  0  0  0  0
    1.2670    1.5890    5.0450 C   0  0  0  0  0  0  0  0  0  0  0  0
    3.4380    1.8670    4.8520 C   0  0  0  0  0  3  0  0  0  0  0  0
    1.8430    1.8820    6.2430 N   0  0  0  0  0  0  0  0  0  0  0  0
    3.1740    2.0660    6.1490 N   0  0  0  0  0  0  0  0  0  0  0  0
    1.4070    1.9710    7.1550 H   0  0  0  0  0  0  0  0  0  0  0  0
  2  1  2  0  0  0  0
  2  3  1  0  0  0  0
  4  3  1  0  0  0  0
  5  2  1  0  0  0  0
  6  5  1  0  0  0  0
  7  6  1  0  0  0  0
  7  8  1  0  0  0  0
  9  7  2  0  0  0  0
 10  8  2  0  0  0  0
 11  9  1  0  0  0  0
 11 12  2  0  0  0  0
 12 10  1  0  0  0  0
 13  5  1  0  0  0  0
 14 13  1  0  0  0  0
 15 14  1  0  0  0  0
 16 14  1  0  0  0  0
 17 15  1  0  0  0  0
 17 16  1  0  0  0  0
 18  3  1  6  0  0  0
 18 20  1  0  0  0  0
 18 19  1  0  0  0  0
 19 21  1  0  0  0  0
 20 22  1  0  0  0  0
 21 23  1  0  0  0  0
 22 24  1  0  0  0  0
 22 23  2  0  0  0  0
 23 25  1  0  0  0  0
 24 26  2  0  0  0  0
 25 27  1  0  0  0  0
 26 25  1  0  0  0  0
M  END
>  <REMARK>
 SMILES O=C(NC1CCc2[nH]ncc2C1)N(Cc1ccccc1)CC1CCC1
 SMILES IDX 1 1 2 2 3 3 13 5 14 6 15 7 16 8 20 9 17 10 19 11 18 12 21 13
 SMILES IDX 22 14 23 15 25 16 24 17 4 18 5 19 12 20 6 21 11 22 7 23
 SMILES IDX 10 24 8 25 9 26
 H PARENT 3 4 8 27

>  <TORSDO>
F 6

$$$$
