/home/pchatterjee/Documents/git/vs_workflow/DiffDock/diffdock_run/pdbqt_scrubbed/Z1462327436.pdbqt
 OpenBabel10272516423D

 25 28  0  0  0  0  0  0  0  0999 V2000
    1.0580    0.6840    0.1270 N   0  0  0  0  0  0  0  0  0  0  0  0
    1.0680    0.0230   -0.6490 H   0  0  0  0  0  0  0  0  0  0  0  0
    0.2030    0.2270    1.1420 C   0  0  0  0  0  0  0  0  0  0  0  0
   -0.5860    0.1300    3.4260 C   0  0  0  0  0  3  0  0  0  0  0  0
    0.3410    0.5710    2.4860 C   0  0  0  0  0  3  0  0  0  0  0  0
   -1.6890   -0.6280    3.0240 C   0  0  0  0  0  3  0  0  0  0  0  0
   -1.9180   -0.9450    1.6780 C   0  0  0  0  0  0  0  0  0  0  0  0
   -0.9440   -0.5030    0.7640 C   0  0  0  0  0  3  0  0  0  0  0  0
   -3.0370   -1.6950    1.3060 N   0  0  0  0  0  0  0  0  0  0  0  0
   -4.3430   -1.3130    1.8730 C   0  0  0  0  0  2  0  0  0  0  0  0
   -3.1340   -2.3030   -0.0280 C   0  0  0  0  0  2  0  0  0  0  0  0
   -5.0490   -0.3250    0.9410 C   0  0  0  0  0  2  0  0  0  0  0  0
   -3.8330   -1.3590   -1.0100 C   0  0  0  0  0  2  0  0  0  0  0  0
   -5.1860   -0.8990   -0.4690 C   0  0  0  0  0  2  0  0  0  0  0  0
    2.4180    1.1000    0.4680 C   0  0  0  0  0  2  0  0  0  0  0  0
    3.1190    1.5900   -0.7770 C   0  0  0  0  0  0  0  0  0  0  0  0
    4.4830    1.3200   -0.9990 C   0  0  0  0  0  3  0  0  0  0  0  0
    2.4980    2.3950   -1.7500 C   0  0  0  0  0  0  0  0  0  0  0  0
    5.1580    1.8040   -2.1240 C   0  0  0  0  0  3  0  0  0  0  0  0
    1.2060    2.8520   -1.8430 N   0  0  0  0  0  0  0  0  0  0  0  0
    3.1420    2.8910   -2.8750 C   0  0  0  0  0  0  0  0  0  0  0  0
    4.4990    2.5920   -3.0740 C   0  0  0  0  0  3  0  0  0  0  0  0
    0.9650    3.6050   -2.9330 N   0  0  0  0  0  0  0  0  0  0  0  0
    2.1470    3.6270   -3.5570 C   0  0  0  0  0  3  0  0  0  0  0  0
    0.4490    2.6540   -1.1940 H   0  0  0  0  0  0  0  0  0  0  0  0
  1 15  1  0  0  0  0
  1  3  1  0  0  0  0
  2  1  1  0  0  0  0
  3  5  1  0  0  0  0
  5  4  2  0  0  0  0
  6  4  1  0  0  0  0
  7  6  2  0  0  0  0
  8  3  2  0  0  0  0
  8  7  1  0  0  0  0
  9  7  1  0  0  0  0
  9 10  1  0  0  0  0
 11  9  1  0  0  0  0
 12 10  1  0  0  0  0
 13 14  1  0  0  0  0
 13 11  1  0  0  0  0
 14 12  1  0  0  0  0
 16 15  1  0  0  0  0
 17 16  1  0  0  0  0
 18 16  2  0  0  0  0
 19 17  2  0  0  0  0
 20 18  1  0  0  0  0
 20 25  1  0  0  0  0
 21 18  1  0  0  0  0
 22 21  2  0  0  0  0
 22 19  1  0  0  0  0
 23 20  1  0  0  0  0
 24 23  2  0  0  0  0
 24 21  1  0  0  0  0
M  END
>  <REMARK>
 SMILES c1cc(NCc2cccc3cn[nH]c23)cc(N2CCCCC2)c1
 SMILES IDX 4 1 3 3 1 4 2 5 23 6 16 7 15 8 17 9 18 10 22 11 19 12 21 13
 SMILES IDX 20 14 5 15 6 16 7 17 14 18 8 19 13 20 10 21 9 22 12 23 11 24
 H PARENT 4 2 13 25

>  <TORSDO>
F 4

$$$$
