/home/pchatterjee/Documents/git/vs_workflow/DiffDock/diffdock_run/pdbqt_scrubbed/Z1463055422.pdbqt
 OpenBabel10272516423D

 26 28  0  0  0  0  0  0  0  0999 V2000
    1.4870    0.7360    1.8560 C   0  0  0  0  0  0  0  0  0  0  0  0
    2.0030    1.2590    3.0540 C   0  0  0  0  0  3  0  0  0  0  0  0
    3.1830    2.0080    3.0590 C   0  0  0  0  0  3  0  0  0  0  0  0
    3.8570    2.2520    1.8650 C   0  0  0  0  0  3  0  0  0  0  0  0
    3.3620    1.7340    0.6690 C   0  0  0  0  0  3  0  0  0  0  0  0
    2.1970    0.9580    0.6660 C   0  0  0  0  0  0  0  0  0  0  0  0
    0.2050   -0.0320    1.9450 C   0  0  0  0  0  0  0  0  0  0  0  0
   -0.5050   -0.1990    0.7730 N   0  0  0  0  0  0  0  0  0  0  0  0
   -0.1840    0.4060    0.0210 H   0  0  0  0  0  0  0  0  0  0  0  0
   -0.1680   -0.4530    3.0350 O   0  0  0  0  0  0  0  0  0  0  0  0
   -1.9460   -0.5570    0.7100 C   0  0  0  0  0  0  0  0  0  0  0  0
   -2.2480   -0.9470   -0.7570 C   0  0  0  0  0  2  0  0  0  0  0  0
   -2.3130   -1.7000    1.6740 C   0  0  0  0  0  2  0  0  0  0  0  0
   -3.3300   -2.0050   -0.9020 C   0  0  0  0  0  2  0  0  0  0  0  0
   -3.6520   -2.3750    1.3890 C   0  0  0  0  0  2  0  0  0  0  0  0
   -4.2500   -1.9160    0.1770 O   0  0  0  0  0  0  0  0  0  0  0  0
   -2.7250    0.7620    1.0360 C   0  0  0  0  0  0  0  0  0  0  0  0
   -4.0820    0.6790    1.1560 N   0  0  0  0  0  0  0  0  0  0  0  0
   -4.5850   -0.1180    0.7740 H   0  0  0  0  0  0  0  0  0  0  0  0
   -4.5820    1.5540    1.2380 H   0  0  0  0  0  0  0  0  0  0  0  0
   -2.1920    1.8700    1.1080 O   0  0  0  0  0  0  0  0  0  0  0  0
    1.7400    0.4630   -0.5310 O   0  0  0  0  0  0  0  0  0  0  0  0
    2.5770   -0.6120   -0.9830 C   0  0  0  0  0  2  0  0  0  0  0  0
    1.8310   -1.3630   -2.0440 C   0  0  0  0  0  3  0  0  0  0  0  0
    2.5700   -2.0390   -3.1700 C   0  0  0  0  0  2  0  0  0  0  0  0
    1.7340   -0.8180   -3.4450 C   0  0  0  0  0  2  0  0  0  0  0  0
  1  7  1  0  0  0  0
  1  2  1  0  0  0  0
  2  3  2  0  0  0  0
  4  3  1  0  0  0  0
  5  4  2  0  0  0  0
  6  5  1  0  0  0  0
  6  1  2  0  0  0  0
  7 10  2  0  0  0  0
  8  7  1  0  0  0  0
  9  8  1  0  0  0  0
 11  8  1  0  0  0  0
 11 17  1  0  0  0  0
 11 13  1  0  0  0  0
 12 11  1  0  0  0  0
 14 12  1  0  0  0  0
 14 16  1  0  0  0  0
 15 13  1  0  0  0  0
 16 15  1  0  0  0  0
 17 21  2  0  0  0  0
 17 18  1  0  0  0  0
 18 20  1  0  0  0  0
 19 18  1  0  0  0  0
 22  6  1  0  0  0  0
 23 22  1  0  0  0  0
 24 23  1  0  0  0  0
 25 24  1  0  0  0  0
 26 25  1  0  0  0  0
 26 24  1  0  0  0  0
M  END
>  <REMARK>
 SMILES NC(=O)C1(NC(=O)c2ccccc2OCC2CC2)CCOCC1
 SMILES IDX 8 1 9 2 10 3 11 4 12 5 13 6 6 7 5 8 7 10 4 11 19 12 23 13
 SMILES IDX 20 14 22 15 21 16 2 17 1 18 3 21 14 22 15 23 16 24 17 25
 SMILES IDX 18 26
 H PARENT 5 9 1 19 1 20

>  <TORSDO>
F 6

$$$$
