/home/pchatterjee/Documents/git/vs_workflow/DiffDock/diffdock_run/pdbqt_scrubbed/Z1480672898.pdbqt
 OpenBabel10272516423D

 26 29  0  0  0  0  0  0  0  0999 V2000
   -1.8300    1.6550    1.7490 C   0  0  0  0  0  2  0  0  0  0  0  0
   -0.3120    1.4680    1.8510 C   0  0  0  0  0  2  0  0  0  0  0  0
    0.4260    1.6470    0.5200 C   0  0  0  0  0  0  0  0  0  0  0  0
   -0.1780    2.0050   -0.4950 O   0  0  0  0  0  0  0  0  0  0  0  0
    1.7860    1.3900    0.5660 N   0  0  0  0  0  0  0  0  0  0  0  0
    2.5280    0.8770    1.7310 C   0  0  0  0  0  3  0  0  0  0  0  0
    2.6870    1.5170   -0.5100 C   0  0  0  0  0  0  0  0  0  0  0  0
    4.0000    0.7340    1.3260 C   0  0  0  0  0  3  0  0  0  0  0  0
    2.4510    1.9490   -1.8040 C   0  0  0  0  0  3  0  0  0  0  0  0
    3.9690    1.1360   -0.1120 C   0  0  0  0  0  0  0  0  0  0  0  0
    3.5220    1.9860   -2.7040 C   0  0  0  0  0  3  0  0  0  0  0  0
    5.0390    1.1680   -0.9940 C   0  0  0  0  0  3  0  0  0  0  0  0
    4.8070    1.5950   -2.3020 C   0  0  0  0  0  3  0  0  0  0  0  0
   -2.5690    0.4240    1.2040 C   0  0  0  0  0  2  0  0  0  0  0  0
   -2.0040    0.0280   -0.0690 N   0  0  0  0  0  0  0  0  0  0  0  0
   -1.6560    0.8000   -0.6390 H   0  0  0  0  0  0  0  0  0  0  0  0
   -2.6440   -0.9600   -0.7920 C   0  0  0  0  0  0  0  0  0  0  0  0
   -3.5860   -1.7560   -0.2470 N   0  0  0  0  0  0  0  0  0  0  0  0
   -2.3270   -1.2010   -2.1150 C   0  0  0  0  0  0  0  0  0  0  0  0
   -4.1610   -2.7020   -1.0210 C   0  0  0  0  0  3  0  0  0  0  0  0
   -1.4280   -0.6610   -2.9940 N   0  0  0  0  0  0  0  0  0  0  0  0
   -2.9660   -2.1940   -2.8320 C   0  0  0  0  0  0  0  0  0  0  0  0
   -3.9200   -2.9840   -2.3090 N   0  0  0  0  0  0  0  0  0  0  0  0
   -1.5670   -1.3230   -4.1820 C   0  0  0  0  0  3  0  0  0  0  0  0
   -2.4930   -2.2550   -4.1170 N   0  0  0  0  0  0  0  0  0  0  0  0
   -0.7720    0.0800   -2.7870 H   0  0  0  0  0  0  0  0  0  0  0  0
  1  2  1  0  0  0  0
  3  5  1  0  0  0  0
  3  2  1  0  0  0  0
  4  3  2  0  0  0  0
  5  6  1  0  0  0  0
  7 10  1  0  0  0  0
  7  5  1  0  0  0  0
  8  6  2  0  0  0  0
  9  7  2  0  0  0  0
 10  8  1  0  0  0  0
 11 13  2  0  0  0  0
 11  9  1  0  0  0  0
 12 10  2  0  0  0  0
 13 12  1  0  0  0  0
 14  1  1  0  0  0  0
 15 14  1  0  0  0  0
 16 15  1  0  0  0  0
 17 18  1  0  0  0  0
 17 15  1  0  0  0  0
 19 17  2  0  0  0  0
 20 18  2  0  0  0  0
 21 26  1  0  0  0  0
 21 19  1  0  0  0  0
 22 23  2  0  0  0  0
 22 19  1  0  0  0  0
 23 20  1  0  0  0  0
 24 25  2  0  0  0  0
 24 21  1  0  0  0  0
 25 22  1  0  0  0  0
M  END
>  <REMARK>
 SMILES O=C(CCCNc1ncnc2nc[nH]c12)N1CCc2ccccc21
 SMILES IDX 4 1 3 2 2 3 1 4 16 5 17 6 24 7 18 8 23 9 19 10 22 11 20 12
 SMILES IDX 21 13 5 14 6 15 7 17 8 18 15 19 9 20 14 21 11 22 10 23 13 24
 SMILES IDX 12 25
 H PARENT 6 16 14 26

>  <TORSDO>
F 6

$$$$
