/home/pchatterjee/Documents/git/vs_workflow/DiffDock/diffdock_run/pdbqt_scrubbed/Z1514091612.pdbqt
 OpenBabel10272516423D

 26 29  0  0  1  0  0  0  0  0999 V2000
   -1.3560   -0.8590    1.5650 C   0  0  0  0  0  2  0  0  0  0  0  0
   -0.5210   -0.8920    2.8300 C   0  0  0  0  0  0  0  0  0  0  0  0
   -0.6150    0.1190    3.7980 C   0  0  0  0  0  0  0  0  0  0  0  0
    0.1440    0.0670    4.9690 C   0  0  0  0  0  3  0  0  0  0  0  0
    1.0370   -0.9830    5.1740 C   0  0  0  0  0  3  0  0  0  0  0  0
    0.3800   -1.9450    3.0550 C   0  0  0  0  0  3  0  0  0  0  0  0
    1.1560   -1.9880    4.2160 C   0  0  0  0  0  3  0  0  0  0  0  0
   -1.5250    1.1330    3.6370 O   0  0  0  0  0  0  0  0  0  0  0  0
   -0.8620    2.3410    3.2660 C   0  0  0  0  0  1  0  0  0  0  0  0
   -0.8150    0.1030    0.5910 N   0  0  0  0  0  0  0  0  0  0  0  0
    0.4640   -0.2470   -0.0640 C   0  0  0  0  0  2  0  0  0  0  0  0
    0.3960   -1.4660   -1.0070 C   0  0  1  0  0  3  0  0  0  0  0  0
    1.5480   -1.4890   -2.0030 C   0  0  0  0  0  2  0  0  0  0  0  0
    0.5090   -2.7090   -0.2790 O   0  0  0  0  0  0  0  0  0  0  0  0
    1.6030   -2.9500   -2.3700 C   0  0  0  0  0  2  0  0  0  0  0  0
    1.3150   -3.6170   -1.0430 C   0  0  0  0  0  2  0  0  0  0  0  0
   -1.7820    0.5670   -0.3170 C   0  0  0  0  0  0  0  0  0  0  0  0
   -2.8770   -0.1880   -0.6010 N   0  0  0  0  0  0  0  0  0  0  0  0
   -1.6780    1.8180   -0.9620 C   0  0  0  0  0  0  0  0  0  0  0  0
   -3.7850    0.2730   -1.4820 C   0  0  0  0  0  3  0  0  0  0  0  0
   -0.7740    2.9210   -0.9430 C   0  0  0  0  0  3  0  0  0  0  0  0
   -2.6890    2.1580   -1.8480 C   0  0  0  0  0  0  0  0  0  0  0  0
   -3.7690    1.4300   -2.1640 N   0  0  0  0  0  0  0  0  0  0  0  0
   -1.2480    3.8740   -1.8210 C   0  0  0  0  0  3  0  0  0  0  0  0
   -2.4120    3.3950   -2.3640 N   0  0  0  0  0  0  0  0  0  0  0  0
   -3.0030    3.8670   -3.0320 H   0  0  0  0  0  0  0  0  0  0  0  0
  1  2  1  0  0  0  0
  2  6  2  0  0  0  0
  2  3  1  0  0  0  0
  3  4  2  0  0  0  0
  4  5  1  0  0  0  0
  6  7  1  0  0  0  0
  7  5  2  0  0  0  0
  8  3  1  0  0  0  0
  9  8  1  0  0  0  0
 10  1  1  0  0  0  0
 11 10  1  0  0  0  0
 12 14  1  0  0  0  0
 12 11  1  1  0  0  0
 13 12  1  0  0  0  0
 15 13  1  0  0  0  0
 15 16  1  0  0  0  0
 16 14  1  0  0  0  0
 17 10  1  0  0  0  0
 18 17  1  0  0  0  0
 19 21  1  0  0  0  0
 19 17  2  0  0  0  0
 20 18  2  0  0  0  0
 22 19  1  0  0  0  0
 23 22  2  0  0  0  0
 23 20  1  0  0  0  0
 24 21  2  0  0  0  0
 25 22  1  0  0  0  0
 25 24  1  0  0  0  0
 26 25  1  0  0  0  0
M  END
>  <REMARK>
 SMILES COc1ccccc1CN(CC1CCCO1)c1ncnc2[nH]ccc12
 SMILES IDX 9 1 8 2 3 3 4 4 5 5 7 6 6 7 2 8 1 9 10 10 11 11 12 12 13 13
 SMILES IDX 16 14 14 15 15 16 17 17 18 18 25 19 19 20 24 21 21 22 20 23
 SMILES IDX 23 24 22 25
 H PARENT 22 26

>  <TORSDO>
F 6

$$$$
