/home/pchatterjee/Documents/git/vs_workflow/DiffDock/diffdock_run/pdbqt_scrubbed/Z1511480964.pdbqt
 OpenBabel10272516423D

 23 25  0  0  1  0  0  0  0  0999 V2000
   -0.5730   -2.1180    1.7530 N   0  0  0  0  0  4  0  0  0  0  0  0
   -0.3130   -0.6350    1.8350 C   0  0  0  0  0  2  0  0  0  0  0  0
   -1.6310    0.1180    1.9690 C   0  0  0  0  0  2  0  0  0  0  0  0
   -2.8670   -0.7090    1.6250 C   0  0  0  0  0  2  0  0  0  0  0  0
   -2.6770   -1.6700    0.4410 C   0  0  2  0  0  3  0  0  0  0  0  0
   -1.3590   -2.4620    0.5100 C   0  0  0  0  0  2  0  0  0  0  0  0
   -1.1300   -2.3830    2.5720 H   0  0  0  0  0  0  0  0  0  0  0  0
    0.7180   -2.9350    1.8670 C   0  0  0  0  0  2  0  0  0  0  0  0
    1.7530   -2.7000    0.8200 C   0  0  0  0  0  0  0  0  0  0  0  0
    3.2730   -1.7640   -0.2650 C   0  0  0  0  0  0  0  0  0  0  0  0
    2.5950   -1.6180    0.8540 N   0  0  0  0  0  0  0  0  0  0  0  0
    2.8870   -2.8550   -0.9910 O   0  0  0  0  0  0  0  0  0  0  0  0
    1.8590   -3.4700   -0.2690 N   0  0  0  0  0  0  0  0  0  0  0  0
    4.3510   -0.9360   -0.8360 C   0  0  0  0  0  1  0  0  0  0  0  0
   -2.8140   -0.9510   -0.9160 C   0  0  0  0  0  2  0  0  0  0  0  0
   -1.6950   -0.0880   -1.1060 O   0  0  0  0  0  0  0  0  0  0  0  0
   -1.5800    0.5360   -2.3230 C   0  0  0  0  0  0  0  0  0  0  0  0
   -2.6070    0.6130   -3.2700 C   0  0  0  0  0  3  0  0  0  0  0  0
   -0.3490    1.1500   -2.6130 C   0  0  0  0  0  0  0  0  0  0  0  0
   -2.4040    1.2810   -4.4830 C   0  0  0  0  0  3  0  0  0  0  0  0
   -0.1490    1.8170   -3.8240 C   0  0  0  0  0  3  0  0  0  0  0  0
   -1.1790    1.8820   -4.7600 C   0  0  0  0  0  3  0  0  0  0  0  0
    0.9690    1.0910   -1.4950 Cl  0  0  0  0  0  0  0  0  0  0  0  0
  1  2  1  0  0  0  0
  1  8  1  0  0  0  0
  1  7  1  0  0  0  0
  2  3  1  0  0  0  0
  4  3  1  0  0  0  0
  5 15  1  6  0  0  0
  5  6  1  0  0  0  0
  5  4  1  0  0  0  0
  6  1  1  0  0  0  0
  9 11  1  0  0  0  0
  9  8  1  0  0  0  0
 10 11  2  0  0  0  0
 12 13  1  0  0  0  0
 12 10  1  0  0  0  0
 13  9  2  0  0  0  0
 14 10  1  0  0  0  0
 16 15  1  0  0  0  0
 17 16  1  0  0  0  0
 18 17  2  0  0  0  0
 19 17  1  0  0  0  0
 19 23  1  0  0  0  0
 20 18  1  0  0  0  0
 21 19  2  0  0  0  0
 22 20  2  0  0  0  0
 22 21  1  0  0  0  0
M  END
>  <REMARK>
 SMILES Cc1nc(C[NH+]2CCCC(COc3ccccc3Cl)C2)no1
 SMILES IDX 6 1 7 2 8 3 9 4 10 5 20 6 5 8 4 9 2 10 3 11 22 12 21 13 1 14
 SMILES IDX 11 15 12 16 13 17 14 18 18 19 15 20 17 21 16 22 19 23
 H PARENT 6 7

>  <TORSDO>
F 5

$$$$
