/home/pchatterjee/Documents/git/vs_workflow/DiffDock/diffdock_run/pdbqt_scrubbed/Z1526896036.pdbqt
 OpenBabel10272516423D

 27 29  0  0  1  0  0  0  0  0999 V2000
    1.7840   -0.9360   -0.3250 C   0  0  0  0  0  0  0  0  0  0  0  0
    3.1650   -0.8810   -0.0950 C   0  0  0  0  0  3  0  0  0  0  0  0
    3.7140    0.0690    0.7640 C   0  0  0  0  0  3  0  0  0  0  0  0
    2.8830    0.9810    1.4110 C   0  0  0  0  0  3  0  0  0  0  0  0
    1.4940    0.9640    1.2210 C   0  0  0  0  0  0  0  0  0  0  0  0
    0.9730   -0.0070    0.3440 C   0  0  0  0  0  3  0  0  0  0  0  0
    1.2930   -1.9190   -1.1920 N   0  0  0  0  0  0  0  0  0  0  0  0
    1.9710   -2.5190   -1.6380 H   0  0  0  0  0  0  0  0  0  0  0  0
    0.0270   -2.2610   -1.6610 C   0  0  0  0  0  0  0  0  0  0  0  0
   -1.1830   -3.6730   -3.0260 C   0  0  0  0  0  0  0  0  0  0  0  0
   -2.3630   -3.0550   -2.6760 C   0  0  0  0  0  3  0  0  0  0  0  0
    0.0100   -3.2850   -2.5310 N   0  0  0  0  0  0  0  0  0  0  0  0
   -2.2610   -2.0130   -1.7800 C   0  0  0  0  0  0  0  0  0  0  0  0
   -1.0800   -1.6140   -1.2690 N   0  0  0  0  0  0  0  0  0  0  0  0
   -1.1850   -4.8070   -4.0060 C   0  0  0  0  0  1  0  0  0  0  0  0
   -3.4860   -1.2770   -1.3300 C   0  0  0  0  0  1  0  0  0  0  0  0
    0.6930    1.9130    1.8950 N   0  0  0  0  0  0  0  0  0  0  0  0
    0.7840    1.7680    3.3660 C   0  0  0  0  0  2  0  0  0  0  0  0
   -0.6700    2.1300    1.3900 C   0  0  0  0  0  2  0  0  0  0  0  0
   -0.2730    2.6160    4.0800 C   0  0  0  0  0  2  0  0  0  0  0  0
   -1.1950    3.4830    1.8850 C   0  0  0  0  0  2  0  0  0  0  0  0
   -0.6860    3.8550    3.2860 C   0  0  2  0  0  3  0  0  0  0  0  0
    0.4470    4.8760    3.2450 C   0  0  0  0  0  0  0  0  0  0  0  0
    1.4460    4.6480    2.3500 N   0  0  0  0  0  0  0  0  0  0  0  0
    0.4960    5.8380    4.0060 O   0  0  0  0  0  0  0  0  0  0  0  0
    2.2500    5.2590    2.3550 H   0  0  0  0  0  0  0  0  0  0  0  0
    1.5040    3.7580    1.8540 H   0  0  0  0  0  0  0  0  0  0  0  0
  1  2  2  0  0  0  0
  1  6  1  0  0  0  0
  2  3  1  0  0  0  0
  3  4  2  0  0  0  0
  5  4  1  0  0  0  0
  5 17  1  0  0  0  0
  6  5  2  0  0  0  0
  7  1  1  0  0  0  0
  8  7  1  0  0  0  0
  9 14  1  0  0  0  0
  9  7  1  0  0  0  0
 10 11  2  0  0  0  0
 10 12  1  0  0  0  0
 11 13  1  0  0  0  0
 12  9  2  0  0  0  0
 13 16  1  0  0  0  0
 13 14  2  0  0  0  0
 15 10  1  0  0  0  0
 17 18  1  0  0  0  0
 18 20  1  0  0  0  0
 19 21  1  0  0  0  0
 19 17  1  0  0  0  0
 21 22  1  0  0  0  0
 22 23  1  6  0  0  0
 22 20  1  0  0  0  0
 23 25  2  0  0  0  0
 24 26  1  0  0  0  0
 24 23  1  0  0  0  0
 27 24  1  0  0  0  0
M  END
>  <REMARK>
 SMILES Cc1cc(C)nc(Nc2cccc(N3CCC(C(N)=O)CC3)c2)n1
 SMILES IDX 9 1 10 2 11 3 12 4 13 5 23 6 8 7 7 9 2 10 3 11 24 12 4 13
 SMILES IDX 6 14 1 15 5 16 14 17 15 18 22 19 16 20 21 21 17 22 18 23
 SMILES IDX 19 24 20 25
 H PARENT 8 8 19 26 19 27

>  <TORSDO>
F 4

$$$$
