/home/pchatterjee/Documents/git/vs_workflow/DiffDock/diffdock_run/pdbqt_scrubbed/Z1532981033.pdbqt
 OpenBabel10272516423D

 25 24  0  0  1  0  0  0  0  0999 V2000
    0.4850    0.0620    1.2850 C   0  0  0  0  0  0  0  0  0  0  0  0
    0.3040    0.4320    2.5650 N   0  0  0  0  0  0  0  0  0  0  0  0
   -0.2920   -0.4490    3.3890 C   0  0  0  0  0  3  0  0  0  0  0  0
   -0.7180   -1.6860    2.9900 C   0  0  0  0  0  3  0  0  0  0  0  0
   -0.4850   -1.9770    1.6710 C   0  0  0  0  0  0  0  0  0  0  0  0
    0.1130   -1.1350    0.8140 N   0  0  0  0  0  0  0  0  0  0  0  0
    1.0820    0.9460    0.4290 N   0  0  0  0  0  0  0  0  0  0  0  0
    1.2900    2.3390    0.7840 C   0  0  1  0  0  3  0  0  0  0  0  0
    2.2540    2.7980   -0.3230 C   0  0  0  0  0  2  0  0  0  0  0  0
    2.0050    1.8510   -1.5090 C   0  0  0  0  0  2  0  0  0  0  0  0
    0.9660    0.8250   -1.0150 C   0  0  0  0  0  2  0  0  0  0  0  0
   -0.0430    3.1210    0.7760 C   0  0  0  0  0  2  0  0  0  0  0  0
   -0.5990    3.4160   -0.5380 N   0  0  0  0  0  2  0  0  0  0  0  0
   -0.8750    2.5640   -1.5590 *   0  0  0  0  0  0  0  0  0  0  0  0
   -1.4910    3.0030   -2.5330 O   0  0  0  0  0 15  0  0  0  0  0  0
   -1.0100    4.3320   -0.6800 H   0  0  0  0  0  0  0  0  0  0  0  0
   -0.4600    1.1120   -1.4940 *   0  0  0  0  0  0  0  0  0  0  0  0
   -0.9140   -3.2190    1.2430 O   0  0  0  0  0  0  0  0  0  0  0  0
   -0.6360   -3.5070   -0.1310 C   0  0  0  0  0  2  0  0  0  0  0  0
   -1.6770   -2.9510   -1.0760 C   0  0  0  0  0  0  0  0  0  0  0  0
   -3.0410   -2.9720   -0.7480 C   0  0  0  0  0  3  0  0  0  0  0  0
   -1.2910   -2.4450   -2.3260 C   0  0  0  0  0  3  0  0  0  0  0  0
   -3.9930   -2.4720   -1.6380 C   0  0  0  0  0  3  0  0  0  0  0  0
   -2.2440   -1.9470   -3.2150 C   0  0  0  0  0  3  0  0  0  0  0  0
   -3.5940   -1.9580   -2.8700 C   0  0  0  0  0  3  0  0  0  0  0  0
  1  2  2  0  0  0  0
  2  3  1  0  0  0  0
  4  3  2  0  0  0  0
  5  4  1  0  0  0  0
  6  1  1  0  0  0  0
  6  5  2  0  0  0  0
  7  8  1  0  0  0  0
  7  1  1  0  0  0  0
  8 12  1  6  0  0  0
  9  8  1  0  0  0  0
 10 11  1  0  0  0  0
 10  9  1  0  0  0  0
 11  7  1  0  0  0  0
 13 12  1  0  0  0  0
 16 13  1  0  0  0  0
 18  5  1  0  0  0  0
 19 18  1  0  0  0  0
 20 21  1  0  0  0  0
 20 19  1  0  0  0  0
 22 20  2  0  0  0  0
 23 21  2  0  0  0  0
 24 25  2  0  0  0  0
 24 22  1  0  0  0  0
 25 23  1  0  0  0  0
M  END
>  <REMARK>
 SMILES O=C1CC2CCC(CN1)N2c1nccc(OCc2ccccc2)n1
 SMILES IDX 11 1 12 2 13 3 14 4 15 5 24 6 10 7 7 8 6 9 5 10 4 11 8 12
 SMILES IDX 9 13 2 14 1 15 3 18 16 20 17 21 18 22 19 23 23 24 20 25
 SMILES IDX 22 26 21 27
 H PARENT 9 16
 Flexibility Score:   44.900

>  <TORSDO>
F 4

$$$$
