/home/pchatterjee/Documents/git/vs_workflow/DiffDock/diffdock_run/pdbqt_scrubbed/Z1546707089.pdbqt
 OpenBabel10272516423D

 28 28  0  0  1  0  0  0  0  0999 V2000
    1.1250    2.4330   -0.7720 C   0  0  0  0  0  2  0  0  0  0  0  0
    0.3170    1.1880   -0.3890 C   0  0  2  0  0  3  0  0  0  0  0  0
   -1.3850   -0.7320    0.4300 N   0  0  0  0  0  0  0  0  0  0  0  0
   -2.1230    0.4480    0.0020 C   0  0  0  0  0  2  0  0  0  0  0  0
   -0.2810   -0.5320    1.3680 C   0  0  0  0  0  2  0  0  0  0  0  0
   -1.1740    1.4220   -0.7110 C   0  0  0  0  0  2  0  0  0  0  0  0
    0.4510    0.7870    1.0850 C   0  0  0  0  0  2  0  0  0  0  0  0
   -2.1690   -1.8540    0.7230 C   0  0  0  0  0  0  0  0  0  0  0  0
   -2.3770   -3.9170    1.7100 C   0  0  2  0  0  3  0  0  0  0  0  0
   -1.6290   -2.8360    1.4590 N   0  0  0  0  0  0  0  0  0  0  0  0
   -3.6870   -4.0640    1.2520 C   0  0  0  0  0  0  0  0  0  0  0  0
   -4.5250   -5.1740    1.5120 C   0  0  0  0  0  3  0  0  0  0  0  0
   -4.1540   -2.9990    0.4840 C   0  0  0  0  0  0  0  0  0  0  0  0
   -3.4110   -1.9210    0.2240 N   0  0  0  0  0  2  0  0  0  0  0  0
   -5.8160   -5.2210    0.9930 C   0  0  0  0  0  3  0  0  0  0  0  0
   -5.4450   -3.0690   -0.0250 C   0  0  0  0  0  3  0  0  0  0  0  0
   -6.2760   -4.1650    0.2180 C   0  0  0  0  0  3  0  0  0  0  0  0
   -1.7590   -4.8980    2.4960 N   0  0  0  0  0  0  0  0  0  0  0  0
   -0.8080   -4.5910    2.6790 H   0  0  0  0  0  0  0  0  0  0  0  0
   -1.7790   -5.8050    2.0390 H   0  0  0  0  0  0  0  0  0  0  0  0
    2.6300    2.2450   -0.6080 N   0  0  0  0  0  4  0  0  0  0  0  0
    2.7720    1.9930    0.3750 H   0  0  0  0  0  0  0  0  0  0  0  0
    3.3500    3.5570   -0.8340 C   0  0  0  0  0  2  0  0  0  0  0  0
    4.7200    3.6250   -0.1460 C   0  0  0  0  0  2  0  0  0  0  0  0
    5.2360    2.3580    0.5350 C   0  0  0  0  0  1  0  0  0  0  0  0
    5.5100    1.1850   -0.4040 *   0  0  0  0  0  0  0  0  0  0  0  0
    3.1570    1.1040   -1.4560 C   0  0  0  0  0  1  0  0  0  0  0  0
    4.6640    1.1270   -1.6700 *   0  0  0  0  0  0  0  0  0  0  0  0
  1 21  1  0  0  0  0
  2  1  1  1  0  0  0
  2  7  1  0  0  0  0
  3  8  1  0  0  0  0
  3  5  1  0  0  0  0
  4  3  1  0  0  0  0
  6  2  1  0  0  0  0
  6  4  1  0  0  0  0
  7  5  1  0  0  0  0
  8 10  2  0  0  0  0
  9 18  1  1  0  0  0
 10  9  1  0  0  0  0
 11 12  1  0  0  0  0
 11  9  1  0  0  0  0
 13 11  2  0  0  0  0
 14 13  1  0  0  0  0
 14  8  1  0  0  0  0
 15 12  2  0  0  0  0
 16 17  2  0  0  0  0
 16 13  1  0  0  0  0
 17 15  1  0  0  0  0
 18 19  1  0  0  0  0
 20 18  1  0  0  0  0
 21 22  1  0  0  0  0
 23 21  1  0  0  0  0
 23 24  1  0  0  0  0
 24 25  1  0  0  0  0
 27 21  1  0  0  0  0
M  END
>  <REMARK>
 SMILES Nc1nc(N2CCC(C[NH+]3CCCCCC3)CC2)nc2ccccc12
 SMILES IDX 9 1 8 2 5 3 6 4 18 5 7 6 17 7 4 8 2 9 3 10 25 11 24 12 20 13
 SMILES IDX 19 14 23 15 21 16 22 17 1 18 10 21 11 23 12 24 13 25 14 26
 SMILES IDX 16 28 15 29
 H PARENT 1 19 1 20 10 22
 Flexibility Score:   40.900

>  <TORSDO>
F 4

$$$$
