/home/pchatterjee/Documents/git/vs_workflow/DiffDock/diffdock_run/pdbqt_scrubbed/Z1568847546.pdbqt
 OpenBabel10272516423D

 28 31  0  0  1  0  0  0  0  0999 V2000
    0.1130    1.5170    0.2090 C   0  0  2  0  0  3  0  0  0  0  0  0
    1.1920    1.9200   -0.8090 C   0  0  0  0  0  2  0  0  0  0  0  0
    1.7550    0.7020   -1.5190 C   0  0  0  0  0  2  0  0  0  0  0  0
    2.4790   -0.1860   -0.5320 N   0  0  0  0  0  4  0  0  0  0  0  0
    1.8680   -0.1870    0.8590 C   0  0  0  0  0  2  0  0  0  0  0  0
    0.3850    0.1150    0.7890 C   0  0  0  0  0  2  0  0  0  0  0  0
    3.4210    0.2100   -0.4020 H   0  0  0  0  0  0  0  0  0  0  0  0
   -1.2200    1.6090   -0.3910 N   0  0  0  0  0  0  0  0  0  0  0  0
   -2.3550    1.3920    0.3850 C   0  0  0  0  0  0  0  0  0  0  0  0
   -2.2970    0.9460    1.5230 O   0  0  0  0  0  0  0  0  0  0  0  0
   -1.3620    2.2970   -1.1240 H   0  0  0  0  0  0  0  0  0  0  0  0
   -3.6440    1.7330   -0.3500 C   0  0  0  0  0  2  0  0  0  0  0  0
   -4.9260    1.7070    0.4850 C   0  0  0  0  0  3  0  0  0  0  0  0
   -5.2750    0.3480    1.1150 C   0  0  0  0  0  2  0  0  0  0  0  0
   -4.9560    2.7230    1.6320 C   0  0  0  0  0  2  0  0  0  0  0  0
   -5.5790    0.6330    2.5840 C   0  0  0  0  0  2  0  0  0  0  0  0
   -5.9290    2.1120    2.6270 C   0  0  0  0  0  2  0  0  0  0  0  0
    2.7050   -1.5790   -1.0960 C   0  0  0  0  0  2  0  0  0  0  0  0
    3.9170   -2.2440   -0.5030 C   0  0  0  0  0  0  0  0  0  0  0  0
    3.7770   -3.2060    0.5210 C   0  0  0  0  0  3  0  0  0  0  0  0
    5.2430   -1.9390   -0.8780 C   0  0  0  0  0  0  0  0  0  0  0  0
    4.8820   -3.7950    1.1390 C   0  0  0  0  0  3  0  0  0  0  0  0
    5.7690   -1.1270   -1.8560 N   0  0  0  0  0  0  0  0  0  0  0  0
    6.3580   -2.5010   -0.2580 C   0  0  0  0  0  0  0  0  0  0  0  0
    6.1810   -3.4430    0.7660 C   0  0  0  0  0  3  0  0  0  0  0  0
    7.1020   -1.0310   -1.8380 N   0  0  0  0  0  0  0  0  0  0  0  0
    7.4680   -1.8990   -0.8920 C   0  0  0  0  0  3  0  0  0  0  0  0
    5.2830   -0.6040   -2.5740 H   0  0  0  0  0  0  0  0  0  0  0  0
  1  8  1  6  0  0  0
  1  6  1  0  0  0  0
  2  1  1  0  0  0  0
  3  2  1  0  0  0  0
  3  4  1  0  0  0  0
  4  7  1  0  0  0  0
  4  5  1  0  0  0  0
  6  5  1  0  0  0  0
  8  9  1  0  0  0  0
  9 10  2  0  0  0  0
 11  8  1  0  0  0  0
 12  9  1  0  0  0  0
 12 13  1  0  0  0  0
 13 14  1  0  0  0  0
 13 15  1  0  0  0  0
 14 16  1  0  0  0  0
 15 17  1  0  0  0  0
 16 17  1  0  0  0  0
 18  4  1  0  0  0  0
 18 19  1  0  0  0  0
 19 20  1  0  0  0  0
 20 22  2  0  0  0  0
 21 19  2  0  0  0  0
 21 24  1  0  0  0  0
 23 26  1  0  0  0  0
 23 21  1  0  0  0  0
 24 25  2  0  0  0  0
 25 22  1  0  0  0  0
 26 27  2  0  0  0  0
 27 24  1  0  0  0  0
 28 23  1  0  0  0  0
M  END
>  <REMARK>
 SMILES O=C(CC1CCCC1)NC1CC[NH+](Cc2cccc3cn[nH]c23)CC1
 SMILES IDX 10 1 11 2 12 3 13 4 24 5 25 6 9 8 2 9 1 10 3 12 4 13 5 14
 SMILES IDX 8 15 6 16 7 17 14 18 15 19 16 20 23 21 17 22 22 23 19 24
 SMILES IDX 18 25 21 26 20 27
 H PARENT 13 7 9 11 22 28

>  <TORSDO>
F 5

$$$$
