/home/pchatterjee/Documents/git/vs_workflow/DiffDock/diffdock_run/pdbqt_scrubbed/Z1567242757.pdbqt
 OpenBabel10272516423D

 25 28  0  0  1  0  0  0  0  0999 V2000
    0.4540    1.5010   -2.1140 N   0  0  0  0  0  4  0  0  0  0  0  0
    1.6480    2.1770   -2.7310 C   0  0  0  0  0  2  0  0  0  0  0  0
    1.4780    3.6970   -2.7660 C   0  0  0  0  0  2  0  0  0  0  0  0
    0.6410    4.2340   -1.6110 C   0  0  0  0  0  2  0  0  0  0  0  0
   -0.7510    3.5930   -1.5500 C   0  0  0  0  0  2  0  0  0  0  0  0
   -0.8430    2.2740   -2.3260 C   0  0  2  0  0  3  0  0  0  0  0  0
    0.3010    0.6240   -2.6410 H   0  0  0  0  0  0  0  0  0  0  0  0
    0.6850    0.9940   -0.6900 C   0  0  0  0  0  2  0  0  0  0  0  0
    1.3850   -0.3090   -0.6850 C   0  0  0  0  0  0  0  0  0  0  0  0
    1.5090   -1.1970    0.3770 N   0  0  0  0  0  0  0  0  0  0  0  0
    2.0870   -2.3190   -0.1190 N   0  0  0  0  0  0  0  0  0  0  0  0
    2.3520   -2.0880   -1.3920 N   0  0  0  0  0  0  0  0  0  0  0  0
    1.9210   -0.8530   -1.7620 N   0  0  0  0  0  0  0  0  0  0  0  0
    1.1490   -1.1150    1.7500 C   0  0  0  0  0  0  0  0  0  0  0  0
    0.4550   -1.0760    4.4750 C   0  0  0  0  0  3  0  0  0  0  0  0
    0.8580   -2.2660    3.8790 C   0  0  0  0  0  3  0  0  0  0  0  0
    0.4100    0.0940    3.7220 C   0  0  0  0  0  3  0  0  0  0  0  0
    1.2070   -2.2870    2.5270 C   0  0  0  0  0  3  0  0  0  0  0  0
    0.7580    0.0810    2.3660 C   0  0  0  0  0  3  0  0  0  0  0  0
   -2.0780    1.4590   -2.0310 C   0  0  0  0  0  0  0  0  0  0  0  0
   -2.0000    0.0950   -1.8710 N   0  0  0  0  0  0  0  0  0  0  0  0
   -3.3080    1.9660   -1.9160 N   0  0  0  0  0  2  0  0  0  0  0  0
   -3.2540   -0.2510   -1.6750 C   0  0  0  0  0  2  0  0  0  0  0  0
   -4.0450    0.8570   -1.7050 N   0  0  0  0  0  0  0  0  0  0  0  0
   -5.0530    0.9320   -1.5940 H   0  0  0  0  0  0  0  0  0  0  0  0
  1  8  1  0  0  0  0
  2  1  1  0  0  0  0
  3  2  1  0  0  0  0
  3  4  1  0  0  0  0
  4  5  1  0  0  0  0
  6  1  1  0  0  0  0
  6 20  1  1  0  0  0
  6  5  1  0  0  0  0
  7  1  1  0  0  0  0
  8  9  1  0  0  0  0
  9 10  1  0  0  0  0
 10 14  1  0  0  0  0
 11 10  1  0  0  0  0
 12 11  2  0  0  0  0
 13 12  1  0  0  0  0
 13  9  2  0  0  0  0
 14 19  2  0  0  0  0
 14 18  1  0  0  0  0
 16 15  1  0  0  0  0
 17 15  2  0  0  0  0
 18 16  2  0  0  0  0
 19 17  1  0  0  0  0
 20 22  1  0  0  0  0
 20 21  2  0  0  0  0
 21 23  1  0  0  0  0
 22 24  1  0  0  0  0
 24 23  1  0  0  0  0
 24 25  1  0  0  0  0
M  END
>  <REMARK>
 SMILES c1ccc(-n2nnnc2C[NH+]2CCCCC2c2nc[nH]n2)cc1
 SMILES IDX 11 1 12 2 13 3 14 4 15 5 16 6 10 8 9 9 5 10 6 11 7 12 8 13
 SMILES IDX 4 14 1 15 2 16 23 17 3 18 22 19 17 20 18 21 21 22 19 23
 SMILES IDX 20 24
 H PARENT 11 7 20 25

>  <TORSDO>
F 4

$$$$
