/home/pchatterjee/Documents/git/vs_workflow/DiffDock/diffdock_run/pdbqt_scrubbed/Z1570962597.pdbqt
 OpenBabel10272516423D

 25 28  0  0  1  0  0  0  0  0999 V2000
   -0.1220    2.4440    0.2160 C   0  0  0  0  0  2  0  0  0  0  0  0
    0.2980    2.1120   -1.2270 C   0  0  2  0  0  3  0  0  0  0  0  0
    1.8220    0.7620   -2.5900 N   0  0  0  0  0  0  0  0  0  0  0  0
    2.7230    1.8490   -2.9670 C   0  0  0  0  0  2  0  0  0  0  0  0
    1.1710    0.8420   -1.2860 C   0  0  0  0  0  2  0  0  0  0  0  0
    2.4740    3.0990   -2.1200 C   0  0  0  0  0  2  0  0  0  0  0  0
    0.9860    3.3280   -1.8890 C   0  0  0  0  0  2  0  0  0  0  0  0
    2.2230   -0.5000   -3.0180 C   0  0  0  0  0  0  0  0  0  0  0  0
    2.9900   -2.9760   -3.8920 C   0  0  0  0  0  3  0  0  0  0  0  0
    2.1450   -2.7980   -2.8290 C   0  0  0  0  0  3  0  0  0  0  0  0
    3.4180   -1.8190   -4.4870 C   0  0  0  0  0  3  0  0  0  0  0  0
    1.7520   -1.5890   -2.3870 N   0  0  0  0  0  0  0  0  0  0  0  0
    3.0530   -0.5900   -4.0750 N   0  0  0  0  0  0  0  0  0  0  0  0
   -1.0580    1.4650    0.7590 N   0  0  0  0  0  0  0  0  0  0  0  0
   -1.8380    1.2370    0.1580 H   0  0  0  0  0  0  0  0  0  0  0  0
   -0.5630    0.4130    1.5110 C   0  0  0  0  0  0  0  0  0  0  0  0
    0.6960    0.4240    1.9990 N   0  0  0  0  0  0  0  0  0  0  0  0
   -1.3190   -0.7070    1.8120 C   0  0  0  0  0  0  0  0  0  0  0  0
    1.1330   -0.6340    2.7150 C   0  0  0  0  0  3  0  0  0  0  0  0
   -2.6030   -1.1000    1.5480 N   0  0  0  0  0  0  0  0  0  0  0  0
   -0.7880   -1.7460    2.5550 C   0  0  0  0  0  0  0  0  0  0  0  0
    0.4670   -1.7490    3.0340 N   0  0  0  0  0  0  0  0  0  0  0  0
   -2.7870   -2.3300    2.1160 C   0  0  0  0  0  3  0  0  0  0  0  0
   -1.7050   -2.7490    2.7320 N   0  0  0  0  0  0  0  0  0  0  0  0
   -3.2950   -0.5710    1.0390 H   0  0  0  0  0  0  0  0  0  0  0  0
  1 14  1  0  0  0  0
  2  1  1  1  0  0  0
  3  5  1  0  0  0  0
  4  3  1  0  0  0  0
  4  6  1  0  0  0  0
  5  2  1  0  0  0  0
  6  7  1  0  0  0  0
  7  2  1  0  0  0  0
  8  3  1  0  0  0  0
  8 12  2  0  0  0  0
  9 10  2  0  0  0  0
 10 12  1  0  0  0  0
 11 13  2  0  0  0  0
 11  9  1  0  0  0  0
 13  8  1  0  0  0  0
 14 16  1  0  0  0  0
 15 14  1  0  0  0  0
 16 18  2  0  0  0  0
 16 17  1  0  0  0  0
 17 19  2  0  0  0  0
 18 21  1  0  0  0  0
 19 22  1  0  0  0  0
 20 18  1  0  0  0  0
 20 23  1  0  0  0  0
 21 24  1  0  0  0  0
 21 22  2  0  0  0  0
 23 24  2  0  0  0  0
 25 20  1  0  0  0  0
M  END
>  <REMARK>
 SMILES c1cnc(N2CCCC(CNc3ncnc4nc[nH]c34)C2)nc1
 SMILES IDX 10 1 9 2 5 3 6 4 21 5 7 6 8 7 4 8 1 9 2 10 23 11 3 12 22 13
 SMILES IDX 11 14 12 16 13 17 20 18 14 19 19 20 16 21 15 22 18 23 17 24
 H PARENT 11 15 19 25

>  <TORSDO>
F 4

$$$$
