/home/pchatterjee/Documents/git/vs_workflow/DiffDock/diffdock_run/pdbqt_scrubbed/Z1576583090.pdbqt
 OpenBabel10272516423D

 26 29  0  0  0  0  0  0  0  0999 V2000
   -1.9770    1.8560    0.7050 C   0  0  0  0  0  0  0  0  0  0  0  0
   -3.1110    2.5570    0.2710 C   0  0  0  0  0  3  0  0  0  0  0  0
   -3.9240    2.0430   -0.7380 C   0  0  0  0  0  3  0  0  0  0  0  0
   -3.6080    0.8190   -1.3240 C   0  0  0  0  0  3  0  0  0  0  0  0
   -2.4810    0.1040   -0.9140 C   0  0  0  0  0  0  0  0  0  0  0  0
   -1.6690    0.6290    0.0950 C   0  0  0  0  0  3  0  0  0  0  0  0
   -1.2010    2.4240    1.7410 N   0  0  0  0  0  0  0  0  0  0  0  0
    2.9870    2.0280    3.9160 N   0  0  0  0  0  0  0  0  0  0  0  0
    3.5960    1.0810    4.6750 N   0  0  0  0  0  0  0  0  0  0  0  0
    1.7330    1.6650    3.5120 C   0  0  0  0  0  0  0  0  0  0  0  0
    2.6860    0.1000    4.7490 C   0  0  0  0  0  3  0  0  0  0  0  0
    0.8810    2.3900    2.7450 N   0  0  0  0  0  0  0  0  0  0  0  0
    1.5210    0.4170    4.0440 C   0  0  0  0  0  0  0  0  0  0  0  0
   -0.2540    1.7850    2.4960 C   0  0  0  0  0  0  0  0  0  0  0  0
    0.2740   -0.2340    3.7930 C   0  0  0  0  0  0  0  0  0  0  0  0
   -0.5640    0.5290    3.0040 N   0  0  0  0  0  0  0  0  0  0  0  0
    3.6840    3.2550    3.6230 C   0  0  0  0  0  1  0  0  0  0  0  0
   -0.0310   -1.3420    4.2170 O   0  0  0  0  0  0  0  0  0  0  0  0
   -1.4780    0.1440    2.8220 H   0  0  0  0  0  0  0  0  0  0  0  0
   -0.9120    3.3680    1.4990 H   0  0  0  0  0  0  0  0  0  0  0  0
   -2.2880   -1.0730   -1.5800 O   0  0  0  0  0  0  0  0  0  0  0  0
   -1.2050   -1.9110   -1.1980 C   0  0  0  0  0  3  0  0  0  0  0  0
   -1.4390   -3.3120   -1.7590 C   0  0  0  0  0  2  0  0  0  0  0  0
    0.1040   -1.5240   -1.8810 C   0  0  0  0  0  2  0  0  0  0  0  0
   -0.0580   -3.9530   -1.7490 C   0  0  0  0  0  2  0  0  0  0  0  0
    0.9380   -2.7990   -1.8540 C   0  0  0  0  0  2  0  0  0  0  0  0
  1  7  1  0  0  0  0
  2  1  1  0  0  0  0
  3  2  2  0  0  0  0
  4  5  2  0  0  0  0
  4  3  1  0  0  0  0
  5  6  1  0  0  0  0
  6  1  2  0  0  0  0
  7 14  1  0  0  0  0
  8  9  1  0  0  0  0
  9 11  2  0  0  0  0
 10  8  1  0  0  0  0
 10 13  2  0  0  0  0
 12 10  1  0  0  0  0
 13 11  1  0  0  0  0
 14 12  2  0  0  0  0
 14 16  1  0  0  0  0
 15 13  1  0  0  0  0
 15 18  2  0  0  0  0
 16 15  1  0  0  0  0
 17  8  1  0  0  0  0
 19 16  1  0  0  0  0
 20  7  1  0  0  0  0
 21 22  1  0  0  0  0
 21  5  1  0  0  0  0
 23 25  1  0  0  0  0
 23 22  1  0  0  0  0
 24 26  1  0  0  0  0
 24 22  1  0  0  0  0
 26 25  1  0  0  0  0
M  END
>  <REMARK>
 SMILES Cn1ncc2c(=O)[nH]c(Nc3cccc(OC4CCCC4)c3)nc21
 SMILES IDX 11 1 12 2 13 3 14 4 15 5 22 6 10 7 2 8 3 9 24 10 4 11 23 12
 SMILES IDX 5 13 9 14 6 15 8 16 1 17 7 18 16 21 17 22 18 23 21 24 19 25
 SMILES IDX 20 26
 H PARENT 8 19 10 20

>  <TORSDO>
F 3

$$$$
