/home/pchatterjee/Documents/git/vs_workflow/DiffDock/diffdock_run/pdbqt_scrubbed/Z1587261323.pdbqt
 OpenBabel10272516423D

 29 32  0  0  1  0  0  0  0  0999 V2000
    1.6080   -1.6860    0.8180 C   0  0  0  0  0  0  0  0  0  0  0  0
    2.0300   -0.8190   -0.0770 N   0  0  0  0  0  0  0  0  0  0  0  0
    3.0640   -0.0480    0.4320 C   0  0  0  0  0  0  0  0  0  0  0  0
    3.4800   -0.4150    1.6910 C   0  0  0  0  0  3  0  0  0  0  0  0
    2.5060   -1.7000    2.2750 S   0  0  0  0  0  0  0  0  0  0  0  0
    0.4540   -2.6170    0.6180 C   0  0  0  0  0  2  0  0  0  0  0  0
   -0.8290   -1.8250    0.3690 C   0  0  0  0  0  0  0  0  0  0  0  0
   -1.8320   -2.6190   -0.1710 N   0  0  0  0  0  0  0  0  0  0  0  0
   -0.9420   -0.6340    0.6450 O   0  0  0  0  0  0  0  0  0  0  0  0
   -1.5840   -3.5720   -0.4240 H   0  0  0  0  0  0  0  0  0  0  0  0
   -3.1660   -2.2530   -0.4620 C   0  0  0  0  0  0  0  0  0  0  0  0
   -3.9720   -3.2290   -1.0740 C   0  0  0  0  0  3  0  0  0  0  0  0
   -3.7240   -1.0040   -0.1670 C   0  0  0  0  0  3  0  0  0  0  0  0
   -5.3000   -2.9550   -1.4030 C   0  0  0  0  0  3  0  0  0  0  0  0
   -5.0510   -0.7310   -0.5010 C   0  0  0  0  0  3  0  0  0  0  0  0
   -5.8410   -1.7030   -1.1180 C   0  0  0  0  0  3  0  0  0  0  0  0
    3.5360    1.1100   -0.3900 C   0  0  0  0  0  2  0  0  0  0  0  0
    2.7400    2.3580   -0.1730 N   0  0  0  0  0  4  0  0  0  0  0  0
    3.1170    3.5380   -1.0120 C   0  0  0  0  0  2  0  0  0  0  0  0
    1.2140    2.1980   -0.2210 C   0  0  2  0  0  3  0  0  0  0  0  0
    1.8460    4.3560   -1.0900 C   0  0  0  0  0  2  0  0  0  0  0  0
    0.7630    3.2950   -1.1800 C   0  0  0  0  0  2  0  0  0  0  0  0
    2.8870    2.6350    0.8110 H   0  0  0  0  0  0  0  0  0  0  0  0
    0.7120    2.4130    1.1700 C   0  0  0  0  0  0  0  0  0  0  0  0
    1.3440    3.1430    2.0780 N   0  0  0  0  0  0  0  0  0  0  0  0
   -0.3790    1.7860    1.7090 N   0  0  0  0  0  0  0  0  0  0  0  0
    0.5830    3.0460    3.2180 C   0  0  0  0  0  3  0  0  0  0  0  0
   -0.4930    2.2110    3.0050 C   0  0  0  0  0  3  0  0  0  0  0  0
   -0.9110    1.0320    1.2800 H   0  0  0  0  0  0  0  0  0  0  0  0
  1  5  1  0  0  0  0
  2  3  1  0  0  0  0
  2  1  2  0  0  0  0
  3  4  2  0  0  0  0
  4  5  1  0  0  0  0
  6  1  1  0  0  0  0
  7  6  1  0  0  0  0
  7  9  2  0  0  0  0
  8  7  1  0  0  0  0
 10  8  1  0  0  0  0
 11  8  1  0  0  0  0
 11 13  1  0  0  0  0
 12 11  2  0  0  0  0
 14 16  2  0  0  0  0
 14 12  1  0  0  0  0
 15 13  2  0  0  0  0
 16 15  1  0  0  0  0
 17 18  1  0  0  0  0
 17  3  1  0  0  0  0
 18 23  1  0  0  0  0
 19 18  1  0  0  0  0
 20 18  1  0  0  0  0
 20 24  1  1  0  0  0
 21 19  1  0  0  0  0
 22 21  1  0  0  0  0
 22 20  1  0  0  0  0
 24 26  1  0  0  0  0
 24 25  2  0  0  0  0
 25 27  1  0  0  0  0
 26 28  1  0  0  0  0
 28 27  2  0  0  0  0
 29 26  1  0  0  0  0
M  END
>  <REMARK>
 SMILES O=C(Cc1nc(C[NH+]2CCCC2c2ncc[nH]2)cs1)Nc1ccccc1
 SMILES IDX 4 1 5 2 6 3 18 4 19 5 3 6 2 7 20 8 1 9 21 11 22 12 26 13
 SMILES IDX 23 14 25 15 24 16 7 17 8 18 9 19 12 20 10 21 11 22 13 24
 SMILES IDX 14 25 17 26 15 27 16 28
 H PARENT 20 10 8 23 17 29

>  <TORSDO>
F 6

$$$$
