/home/pchatterjee/Documents/git/vs_workflow/DiffDock/diffdock_run/pdbqt_scrubbed/Z1587228937.pdbqt
 OpenBabel10272516423D

 27 30  0  0  1  0  0  0  0  0999 V2000
   -1.3340   -1.8350    2.3200 C   0  0  2  0  0  3  0  0  0  0  0  0
    0.0400   -2.5180    2.2360 C   0  0  0  0  0  2  0  0  0  0  0  0
    0.9860   -1.7920    1.2620 C   0  0  0  0  0  2  0  0  0  0  0  0
    0.2300   -1.1600    0.1620 N   0  0  0  0  0  0  0  0  0  0  0  0
   -0.9670   -1.9010   -0.2220 C   0  0  0  0  0  2  0  0  0  0  0  0
   -1.9830   -1.7710    0.9180 C   0  0  0  0  0  2  0  0  0  0  0  0
   -1.1870   -0.4700    3.0030 C   0  0  0  0  0  0  0  0  0  0  0  0
   -2.3280    0.3030    3.0370 N   0  0  0  0  0  0  0  0  0  0  0  0
   -0.1460   -0.1080    3.5480 O   0  0  0  0  0  0  0  0  0  0  0  0
   -3.1430    0.0090    2.5200 H   0  0  0  0  0  0  0  0  0  0  0  0
   -2.2600    1.6920    3.4400 C   0  0  0  0  0  2  0  0  0  0  0  0
   -1.7120    2.5410    2.3280 C   0  0  0  0  0  0  0  0  0  0  0  0
   -2.5250    3.0440    1.3100 C   0  0  0  0  0  3  0  0  0  0  0  0
   -0.3440    2.7840    2.2350 C   0  0  0  0  0  3  0  0  0  0  0  0
   -1.9530    3.7630    0.2640 C   0  0  0  0  0  3  0  0  0  0  0  0
    0.2440    3.4580    1.2180 N   0  0  0  0  0  0  0  0  0  0  0  0
   -0.5790    3.9430    0.2620 C   0  0  0  0  0  3  0  0  0  0  0  0
    1.0820   -0.9260   -0.9270 C   0  0  0  0  0  0  0  0  0  0  0  0
    1.2290   -1.8260   -1.9260 N   0  0  0  0  0  0  0  0  0  0  0  0
    1.8120    0.2430   -1.0450 C   0  0  0  0  0  0  0  0  0  0  0  0
    2.0830   -1.5420   -2.9330 C   0  0  0  0  0  3  0  0  0  0  0  0
    1.9010    1.3910   -0.3080 N   0  0  0  0  0  0  0  0  0  0  0  0
    2.6600    0.4490   -2.1160 C   0  0  0  0  0  0  0  0  0  0  0  0
    2.8330   -0.4470   -3.1030 N   0  0  0  0  0  0  0  0  0  0  0  0
    2.7950    2.2150   -0.9370 C   0  0  0  0  0  3  0  0  0  0  0  0
    3.2750    1.6710   -2.0340 N   0  0  0  0  0  0  0  0  0  0  0  0
    1.3610    1.6190    0.5180 H   0  0  0  0  0  0  0  0  0  0  0  0
  1  7  1  6  0  0  0
  2  1  1  0  0  0  0
  3  2  1  0  0  0  0
  4  3  1  0  0  0  0
  5  4  1  0  0  0  0
  5  6  1  0  0  0  0
  6  1  1  0  0  0  0
  7  8  1  0  0  0  0
  7  9  2  0  0  0  0
  8 11  1  0  0  0  0
 10  8  1  0  0  0  0
 12 11  1  0  0  0  0
 13 12  2  0  0  0  0
 14 12  1  0  0  0  0
 15 13  1  0  0  0  0
 16 14  2  0  0  0  0
 17 15  2  0  0  0  0
 17 16  1  0  0  0  0
 18  4  1  0  0  0  0
 19 18  1  0  0  0  0
 20 18  2  0  0  0  0
 20 22  1  0  0  0  0
 21 19  2  0  0  0  0
 22 27  1  0  0  0  0
 23 26  1  0  0  0  0
 23 20  1  0  0  0  0
 24 21  1  0  0  0  0
 24 23  2  0  0  0  0
 25 22  1  0  0  0  0
 26 25  2  0  0  0  0
M  END
>  <REMARK>
 SMILES O=C(NCc1cccnc1)C1CCN(c2ncnc3nc[nH]c23)CC1
 SMILES IDX 11 1 12 2 13 3 14 4 24 5 25 6 2 7 3 8 1 9 4 11 5 12 6 13
 SMILES IDX 10 14 7 15 9 16 8 17 15 18 16 19 23 20 17 21 22 22 19 23
 SMILES IDX 18 24 21 25 20 26
 H PARENT 3 10 22 27

>  <TORSDO>
F 4

$$$$
