/home/pchatterjee/Documents/git/vs_workflow/DiffDock/diffdock_run/pdbqt_scrubbed/Z1587211729.pdbqt
 OpenBabel10272516423D

 23 25  0  0  0  0  0  0  0  0999 V2000
    1.7470    1.6750   -1.6310 C   0  0  0  0  0  2  0  0  0  0  0  0
    3.0400    1.8040   -0.8480 C   0  0  0  0  0  2  0  0  0  0  0  0
    2.7880    1.8940    0.9060 S   0  0  0  0  0  0  0  0  0  0  0  0
    1.8600    2.9740    1.1840 O   0  0  0  0  0  0  0  0  0  0  0  0
    4.1020    1.8930    1.5270 O   0  0  0  0  0  0  0  0  0  0  0  0
    2.0110    0.3620    1.3680 C   0  0  0  0  0  0  0  0  0  0  0  0
    2.7980   -0.7800    1.5420 C   0  0  0  0  0  3  0  0  0  0  0  0
    0.6330    0.3200    1.5980 C   0  0  0  0  0  3  0  0  0  0  0  0
    2.1940   -1.9800    1.9200 C   0  0  0  0  0  3  0  0  0  0  0  0
    0.0360   -0.8840    1.9720 C   0  0  0  0  0  3  0  0  0  0  0  0
    0.8150   -2.0320    2.1320 C   0  0  0  0  0  3  0  0  0  0  0  0
    1.3100    0.2800   -1.6510 N   0  0  0  0  0  0  0  0  0  0  0  0
    1.9300   -0.3340   -2.1740 H   0  0  0  0  0  0  0  0  0  0  0  0
    0.0030    0.0760   -2.0970 C   0  0  0  0  0  0  0  0  0  0  0  0
   -0.7450    1.0660   -2.6230 N   0  0  0  0  0  0  0  0  0  0  0  0
   -0.5960   -1.1650   -2.0090 C   0  0  0  0  0  0  0  0  0  0  0  0
   -1.9960    0.7790   -3.0450 C   0  0  0  0  0  3  0  0  0  0  0  0
   -0.2170   -2.3710   -1.4870 N   0  0  0  0  0  0  0  0  0  0  0  0
   -1.8830   -1.3690   -2.4650 C   0  0  0  0  0  0  0  0  0  0  0  0
   -2.6320   -0.3980   -3.0150 N   0  0  0  0  0  0  0  0  0  0  0  0
   -1.2540   -3.2430   -1.6720 C   0  0  0  0  0  3  0  0  0  0  0  0
   -2.2740   -2.6670   -2.2700 N   0  0  0  0  0  0  0  0  0  0  0  0
    0.6500   -2.5580   -1.0030 H   0  0  0  0  0  0  0  0  0  0  0  0
  1  2  1  0  0  0  0
  2  3  1  0  0  0  0
  3  4  2  0  0  0  0
  3  6  1  0  0  0  0
  3  5  2  0  0  0  0
  6  7  2  0  0  0  0
  6  8  1  0  0  0  0
  7  9  1  0  0  0  0
  8 10  2  0  0  0  0
  9 11  2  0  0  0  0
 10 11  1  0  0  0  0
 12  1  1  0  0  0  0
 13 12  1  0  0  0  0
 14 16  2  0  0  0  0
 14 12  1  0  0  0  0
 15 14  1  0  0  0  0
 16 18  1  0  0  0  0
 17 20  1  0  0  0  0
 17 15  2  0  0  0  0
 18 23  1  0  0  0  0
 19 22  1  0  0  0  0
 19 16  1  0  0  0  0
 20 19  2  0  0  0  0
 21 18  1  0  0  0  0
 22 21  2  0  0  0  0
M  END
>  <REMARK>
 SMILES O=S(=O)(CCNc1ncnc2nc[nH]c12)c1ccccc1
 SMILES IDX 5 1 4 2 2 3 1 4 3 5 16 6 17 7 21 8 18 9 20 10 19 11 6 12
 SMILES IDX 7 14 8 15 15 16 9 17 14 18 11 19 10 20 13 21 12 22
 H PARENT 6 13 14 23

>  <TORSDO>
F 5

$$$$
