/home/pchatterjee/Documents/git/vs_workflow/DiffDock/diffdock_run/pdbqt_scrubbed/Z1612108812.pdbqt
 OpenBabel10272516423D

 26 29  0  0  1  0  0  0  0  0999 V2000
   -1.6230    0.2740   -0.7190 C   0  0  2  0  0  3  0  0  0  0  0  0
   -1.0560   -1.1480   -0.7790 C   0  0  0  0  0  2  0  0  0  0  0  0
    0.4490   -0.9590   -0.7390 C   0  0  0  0  0  2  0  0  0  0  0  0
    0.6850    0.3810   -1.4110 N   0  0  0  0  0  4  0  0  0  0  0  0
   -0.6680    1.0060   -1.6640 C   0  0  0  0  0  2  0  0  0  0  0  0
    1.1920    0.9460   -0.7130 H   0  0  0  0  0  0  0  0  0  0  0  0
   -1.7430    0.7830    0.7140 C   0  0  0  0  0  0  0  0  0  0  0  0
   -2.7610    0.2470    1.5420 C   0  0  0  0  0  0  0  0  0  0  0  0
   -2.8950    0.6810    2.8640 C   0  0  0  0  0  3  0  0  0  0  0  0
   -2.0360    1.6510    3.3770 C   0  0  0  0  0  3  0  0  0  0  0  0
   -0.8990    1.7700    1.2510 C   0  0  0  0  0  3  0  0  0  0  0  0
   -1.0440    2.1970    2.5720 C   0  0  0  0  0  3  0  0  0  0  0  0
   -3.5660   -0.6960    0.9530 O   0  0  0  0  0  0  0  0  0  0  0  0
   -4.6650   -1.1880    1.7150 C   0  0  0  0  0  1  0  0  0  0  0  0
    1.5980    0.3330   -2.6230 C   0  0  0  0  0  2  0  0  0  0  0  0
    3.0120    0.0880   -2.2470 C   0  0  0  0  0  0  0  0  0  0  0  0
    3.5470    0.1150   -1.0480 N   0  0  0  0  0  0  0  0  0  0  0  0
    3.8870   -0.2080   -3.2410 O   0  0  0  0  0  0  0  0  0  0  0  0
    4.8710   -0.1910   -1.3230 C   0  0  0  0  0  0  0  0  0  0  0  0
    5.1240   -0.3950   -2.6270 N   0  0  0  0  0  0  0  0  0  0  0  0
    5.8730   -0.2780   -0.2410 C   0  0  0  0  0  0  0  0  0  0  0  0
    7.1880   -0.5770   -0.5110 N   0  0  0  0  0  0  0  0  0  0  0  0
    5.6070   -0.0850    1.0640 N   0  0  0  0  0  2  0  0  0  0  0  0
    7.7530   -0.5620    0.6730 C   0  0  0  0  0  2  0  0  0  0  0  0
    6.8200   -0.2690    1.6160 N   0  0  0  0  0  0  0  0  0  0  0  0
    6.9340   -0.1820    2.6210 H   0  0  0  0  0  0  0  0  0  0  0  0
  1  7  1  1  0  0  0
  2  3  1  0  0  0  0
  2  1  1  0  0  0  0
  4  3  1  0  0  0  0
  4  6  1  0  0  0  0
  5  4  1  0  0  0  0
  5  1  1  0  0  0  0
  7 11  2  0  0  0  0
  7  8  1  0  0  0  0
  8  9  2  0  0  0  0
  9 10  1  0  0  0  0
 11 12  1  0  0  0  0
 12 10  2  0  0  0  0
 13  8  1  0  0  0  0
 13 14  1  0  0  0  0
 15 16  1  0  0  0  0
 15  4  1  0  0  0  0
 16 17  2  0  0  0  0
 18 20  1  0  0  0  0
 18 16  1  0  0  0  0
 19 17  1  0  0  0  0
 19 21  1  0  0  0  0
 20 19  2  0  0  0  0
 21 23  1  0  0  0  0
 22 21  2  0  0  0  0
 22 24  1  0  0  0  0
 23 25  1  0  0  0  0
 24 25  1  0  0  0  0
 25 26  1  0  0  0  0
M  END
>  <REMARK>
 SMILES COc1ccccc1C1CC[NH+](Cc2nc(-c3nc[nH]n3)no2)C1
 SMILES IDX 9 1 10 2 11 3 12 4 24 5 8 7 3 8 4 9 5 10 7 11 6 12 2 13 1 14
 SMILES IDX 13 15 14 16 15 17 23 18 16 19 22 20 17 21 18 22 21 23 19 24
 SMILES IDX 20 25
 H PARENT 12 6 20 26

>  <TORSDO>
F 5

$$$$
