/home/pchatterjee/Documents/git/vs_workflow/DiffDock/diffdock_run/pdbqt_scrubbed/Z1614248048.pdbqt
 OpenBabel10272516423D

 33 37  0  0  1  0  0  0  0  0999 V2000
    1.3420    1.6340    4.2990 O   0  0  0  0  0  0  0  0  0  0  0  0
    0.5920    0.9500    3.6090 C   0  0  0  0  0  0  0  0  0  0  0  0
   -0.6580    1.5760    3.1620 C   0  0  0  0  0  0  0  0  0  0  0  0
   -1.8570    1.3220    3.8290 C   0  0  0  0  0  3  0  0  0  0  0  0
   -0.6550    2.4620    2.0930 C   0  0  0  0  0  0  0  0  0  0  0  0
   -3.0180    1.9480    3.3820 C   0  0  0  0  0  3  0  0  0  0  0  0
   -1.7760    3.0860    1.6460 N   0  0  0  0  0  0  0  0  0  0  0  0
   -2.9280    2.8100    2.2970 C   0  0  0  0  0  3  0  0  0  0  0  0
    0.5570    2.8050    1.5220 O   0  0  0  0  0  0  0  0  0  0  0  0
    0.6520    2.9080    0.1600 C   0  0  0  0  0  0  0  0  0  0  0  0
    1.7520    3.6140   -0.3250 C   0  0  0  0  0  3  0  0  0  0  0  0
   -0.1760    2.2960   -0.7710 C   0  0  0  0  0  3  0  0  0  0  0  0
    1.9750    3.6960   -1.6970 C   0  0  0  0  0  3  0  0  0  0  0  0
    0.0410    2.3140   -2.1170 N   0  0  0  0  0  0  0  0  0  0  0  0
    1.1000    3.0380   -2.5440 C   0  0  0  0  0  3  0  0  0  0  0  0
    0.8560   -0.3690    3.2320 N   0  0  0  0  0  0  0  0  0  0  0  0
    2.1010   -0.9670    3.6970 C   0  0  0  0  0  2  0  0  0  0  0  0
   -0.1500   -1.2970    2.6940 C   0  0  0  0  0  2  0  0  0  0  0  0
    2.7240   -1.8640    2.6350 C   0  0  0  0  0  2  0  0  0  0  0  0
    0.3960   -2.3550    1.7190 C   0  0  2  0  0  3  0  0  0  0  0  0
    1.7410   -2.9350    2.1710 C   0  0  0  0  0  2  0  0  0  0  0  0
    0.4040   -1.8590    0.3070 C   0  0  0  0  0  0  0  0  0  0  0  0
    1.0630   -0.7730   -0.1010 N   0  0  0  0  0  0  0  0  0  0  0  0
   -0.3440   -2.4690   -0.6680 N   0  0  0  0  0  0  0  0  0  0  0  0
    0.6850   -0.6930   -1.3890 N   0  0  0  0  0  0  0  0  0  0  0  0
   -0.1720   -1.7050   -1.7320 C   0  0  0  0  0  0  0  0  0  0  0  0
    1.0000    0.0890   -1.9520 H   0  0  0  0  0  0  0  0  0  0  0  0
   -0.7780   -1.8820   -3.0510 C   0  0  0  0  0  0  0  0  0  0  0  0
   -1.3420   -3.1230   -3.3860 C   0  0  0  0  0  3  0  0  0  0  0  0
   -0.8290   -0.8490   -3.9990 C   0  0  0  0  0  3  0  0  0  0  0  0
   -1.9290   -3.3320   -4.6360 C   0  0  0  0  0  3  0  0  0  0  0  0
   -1.4180   -1.0580   -5.2500 C   0  0  0  0  0  3  0  0  0  0  0  0
   -1.9640   -2.2990   -5.5690 C   0  0  0  0  0  3  0  0  0  0  0  0
  2  1  2  0  0  0  0
  3  2  1  0  0  0  0
  3  4  2  0  0  0  0
  5  3  1  0  0  0  0
  6  4  1  0  0  0  0
  7  5  2  0  0  0  0
  7  8  1  0  0  0  0
  8  6  2  0  0  0  0
  9  5  1  0  0  0  0
 10  9  1  0  0  0  0
 11 10  1  0  0  0  0
 12 10  2  0  0  0  0
 13 11  2  0  0  0  0
 14 12  1  0  0  0  0
 15 14  2  0  0  0  0
 15 13  1  0  0  0  0
 16  2  1  0  0  0  0
 16 17  1  0  0  0  0
 18 16  1  0  0  0  0
 19 17  1  0  0  0  0
 20 22  1  6  0  0  0
 20 21  1  0  0  0  0
 20 18  1  0  0  0  0
 21 19  1  0  0  0  0
 23 22  2  0  0  0  0
 24 22  1  0  0  0  0
 25 23  1  0  0  0  0
 26 25  1  0  0  0  0
 26 24  2  0  0  0  0
 27 25  1  0  0  0  0
 28 26  1  0  0  0  0
 29 28  1  0  0  0  0
 30 28  2  0  0  0  0
 31 29  2  0  0  0  0
 32 30  1  0  0  0  0
 33 32  2  0  0  0  0
 33 31  1  0  0  0  0
M  END
>  <REMARK>
 SMILES O=C(c1cccnc1Oc1cccnc1)N1CCCC(c2n[nH]c(-c3ccccc3)n2)C1
 SMILES IDX 1 1 2 2 3 3 4 4 8 5 5 6 7 7 6 8 9 9 10 10 11 11 15 12 12 13
 SMILES IDX 14 14 13 15 16 16 17 17 32 18 18 19 20 20 19 21 21 22 22 23
 SMILES IDX 31 24 23 25 24 26 25 28 26 29 30 30 27 31 29 32 28 33
 H PARENT 23 27

>  <TORSDO>
F 6

$$$$
