/home/pchatterjee/Documents/git/vs_workflow/DiffDock/diffdock_run/pdbqt_scrubbed/Z1614095645.pdbqt
 OpenBabel10272516423D

 28 32  0  0  1  0  0  0  0  0999 V2000
   -0.4810   -0.0470   -1.2180 C   0  0  1  0  0  3  0  0  0  0  0  0
   -1.9400    0.1900   -1.6440 C   0  0  0  0  0  2  0  0  0  0  0  0
   -2.5740    1.4020   -0.9590 C   0  0  0  0  0  2  0  0  0  0  0  0
   -1.5290    2.3710   -0.4120 C   0  0  0  0  0  2  0  0  0  0  0  0
   -0.7020    1.6780    0.5780 N   0  0  0  0  0  0  0  0  0  0  0  0
   -0.2700    0.3020    0.2650 C   0  0  0  0  0  2  0  0  0  0  0  0
   -0.0470   -1.4430   -1.5200 C   0  0  0  0  0  0  0  0  0  0  0  0
    0.1890   -3.5450   -1.3200 C   0  0  2  0  0  3  0  0  0  0  0  0
   -0.3560   -2.5060   -0.7130 N   0  0  0  0  0  0  0  0  0  0  0  0
    0.7960   -3.0890   -2.4610 N   0  0  0  0  0  0  0  0  0  0  0  0
    0.6590   -1.7610   -2.6100 N   0  0  0  0  0  2  0  0  0  0  0  0
    1.3010   -3.6110   -3.1640 H   0  0  0  0  0  0  0  0  0  0  0  0
    0.1570   -4.9390   -0.8750 C   0  0  0  0  0  0  0  0  0  0  0  0
    0.0400   -7.5950    0.0550 C   0  0  0  0  0  3  0  0  0  0  0  0
   -0.6230   -6.5850    0.7460 C   0  0  0  0  0  3  0  0  0  0  0  0
    0.7620   -7.2880   -1.0950 C   0  0  0  0  0  3  0  0  0  0  0  0
   -0.5640   -5.2690    0.2840 C   0  0  0  0  0  3  0  0  0  0  0  0
    0.8210   -5.9690   -1.5590 C   0  0  0  0  0  3  0  0  0  0  0  0
    0.2090    2.4810    1.2680 C   0  0  0  0  0  0  0  0  0  0  0  0
    0.4210    3.7610    0.8490 N   0  0  0  0  0  0  0  0  0  0  0  0
    0.9090    2.0670    2.4260 C   0  0  0  0  0  0  0  0  0  0  0  0
    1.2990    4.5400    1.5100 C   0  0  0  0  0  3  0  0  0  0  0  0
    0.9630    0.9010    3.2490 C   0  0  0  0  0  3  0  0  0  0  0  0
    1.7790    2.9830    3.0010 C   0  0  0  0  0  0  0  0  0  0  0  0
    2.0310    4.2330    2.5910 N   0  0  0  0  0  0  0  0  0  0  0  0
    1.8680    1.1330    4.2630 C   0  0  0  0  0  3  0  0  0  0  0  0
    2.3580    2.4020    4.0960 N   0  0  0  0  0  0  0  0  0  0  0  0
    3.0320    2.8690    4.6860 H   0  0  0  0  0  0  0  0  0  0  0  0
  1  7  1  1  0  0  0
  1  6  1  0  0  0  0
  2  1  1  0  0  0  0
  2  3  1  0  0  0  0
  3  4  1  0  0  0  0
  4  5  1  0  0  0  0
  5 19  1  0  0  0  0
  6  5  1  0  0  0  0
  7  9  2  0  0  0  0
  8 13  1  6  0  0  0
  8  9  1  0  0  0  0
 10  8  1  0  0  0  0
 11 10  1  0  0  0  0
 11  7  1  0  0  0  0
 12 10  1  0  0  0  0
 13 17  1  0  0  0  0
 14 15  1  0  0  0  0
 16 14  2  0  0  0  0
 17 15  2  0  0  0  0
 18 16  1  0  0  0  0
 18 13  2  0  0  0  0
 19 21  1  0  0  0  0
 20 19  2  0  0  0  0
 20 22  1  0  0  0  0
 21 24  2  0  0  0  0
 21 23  1  0  0  0  0
 22 25  2  0  0  0  0
 23 26  2  0  0  0  0
 24 27  1  0  0  0  0
 25 24  1  0  0  0  0
 27 26  1  0  0  0  0
 27 28  1  0  0  0  0
M  END
>  <REMARK>
 SMILES c1ccc(-c2nc(C3CCCN(c4ncnc5[nH]ccc45)C3)n[nH]2)cc1
 SMILES IDX 8 1 9 2 10 3 11 4 12 5 22 6 7 7 5 8 6 9 24 10 23 11 4 13
 SMILES IDX 1 14 2 15 26 16 3 17 25 18 13 19 14 20 21 21 15 22 20 23
 SMILES IDX 17 24 16 25 19 26 18 27
 H PARENT 24 12 18 28

>  <TORSDO>
F 3

$$$$
