/home/pchatterjee/Documents/git/vs_workflow/DiffDock/diffdock_run/pdbqt_scrubbed/Z1623900637.pdbqt
 OpenBabel10272516423D

 32 35  0  0  1  0  0  0  0  0999 V2000
   -0.7720   -1.5070    2.3440 N   0  0  0  0  0  4  0  0  0  0  0  0
   -0.6660   -0.6090    1.1320 C   0  0  0  0  0  2  0  0  0  0  0  0
   -1.9080   -0.7900    0.2760 C   0  0  0  0  0  2  0  0  0  0  0  0
   -2.0820   -2.2480   -0.1800 C   0  0  2  0  0  3  0  0  0  0  0  0
   -2.0810   -3.1680    1.0520 C   0  0  0  0  0  2  0  0  0  0  0  0
   -0.8510   -2.9590    1.9290 C   0  0  0  0  0  2  0  0  0  0  0  0
   -1.6530   -1.2820    2.8210 H   0  0  0  0  0  0  0  0  0  0  0  0
    0.3330   -1.2300    3.3750 C   0  0  0  0  0  2  0  0  0  0  0  0
    1.7760   -1.3450    2.8580 C   0  0  0  0  0  0  0  0  0  0  0  0
    2.6270   -0.3870    3.3820 N   0  0  0  0  0  0  0  0  0  0  0  0
    2.0700   -2.2180    2.0480 O   0  0  0  0  0  0  0  0  0  0  0  0
    2.2680    0.2640    4.0720 H   0  0  0  0  0  0  0  0  0  0  0  0
    3.9930   -0.1990    3.0690 C   0  0  0  0  0  0  0  0  0  0  0  0
    4.6540    0.8580    3.7120 C   0  0  0  0  0  3  0  0  0  0  0  0
    4.7080   -0.9860    2.1630 C   0  0  0  0  0  3  0  0  0  0  0  0
    6.0010    1.1230    3.4520 C   0  0  0  0  0  3  0  0  0  0  0  0
    6.0580   -0.7230    1.9070 C   0  0  0  0  0  3  0  0  0  0  0  0
    6.7040    0.3310    2.5490 C   0  0  0  0  0  3  0  0  0  0  0  0
   -0.9980   -2.6630   -1.0810 N   0  0  0  0  0  0  0  0  0  0  0  0
   -0.9700   -3.6780   -1.2080 H   0  0  0  0  0  0  0  0  0  0  0  0
   -1.0610   -2.1390   -2.3980 C   0  0  0  0  0  0  0  0  0  0  0  0
   -0.0750   -2.5120   -3.2830 C   0  0  0  0  0  3  0  0  0  0  0  0
   -2.0390   -1.2910   -2.7460 N   0  0  0  0  0  0  0  0  0  0  0  0
   -0.1680   -1.9820   -4.5420 C   0  0  0  0  0  3  0  0  0  0  0  0
   -2.0760   -0.8170   -4.0050 C   0  0  0  0  0  0  0  0  0  0  0  0
   -1.1500   -1.1480   -4.9160 N   0  0  0  0  0  0  0  0  0  0  0  0
   -3.1220    0.0190   -4.3790 N   0  0  0  0  0  0  0  0  0  0  0  0
   -3.8310    0.7210   -3.3130 C   0  0  0  0  0  2  0  0  0  0  0  0
   -2.9330    0.8010   -5.6030 C   0  0  0  0  0  2  0  0  0  0  0  0
   -3.0760    1.9980   -2.9340 C   0  0  0  0  0  2  0  0  0  0  0  0
   -2.1550    2.0830   -5.2910 C   0  0  0  0  0  2  0  0  0  0  0  0
   -2.8230    2.8740   -4.1630 C   0  0  0  0  0  2  0  0  0  0  0  0
  1  7  1  0  0  0  0
  1  8  1  0  0  0  0
  2  1  1  0  0  0  0
  3  2  1  0  0  0  0
  4 19  1  6  0  0  0
  4  3  1  0  0  0  0
  4  5  1  0  0  0  0
  5  6  1  0  0  0  0
  6  1  1  0  0  0  0
  9  8  1  0  0  0  0
  9 10  1  0  0  0  0
 10 12  1  0  0  0  0
 11  9  2  0  0  0  0
 13 10  1  0  0  0  0
 13 14  1  0  0  0  0
 15 13  2  0  0  0  0
 16 14  2  0  0  0  0
 17 15  1  0  0  0  0
 17 18  2  0  0  0  0
 18 16  1  0  0  0  0
 20 19  1  0  0  0  0
 21 19  1  0  0  0  0
 22 21  2  0  0  0  0
 23 21  1  0  0  0  0
 24 22  1  0  0  0  0
 25 23  2  0  0  0  0
 26 24  2  0  0  0  0
 26 25  1  0  0  0  0
 27 25  1  0  0  0  0
 27 28  1  0  0  0  0
 28 30  1  0  0  0  0
 29 31  1  0  0  0  0
 29 27  1  0  0  0  0
 31 32  1  0  0  0  0
 32 30  1  0  0  0  0
M  END
>  <REMARK>
 SMILES O=C(C[NH+]1CCC(Nc2ccnc(N3CCCCC3)n2)CC1)Nc1ccccc1
 SMILES IDX 4 1 5 2 6 3 7 4 21 5 22 6 3 8 2 9 23 10 1 11 24 13 25 14
 SMILES IDX 29 15 26 16 28 17 27 18 8 19 9 21 10 22 20 23 11 24 13 25
 SMILES IDX 12 26 14 27 15 28 19 29 16 30 18 31 17 32
 H PARENT 4 7 23 12 8 20

>  <TORSDO>
F 6

$$$$
