/home/pchatterjee/Documents/git/vs_workflow/DiffDock/diffdock_run/pdbqt_scrubbed/Z1627224447.pdbqt
 OpenBabel10272516423D

 25 27  0  0  0  0  0  0  0  0999 V2000
   -0.3130   -1.8610   -1.6620 N   0  0  0  0  0  0  0  0  0  0  0  0
    0.6760   -1.7100   -1.8850 H   0  0  0  0  0  0  0  0  0  0  0  0
   -0.4600   -3.2380   -0.6830 S   0  0  0  0  0  0  0  0  0  0  0  0
    0.3210   -4.2890   -1.2990 O   0  0  0  0  0  0  0  0  0  0  0  0
   -1.8410   -3.4370   -0.2960 O   0  0  0  0  0  0  0  0  0  0  0  0
    0.3800   -2.9390    0.8190 C   0  0  0  0  0  0  0  0  0  0  0  0
    0.1270   -3.5400    2.0340 C   0  0  0  0  0  3  0  0  0  0  0  0
    1.4240   -2.0270    0.9350 N   0  0  0  0  0  0  0  0  0  0  0  0
    1.0240   -2.9830    2.9020 N   0  0  0  0  0  0  0  0  0  0  0  0
    1.7800   -2.0840    2.2000 C   0  0  0  0  0  3  0  0  0  0  0  0
    1.1170   -3.1920    3.8880 H   0  0  0  0  0  0  0  0  0  0  0  0
   -0.9440   -0.6600   -1.1790 C   0  0  0  0  0  0  0  0  0  0  0  0
   -2.3320   -0.5480   -1.2040 C   0  0  0  0  0  3  0  0  0  0  0  0
   -0.1740    0.4190   -0.6890 C   0  0  0  0  0  0  0  0  0  0  0  0
   -2.9280    0.6220   -0.7530 C   0  0  0  0  0  3  0  0  0  0  0  0
   -0.7570    1.5610   -0.2590 N   0  0  0  0  0  0  0  0  0  0  0  0
   -2.1060    1.6390   -0.2980 C   0  0  0  0  0  3  0  0  0  0  0  0
    1.2400    0.2610   -0.6560 N   0  0  0  0  0  0  0  0  0  0  0  0
    1.4470   -0.5600   -0.0760 H   0  0  0  0  0  0  0  0  0  0  0  0
    2.2310    1.2530   -0.4750 C   0  0  0  0  0  0  0  0  0  0  0  0
    3.5100    0.8590   -0.0490 C   0  0  0  0  0  3  0  0  0  0  0  0
    2.0480    2.5900   -0.8420 C   0  0  0  0  0  3  0  0  0  0  0  0
    4.5500    1.7840    0.0730 C   0  0  0  0  0  3  0  0  0  0  0  0
    3.0860    3.5210   -0.7210 C   0  0  0  0  0  3  0  0  0  0  0  0
    4.3350    3.1190   -0.2570 C   0  0  0  0  0  3  0  0  0  0  0  0
  1 12  1  0  0  0  0
  1  3  1  0  0  0  0
  2  1  1  0  0  0  0
  3  5  2  0  0  0  0
  3  6  1  0  0  0  0
  4  3  2  0  0  0  0
  6  8  1  0  0  0  0
  6  7  2  0  0  0  0
  7  9  1  0  0  0  0
  8 10  2  0  0  0  0
  9 11  1  0  0  0  0
 10  9  1  0  0  0  0
 12 14  1  0  0  0  0
 13 12  2  0  0  0  0
 13 15  1  0  0  0  0
 14 18  1  0  0  0  0
 14 16  2  0  0  0  0
 15 17  2  0  0  0  0
 17 16  1  0  0  0  0
 18 20  1  0  0  0  0
 18 19  1  0  0  0  0
 20 21  1  0  0  0  0
 21 23  2  0  0  0  0
 22 24  1  0  0  0  0
 22 20  2  0  0  0  0
 24 25  2  0  0  0  0
 25 23  1  0  0  0  0
M  END
>  <REMARK>
 SMILES O=S(=O)(Nc1cccnc1Nc1ccccc1)c1c[nH]cn1
 SMILES IDX 4 1 2 3 1 4 3 5 18 6 19 7 22 8 20 9 21 10 5 12 6 13 10 14
 SMILES IDX 7 15 9 16 8 17 11 18 12 20 13 21 17 22 14 23 16 24 15 25
 H PARENT 4 2 20 11 11 19

>  <TORSDO>
F 5

$$$$
