/home/pchatterjee/Documents/git/vs_workflow/DiffDock/diffdock_run/pdbqt_scrubbed/Z1623913958.pdbqt
 OpenBabel10272516423D

 25 28  0  0  1  0  0  0  0  0999 V2000
   -1.9420    2.0490    1.9200 C   0  0  1  0  0  3  0  0  0  0  0  0
   -3.4000    1.7280    2.2510 C   0  0  0  0  0  2  0  0  0  0  0  0
   -3.4820    0.2270    2.0040 C   0  0  0  0  0  2  0  0  0  0  0  0
   -2.6220    0.0290    0.8490 N   0  0  0  0  0  0  0  0  0  0  0  0
   -1.6550    1.1250    0.7140 C   0  0  0  0  0  2  0  0  0  0  0  0
   -1.7960    3.4760    1.6280 N   0  0  0  0  0  0  0  0  0  0  0  0
   -2.4750    3.8060    0.9450 H   0  0  0  0  0  0  0  0  0  0  0  0
   -0.5290    4.0190    1.3790 C   0  0  0  0  0  0  0  0  0  0  0  0
    1.9510    5.3010    0.9470 C   0  0  0  0  0  3  0  0  0  0  0  0
    1.8970    4.0830    1.6160 C   0  0  0  0  0  3  0  0  0  0  0  0
    0.7720    5.9000    0.5170 C   0  0  0  0  0  3  0  0  0  0  0  0
    0.6660    3.4570    1.8430 C   0  0  0  0  0  3  0  0  0  0  0  0
   -0.4540    5.2690    0.7450 C   0  0  0  0  0  3  0  0  0  0  0  0
   -2.3240   -1.2000    0.3060 C   0  0  0  0  0  0  0  0  0  0  0  0
   -3.0980   -2.3120    0.5510 C   0  0  0  0  0  3  0  0  0  0  0  0
   -1.2570   -1.2890   -0.5100 N   0  0  0  0  0  0  0  0  0  0  0  0
   -2.7120   -3.4810   -0.0560 C   0  0  0  0  0  3  0  0  0  0  0  0
   -0.9350   -2.4650   -1.0760 C   0  0  0  0  0  0  0  0  0  0  0  0
   -1.6450   -3.5810   -0.8600 N   0  0  0  0  0  0  0  0  0  0  0  0
    0.1790   -2.5280   -1.8900 N   0  0  0  0  0  0  0  0  0  0  0  0
    0.9020   -1.2950   -2.1620 C   0  0  0  0  0  2  0  0  0  0  0  0
    0.3470   -3.6780   -2.7690 C   0  0  0  0  0  2  0  0  0  0  0  0
    2.2670   -1.6200   -2.7650 C   0  0  0  0  0  2  0  0  0  0  0  0
    0.8550   -3.2340   -4.1400 C   0  0  0  0  0  2  0  0  0  0  0  0
    2.1550   -2.4370   -4.0510 C   0  0  0  0  0  2  0  0  0  0  0  0
  1  6  1  6  0  0  0
  1  2  1  0  0  0  0
  3  2  1  0  0  0  0
  4  3  1  0  0  0  0
  5  4  1  0  0  0  0
  5  1  1  0  0  0  0
  7  6  1  0  0  0  0
  8  6  1  0  0  0  0
  8 12  1  0  0  0  0
  9 10  1  0  0  0  0
 10 12  2  0  0  0  0
 11 13  1  0  0  0  0
 11  9  2  0  0  0  0
 13  8  2  0  0  0  0
 14 15  2  0  0  0  0
 14  4  1  0  0  0  0
 16 14  1  0  0  0  0
 17 15  1  0  0  0  0
 18 19  1  0  0  0  0
 18 16  2  0  0  0  0
 19 17  2  0  0  0  0
 20 18  1  0  0  0  0
 21 20  1  0  0  0  0
 22 20  1  0  0  0  0
 23 21  1  0  0  0  0
 24 25  1  0  0  0  0
 24 22  1  0  0  0  0
 25 23  1  0  0  0  0
M  END
>  <REMARK>
 SMILES c1ccc(NC2CCN(c3ccnc(N4CCCCC4)n3)C2)cc1
 SMILES IDX 6 1 7 2 8 3 9 4 22 5 5 6 4 8 1 9 2 10 24 11 3 12 23 13 10 14
 SMILES IDX 11 15 21 16 12 17 14 18 13 19 15 20 16 21 20 22 17 23 19 24
 SMILES IDX 18 25
 H PARENT 5 7

>  <TORSDO>
F 4

$$$$
