/home/pchatterjee/Documents/git/vs_workflow/DiffDock/diffdock_run/pdbqt_scrubbed/Z1626892642.pdbqt
 OpenBabel10272516423D

 26 26  0  0  0  0  0  0  0  0999 V2000
   -0.2010   -1.0130    1.1800 N   0  0  0  0  0  0  0  0  0  0  0  0
    0.8560   -0.0750    1.6050 C   0  0  0  0  0  2  0  0  0  0  0  0
    0.6450    0.4140    3.0190 C   0  0  0  0  0  0  0  0  0  0  0  0
    0.5410    1.6810    4.6800 C   0  0  0  0  0  0  0  0  0  0  0  0
    0.8150    1.7270    3.3980 N   0  0  0  0  0  0  0  0  0  0  0  0
    0.2710    0.4250    5.1350 O   0  0  0  0  0  0  0  0  0  0  0  0
    0.3660   -0.4250    4.0330 N   0  0  0  0  0  0  0  0  0  0  0  0
    0.4970    2.7670    5.6730 C   0  0  0  0  0  1  0  0  0  0  0  0
    1.0960    1.0440    0.5830 *   0  0  0  0  0  0  0  0  0  0  0  0
    0.2750   -2.2040    0.4820 C   0  0  0  0  0  2  0  0  0  0  0  0
    0.7090   -1.9270   -0.9600 C   0  0  0  0  0  2  0  0  0  0  0  0
    1.7270   -0.7940   -1.1400 C   0  0  0  0  0  1  0  0  0  0  0  0
    1.1380    0.5960   -0.8840 *   0  0  0  0  0  0  0  0  0  0  0  0
   -1.5240   -0.5740    1.1700 C   0  0  0  0  0  0  0  0  0  0  0  0
   -1.8260    0.5850    1.4710 O   0  0  0  0  0  0  0  0  0  0  0  0
   -2.6280   -1.5690    0.8330 C   0  0  0  0  0  2  0  0  0  0  0  0
   -2.8800   -1.7320   -0.6320 C   0  0  0  0  0  0  0  0  0  0  0  0
   -2.9620   -2.9370   -1.3140 C   0  0  0  0  0  3  0  0  0  0  0  0
   -3.1210   -0.7000   -1.5990 C   0  0  0  0  0  0  0  0  0  0  0  0
   -3.2130   -2.6730   -2.6350 N   0  0  0  0  0  0  0  0  0  0  0  0
   -3.2020    0.7030   -1.5820 C   0  0  0  0  0  3  0  0  0  0  0  0
   -3.3090   -1.3250   -2.8280 C   0  0  0  0  0  0  0  0  0  0  0  0
   -3.4520    1.3570   -2.7890 C   0  0  0  0  0  3  0  0  0  0  0  0
   -3.5520   -0.7470   -4.0190 N   0  0  0  0  0  0  0  0  0  0  0  0
   -3.6130    0.6020   -3.9430 C   0  0  0  0  0  3  0  0  0  0  0  0
   -3.3270   -3.3490   -3.3750 H   0  0  0  0  0  0  0  0  0  0  0  0
  1  2  1  0  0  0  0
  2  3  1  0  0  0  0
  3  5  1  0  0  0  0
  3  7  2  0  0  0  0
  4  6  1  0  0  0  0
  4  8  1  0  0  0  0
  5  4  2  0  0  0  0
  7  6  1  0  0  0  0
 10  1  1  0  0  0  0
 11 10  1  0  0  0  0
 12 11  1  0  0  0  0
 14  1  1  0  0  0  0
 14 15  2  0  0  0  0
 16 14  1  0  0  0  0
 17 16  1  0  0  0  0
 18 17  2  0  0  0  0
 19 21  1  0  0  0  0
 19 17  1  0  0  0  0
 20 18  1  0  0  0  0
 22 20  1  0  0  0  0
 22 19  2  0  0  0  0
 23 21  2  0  0  0  0
 24 25  2  0  0  0  0
 24 22  1  0  0  0  0
 25 23  1  0  0  0  0
 26 20  1  0  0  0  0
M  END
>  <REMARK>
 SMILES Cc1nc(C2CCCCCN2C(=O)Cc2c[nH]c3ncccc23)no1
 SMILES IDX 11 1 5 2 4 3 2 4 3 5 25 6 24 7 1 8 6 9 10 11 9 12 8 13 7 14
 SMILES IDX 12 16 13 17 14 18 15 19 16 20 23 21 17 22 22 23 18 24 21 25
 SMILES IDX 19 26 20 27
 H PARENT 17 28
 Flexibility Score:   71.900

>  <TORSDO>
F 4

$$$$
