/home/pchatterjee/Documents/git/vs_workflow/DiffDock/diffdock_run/pdbqt_scrubbed/Z16226228.pdbqt
 OpenBabel10272516423D

 26 26  0  0  1  0  0  0  0  0999 V2000
   -0.1180   -1.9890   -3.3530 O   0  0  0  0  0  0  0  0  0  0  0  0
    0.3850   -1.4420   -2.3750 C   0  0  0  0  0  0  0  0  0  0  0  0
    0.0070   -0.1940   -1.9290 N   0  0  0  0  0  0  0  0  0  0  0  0
    0.4400    0.1730   -1.0820 H   0  0  0  0  0  0  0  0  0  0  0  0
    1.4810   -2.1030   -1.5550 C   0  0  0  0  0  2  0  0  0  0  0  0
    0.7730   -2.9970   -0.1400 S   0  0  0  0  0  0  0  0  0  0  0  0
    0.3950   -1.6900    0.9180 C   0  0  0  0  0  0  0  0  0  0  0  0
    0.8300   -0.4420    0.8250 N   0  0  0  0  0  0  0  0  0  0  0  0
   -0.4160   -1.7840    1.9960 N   0  0  0  0  0  0  0  0  0  0  0  0
    0.2680    0.3020    1.8660 N   0  0  0  0  0  0  0  0  0  0  0  0
   -1.1600   -2.6790    2.7490 C   0  0  0  0  0  0  0  0  0  0  0  0
   -0.4930   -0.5240    2.5350 C   0  0  0  0  0  0  0  0  0  0  0  0
   -1.3870   -4.0270    2.6130 C   0  0  0  0  0  3  0  0  0  0  0  0
   -1.6790   -1.8880    3.8030 C   0  0  0  0  0  0  0  0  0  0  0  0
   -1.3100   -0.5410    3.6150 N   0  0  0  0  0  0  0  0  0  0  0  0
   -2.2050   -4.6020    3.5880 C   0  0  0  0  0  3  0  0  0  0  0  0
   -2.5030   -2.4530    4.7450 C   0  0  0  0  0  3  0  0  0  0  0  0
   -2.7570   -3.8280    4.6360 C   0  0  0  0  0  3  0  0  0  0  0  0
   -1.2730    0.1200    4.3770 H   0  0  0  0  0  0  0  0  0  0  0  0
   -1.0140    0.6060   -2.5910 C   0  0  1  0  0  3  0  0  0  0  0  0
   -1.7120    1.5360   -1.5880 C   0  0  0  0  0  1  0  0  0  0  0  0
   -0.8750    2.6810   -1.0230 *   0  0  0  0  0  0  0  0  0  0  0  0
   -0.4350    1.2830   -3.8480 C   0  0  0  0  0  2  0  0  0  0  0  0
   -1.1120    2.5950   -4.2360 C   0  0  0  0  0  2  0  0  0  0  0  0
   -0.7790    3.7990   -3.3440 C   0  0  0  0  0  1  0  0  0  0  0  0
   -0.0670    3.4970   -2.0270 *   0  0  0  0  0  0  0  0  0  0  0  0
  1  2  2  0  0  0  0
  2  3  1  0  0  0  0
  2  5  1  0  0  0  0
  3  4  1  0  0  0  0
  5  6  1  0  0  0  0
  6  7  1  0  0  0  0
  7  9  1  0  0  0  0
  8  7  2  0  0  0  0
  8 10  1  0  0  0  0
  9 12  1  0  0  0  0
  9 11  1  0  0  0  0
 10 12  2  0  0  0  0
 11 14  1  0  0  0  0
 12 15  1  0  0  0  0
 13 11  2  0  0  0  0
 13 16  1  0  0  0  0
 14 17  2  0  0  0  0
 15 14  1  0  0  0  0
 15 19  1  0  0  0  0
 16 18  2  0  0  0  0
 18 17  1  0  0  0  0
 20  3  1  0  0  0  0
 20 21  1  1  0  0  0
 23 20  1  0  0  0  0
 24 23  1  0  0  0  0
 24 25  1  0  0  0  0
M  END
>  <REMARK>
 SMILES O=C(CSc1nnc2[nH]c3ccccc3n12)NC1CCCCCC1
 SMILES IDX 1 1 2 2 17 3 3 5 4 6 5 7 6 8 16 9 7 10 15 11 8 12 14 13
 SMILES IDX 10 14 9 15 13 16 11 17 12 18 18 20 19 21 20 22 24 24 23 25
 SMILES IDX 22 26 21 27
 H PARENT 17 4 9 19
 Flexibility Score:   98.900

>  <TORSDO>
F 4

$$$$
