/home/pchatterjee/Documents/git/vs_workflow/DiffDock/diffdock_run/pdbqt_scrubbed/Z16226176.pdbqt
 OpenBabel10272516423D

 26 29  0  0  0  0  0  0  0  0999 V2000
   -1.6130   -2.1730    2.6210 C   0  0  0  0  0  2  0  0  0  0  0  0
   -1.4550   -3.0720    1.4070 C   0  0  0  0  0  0  0  0  0  0  0  0
   -0.3390   -2.8040    0.6380 N   0  0  0  0  0  0  0  0  0  0  0  0
   -2.2570   -3.9660    1.1450 O   0  0  0  0  0  0  0  0  0  0  0  0
    0.0270   -1.8560    0.7080 H   0  0  0  0  0  0  0  0  0  0  0  0
   -0.1130   -3.5100   -0.6060 C   0  0  0  0  0  2  0  0  0  0  0  0
    1.3210   -3.3760   -1.1390 C   0  0  0  0  0  3  0  0  0  0  0  0
    2.3630   -3.8700   -0.1230 C   0  0  0  0  0  2  0  0  0  0  0  0
    1.6450   -1.9440   -1.5970 C   0  0  0  0  0  2  0  0  0  0  0  0
    3.7840   -3.7580   -0.6720 C   0  0  0  0  0  2  0  0  0  0  0  0
    3.0630   -1.8450   -2.1550 C   0  0  0  0  0  2  0  0  0  0  0  0
    4.0970   -2.3420   -1.1480 C   0  0  0  0  0  2  0  0  0  0  0  0
   -2.7420   -0.7970    2.2600 S   0  0  0  0  0  0  0  0  0  0  0  0
   -1.7460    0.2010    1.2700 C   0  0  0  0  0  0  0  0  0  0  0  0
   -0.4590    0.0300    1.0100 N   0  0  0  0  0  0  0  0  0  0  0  0
   -2.1710    1.3140    0.6290 N   0  0  0  0  0  0  0  0  0  0  0  0
   -0.0400    1.0540    0.1570 N   0  0  0  0  0  0  0  0  0  0  0  0
   -3.2670    2.1430    0.4570 C   0  0  0  0  0  0  0  0  0  0  0  0
   -1.0930    1.7930   -0.0730 C   0  0  0  0  0  0  0  0  0  0  0  0
   -4.5480    2.0850    0.9500 C   0  0  0  0  0  3  0  0  0  0  0  0
   -2.7840    3.1780   -0.3790 C   0  0  0  0  0  0  0  0  0  0  0  0
   -1.4530    2.9070   -0.7540 N   0  0  0  0  0  0  0  0  0  0  0  0
   -5.3920    3.1260    0.5600 C   0  0  0  0  0  3  0  0  0  0  0  0
   -3.6260    4.1850   -0.7840 C   0  0  0  0  0  3  0  0  0  0  0  0
   -4.9400    4.1590   -0.2950 C   0  0  0  0  0  3  0  0  0  0  0  0
   -0.8180    3.6340   -1.0470 H   0  0  0  0  0  0  0  0  0  0  0  0
  2  1  1  0  0  0  0
  3  5  1  0  0  0  0
  3  2  1  0  0  0  0
  4  2  2  0  0  0  0
  6  3  1  0  0  0  0
  7  6  1  0  0  0  0
  7  8  1  0  0  0  0
  9  7  1  0  0  0  0
 10  8  1  0  0  0  0
 11  9  1  0  0  0  0
 11 12  1  0  0  0  0
 12 10  1  0  0  0  0
 13  1  1  0  0  0  0
 14 13  1  0  0  0  0
 15 14  2  0  0  0  0
 16 14  1  0  0  0  0
 17 15  1  0  0  0  0
 18 16  1  0  0  0  0
 18 20  1  0  0  0  0
 19 17  2  0  0  0  0
 19 16  1  0  0  0  0
 21 18  2  0  0  0  0
 22 21  1  0  0  0  0
 22 19  1  0  0  0  0
 23 20  2  0  0  0  0
 24 21  1  0  0  0  0
 24 25  2  0  0  0  0
 25 23  1  0  0  0  0
 26 22  1  0  0  0  0
M  END
>  <REMARK>
 SMILES O=C(CSc1nnc2[nH]c3ccccc3n12)NCC1CCCCC1
 SMILES IDX 3 1 2 2 17 3 1 4 18 6 19 7 20 8 24 9 21 10 23 11 22 12 4 13
 SMILES IDX 5 14 6 15 16 16 7 17 15 18 8 19 14 20 10 21 9 22 13 23 11 24
 SMILES IDX 12 25
 H PARENT 17 5 9 26

>  <TORSDO>
F 5

$$$$
