/home/pchatterjee/Documents/git/vs_workflow/DiffDock/diffdock_run/pdbqt_scrubbed/Z1624951105.pdbqt
 OpenBabel10272516423D

 23 25  0  0  0  0  0  0  0  0999 V2000
    2.6790    1.9330   -1.2380 C   0  0  0  0  0  2  0  0  0  0  0  0
    2.3150    2.5800    0.0130 N   0  0  0  0  0  0  0  0  0  0  0  0
    1.2580    3.5410    1.6590 C   0  0  0  0  0  0  0  0  0  0  0  0
    2.5890    3.5010    2.0140 N   0  0  0  0  0  0  0  0  0  0  0  0
    1.0640    2.9870    0.4130 C   0  0  0  0  0  0  0  0  0  0  0  0
    3.1960    2.9130    1.0080 C   0  0  0  0  0  3  0  0  0  0  0  0
    0.2750    4.1190    2.5240 C   0  0  0  0  0  0  0  0  0  0  0  0
   -0.5410    4.5900    3.2040 N   0  0  0  0  0  0  0  0  0  0  0  0
   -0.1430    2.8580   -0.3200 C   0  0  0  0  0  0  0  0  0  0  0  0
   -1.1120    2.7820   -0.9510 N   0  0  0  0  0  0  0  0  0  0  0  0
    2.6820    0.4520   -1.0670 C   0  0  0  0  0  0  0  0  0  0  0  0
    3.7770   -0.3870   -1.0850 C   0  0  0  0  0  3  0  0  0  0  0  0
    1.4720   -0.1930   -0.8680 N   0  0  0  0  0  0  0  0  0  0  0  0
    3.2790   -2.0040   -0.8300 S   0  0  0  0  0  0  0  0  0  0  0  0
    1.6290   -1.4900   -0.7230 C   0  0  0  0  0  0  0  0  0  0  0  0
    0.6760   -2.4210   -0.4900 N   0  0  0  0  0  0  0  0  0  0  0  0
    0.9950   -3.3730   -0.3640 H   0  0  0  0  0  0  0  0  0  0  0  0
   -0.7210   -2.2710   -0.4140 C   0  0  0  0  0  0  0  0  0  0  0  0
   -1.4030   -1.0880   -0.7200 C   0  0  0  0  0  3  0  0  0  0  0  0
   -1.4870   -3.3630    0.0330 C   0  0  0  0  0  3  0  0  0  0  0  0
   -2.7930   -0.9960   -0.5930 C   0  0  0  0  0  3  0  0  0  0  0  0
   -2.8770   -3.2770    0.1600 C   0  0  0  0  0  3  0  0  0  0  0  0
   -3.5310   -2.0900   -0.1540 C   0  0  0  0  0  3  0  0  0  0  0  0
  1 11  1  0  0  0  0
  1  2  1  0  0  0  0
  2  5  1  0  0  0  0
  2  6  1  0  0  0  0
  3  4  1  0  0  0  0
  3  7  1  0  0  0  0
  5  3  2  0  0  0  0
  6  4  2  0  0  0  0
  7  8  3  0  0  0  0
  9  5  1  0  0  0  0
 10  9  3  0  0  0  0
 11 13  1  0  0  0  0
 12 11  2  0  0  0  0
 12 14  1  0  0  0  0
 13 15  2  0  0  0  0
 14 15  1  0  0  0  0
 15 16  1  0  0  0  0
 16 18  1  0  0  0  0
 16 17  1  0  0  0  0
 18 20  1  0  0  0  0
 19 21  1  0  0  0  0
 19 18  2  0  0  0  0
 20 22  2  0  0  0  0
 21 23  2  0  0  0  0
 23 22  1  0  0  0  0
M  END
>  <REMARK>
 SMILES N#Cc1ncn(Cc2csc(Nc3ccccc3)n2)c1C#N
 SMILES IDX 7 1 6 2 3 3 4 4 20 5 5 6 2 7 1 8 21 9 22 10 8 11 9 12 19 13
 SMILES IDX 10 14 11 15 12 16 13 18 14 19 18 20 15 21 17 22 16 23
 H PARENT 12 17

>  <TORSDO>
F 6

$$$$
