/home/pchatterjee/Documents/git/vs_workflow/DiffDock/diffdock_run/pdbqt_scrubbed/Z1635228855.pdbqt
 OpenBabel10272516423D

 28 31  0  0  1  0  0  0  0  0999 V2000
   -1.9080    0.8480    1.4370 N   0  0  0  0  0  0  0  0  0  0  0  0
   -1.6990   -0.0300    0.3960 C   0  0  0  0  0  0  0  0  0  0  0  0
   -2.0050   -1.2160    0.4590 O   0  0  0  0  0  0  0  0  0  0  0  0
   -1.3400    1.6840    1.4500 H   0  0  0  0  0  0  0  0  0  0  0  0
   -2.2560    0.3440    2.7580 C   0  0  0  0  0  2  0  0  0  0  0  0
   -1.0320    0.1140    3.6250 C   0  0  0  0  0  0  0  0  0  0  0  0
    0.0300   -1.0740    5.2810 C   0  0  2  0  0  3  0  0  0  0  0  0
   -1.0660   -0.8950    4.5110 N   0  0  0  0  0  0  0  0  0  0  0  0
    1.1590   -0.2480    5.1980 C   0  0  0  0  0  0  0  0  0  0  0  0
    2.3350   -0.3870    5.9780 C   0  0  0  0  0  3  0  0  0  0  0  0
    1.0720    0.7870    4.2560 C   0  0  0  0  0  0  0  0  0  0  0  0
   -0.0040    0.9780    3.4840 N   0  0  0  0  0  2  0  0  0  0  0  0
    3.4030    0.4930    5.8210 C   0  0  0  0  0  3  0  0  0  0  0  0
    2.1510    1.6510    4.1190 C   0  0  0  0  0  3  0  0  0  0  0  0
    3.3100    1.5160    4.8880 C   0  0  0  0  0  3  0  0  0  0  0  0
   -0.0380   -2.2300    6.2390 C   0  0  0  0  0  1  0  0  0  0  0  0
   -1.0760    0.5610   -0.7820 C   0  0  0  0  0  0  0  0  0  0  0  0
   -0.9580    1.9230   -1.1400 C   0  0  0  0  0  3  0  0  0  0  0  0
   -0.4650   -0.1130   -1.8350 C   0  0  0  0  0  0  0  0  0  0  0  0
   -0.3310    2.1070   -2.3010 N   0  0  0  0  0  0  0  0  0  0  0  0
   -0.0720    0.8560   -2.7300 N   0  0  0  0  0  0  0  0  0  0  0  0
   -0.2380   -1.5670   -2.0520 C   0  0  0  0  0  1  0  0  0  0  0  0
    0.5850    0.6680   -4.0230 C   0  0  0  0  0  3  0  0  0  0  0  0
    2.1030    0.8960   -3.9120 C   0  0  0  0  0  2  0  0  0  0  0  0
   -0.0330    1.5260   -5.1370 C   0  0  0  0  0  2  0  0  0  0  0  0
    2.7550    1.3040   -5.2360 C   0  0  0  0  0  2  0  0  0  0  0  0
    0.5680    1.1890   -6.5040 C   0  0  0  0  0  2  0  0  0  0  0  0
    2.0220    0.7190   -6.4360 C   0  0  0  0  0  2  0  0  0  0  0  0
  1  4  1  0  0  0  0
  1  5  1  0  0  0  0
  2  3  2  0  0  0  0
  2  1  1  0  0  0  0
  5  6  1  0  0  0  0
  6  8  2  0  0  0  0
  7 16  1  6  0  0  0
  8  7  1  0  0  0  0
  9  7  1  0  0  0  0
  9 10  1  0  0  0  0
 11  9  2  0  0  0  0
 12  6  1  0  0  0  0
 12 11  1  0  0  0  0
 13 10  2  0  0  0  0
 14 11  1  0  0  0  0
 14 15  2  0  0  0  0
 15 13  1  0  0  0  0
 17  2  1  0  0  0  0
 18 17  1  0  0  0  0
 19 17  2  0  0  0  0
 20 18  2  0  0  0  0
 21 20  1  0  0  0  0
 21 19  1  0  0  0  0
 22 19  1  0  0  0  0
 23 24  1  0  0  0  0
 23 21  1  0  0  0  0
 25 23  1  0  0  0  0
 26 24  1  0  0  0  0
 27 28  1  0  0  0  0
 27 25  1  0  0  0  0
 28 26  1  0  0  0  0
M  END
>  <REMARK>
 SMILES Cc1nc(CNC(=O)c2cnn(C3CCCCC3)c2C)nc2ccccc12
 SMILES IDX 6 1 7 2 8 3 5 5 4 6 2 7 3 8 27 9 26 10 22 11 21 12 25 13
 SMILES IDX 23 14 24 15 1 16 9 17 10 18 19 19 11 20 12 21 20 22 13 23
 SMILES IDX 14 24 18 25 15 26 17 27 16 28
 H PARENT 6 4

>  <TORSDO>
F 4

$$$$
