/home/pchatterjee/Documents/git/vs_workflow/DiffDock/diffdock_run/pdbqt_scrubbed/Z1646104587.pdbqt
 OpenBabel10272516423D

 28 31  0  0  0  0  0  0  0  0999 V2000
    0.5880    1.4660   -0.4870 O   0  0  0  0  0  0  0  0  0  0  0  0
    1.9730    1.4750   -0.8620 C   0  0  0  0  0  2  0  0  0  0  0  0
    2.6670    0.2750   -0.3240 C   0  0  0  0  0  0  0  0  0  0  0  0
    2.2490   -1.0310   -0.4600 N   0  0  0  0  0  0  0  0  0  0  0  0
    3.1640   -1.7900    0.2250 C   0  0  0  0  0  0  0  0  0  0  0  0
    3.7920    0.2920    0.3600 N   0  0  0  0  0  0  0  0  0  0  0  0
    4.1000   -0.9950    0.7020 N   0  0  0  0  0  0  0  0  0  0  0  0
    1.0730   -1.4750   -1.1620 C   0  0  0  0  0  1  0  0  0  0  0  0
    3.2250   -3.3240    0.4860 C   0  0  0  0  0  3  0  0  0  0  0  0
    3.3640   -4.2350   -0.7520 C   0  0  0  0  0  2  0  0  0  0  0  0
    1.9130   -4.0670    0.8120 C   0  0  0  0  0  2  0  0  0  0  0  0
    2.4610   -5.2490   -0.0170 C   0  0  0  0  0  2  0  0  0  0  0  0
    0.2430    1.6520    0.8280 C   0  0  0  0  0  0  0  0  0  0  0  0
    1.0760    2.2770    1.7650 C   0  0  0  0  0  3  0  0  0  0  0  0
   -1.0240    1.1860    1.2390 C   0  0  0  0  0  0  0  0  0  0  0  0
    0.6650    2.4280    3.0930 C   0  0  0  0  0  3  0  0  0  0  0  0
   -1.4180    1.3370    2.5800 C   0  0  0  0  0  3  0  0  0  0  0  0
   -0.5780    1.9580    3.5020 C   0  0  0  0  0  3  0  0  0  0  0  0
   -1.9840    0.4730    0.3330 C   0  0  0  0  0  0  0  0  0  0  0  0
   -1.8890    0.7880   -1.0090 N   0  0  0  0  0  0  0  0  0  0  0  0
   -2.7760   -0.3190    0.8320 O   0  0  0  0  0  0  0  0  0  0  0  0
   -1.1810    1.4750   -1.2480 H   0  0  0  0  0  0  0  0  0  0  0  0
   -2.6180    0.2480   -2.0850 C   0  0  0  0  0  0  0  0  0  0  0  0
   -2.3100    0.7250   -3.3660 C   0  0  0  0  0  3  0  0  0  0  0  0
   -3.6070   -0.7270   -1.9490 C   0  0  0  0  0  3  0  0  0  0  0  0
   -2.9790    0.2330   -4.4910 C   0  0  0  0  0  3  0  0  0  0  0  0
   -4.2760   -1.2190   -3.0740 C   0  0  0  0  0  3  0  0  0  0  0  0
   -3.9620   -0.7410   -4.3440 C   0  0  0  0  0  3  0  0  0  0  0  0
  1 13  1  0  0  0  0
  2  1  1  0  0  0  0
  2  3  1  0  0  0  0
  3  6  2  0  0  0  0
  4  3  1  0  0  0  0
  4  5  1  0  0  0  0
  5  9  1  0  0  0  0
  5  7  2  0  0  0  0
  6  7  1  0  0  0  0
  8  4  1  0  0  0  0
  9 11  1  0  0  0  0
 10 12  1  0  0  0  0
 10  9  1  0  0  0  0
 12 11  1  0  0  0  0
 13 15  2  0  0  0  0
 13 14  1  0  0  0  0
 14 16  2  0  0  0  0
 15 17  1  0  0  0  0
 16 18  1  0  0  0  0
 17 18  2  0  0  0  0
 19 21  2  0  0  0  0
 19 15  1  0  0  0  0
 20 19  1  0  0  0  0
 22 20  1  0  0  0  0
 23 25  1  0  0  0  0
 23 20  1  0  0  0  0
 24 23  2  0  0  0  0
 26 28  2  0  0  0  0
 26 24  1  0  0  0  0
 27 25  2  0  0  0  0
 28 27  1  0  0  0  0
M  END
>  <REMARK>
 SMILES Cn1c(COc2ccccc2C(=O)Nc2ccccc2)nnc1C1CCC1
 SMILES IDX 5 1 4 2 3 3 2 4 23 5 21 6 22 7 1 8 24 9 25 10 27 11 26 12
 SMILES IDX 6 13 7 14 11 15 8 16 10 17 9 18 12 19 14 20 13 21 15 23
 SMILES IDX 16 24 20 25 17 26 19 27 18 28
 H PARENT 14 22

>  <TORSDO>
F 6

$$$$
