/home/pchatterjee/Documents/git/vs_workflow/DiffDock/diffdock_run/pdbqt_scrubbed/Z1657744734.pdbqt
 OpenBabel10272516423D

 25 28  0  0  1  0  0  0  0  0999 V2000
   -1.7710    2.9120   -1.7300 O   0  0  0  0  0  0  0  0  0  0  0  0
   -1.9980    1.8200   -1.2260 C   0  0  0  0  0  0  0  0  0  0  0  0
   -1.1010    0.9150   -0.7210 N   0  0  0  0  0  0  0  0  0  0  0  0
   -1.4020    0.1340   -0.1610 H   0  0  0  0  0  0  0  0  0  0  0  0
   -3.4080    1.3950   -1.0920 C   0  0  0  0  0  0  0  0  0  0  0  0
   -4.3730    2.3020   -0.6300 C   0  0  0  0  0  3  0  0  0  0  0  0
   -3.8390    0.1060   -1.4380 C   0  0  0  0  0  0  0  0  0  0  0  0
   -5.7050    1.9140   -0.4790 C   0  0  0  0  0  3  0  0  0  0  0  0
   -3.1930   -0.9700   -1.9910 N   0  0  0  0  0  0  0  0  0  0  0  0
   -5.1620   -0.2990   -1.2910 C   0  0  0  0  0  0  0  0  0  0  0  0
   -6.1130    0.6130   -0.7970 C   0  0  0  0  0  3  0  0  0  0  0  0
   -3.9680   -2.0600   -2.1350 N   0  0  0  0  0  0  0  0  0  0  0  0
   -5.1700   -1.6420   -1.7290 C   0  0  0  0  0  3  0  0  0  0  0  0
   -2.2250   -1.0270   -2.2920 H   0  0  0  0  0  0  0  0  0  0  0  0
    0.2560    1.0280   -0.8010 C   0  0  0  0  0  0  0  0  0  0  0  0
    0.9180    1.9990   -1.4870 N   0  0  0  0  0  0  0  0  0  0  0  0
    1.0440    0.1180   -0.2220 N   0  0  0  0  0  2  0  0  0  0  0  0
    2.1810    1.6980   -1.3020 C   0  0  0  0  0  2  0  0  0  0  0  0
    2.2690    0.5750   -0.5390 N   0  0  2  0  0  0  0  0  0  0  0  0
    3.4890   -0.0940   -0.1070 C   0  0  0  0  0  3  0  0  0  0  0  0
    3.7090   -1.4350   -0.8260 C   0  0  0  0  0  2  0  0  0  0  0  0
    3.6030   -0.2170    1.4220 C   0  0  0  0  0  2  0  0  0  0  0  0
    2.9290   -2.5960   -0.2120 C   0  0  0  0  0  2  0  0  0  0  0  0
    2.8410   -1.4060    2.0090 C   0  0  0  0  0  2  0  0  0  0  0  0
    3.1740   -2.7070    1.2880 C   0  0  0  0  0  2  0  0  0  0  0  0
  1  2  2  0  0  0  0
  2  5  1  0  0  0  0
  2  3  1  0  0  0  0
  3  4  1  0  0  0  0
  5  6  1  0  0  0  0
  6  8  2  0  0  0  0
  7 10  1  0  0  0  0
  7  5  2  0  0  0  0
  9  7  1  0  0  0  0
 10 11  2  0  0  0  0
 11  8  1  0  0  0  0
 12  9  1  0  0  0  0
 12 13  2  0  0  0  0
 13 10  1  0  0  0  0
 14  9  1  0  0  0  0
 15  3  1  0  0  0  0
 15 17  1  0  0  0  0
 16 18  1  0  0  0  0
 16 15  2  0  0  0  0
 18 19  1  0  0  0  0
 19 17  1  0  0  0  0
 19 20  1  6  0  0  0
 20 22  1  0  0  0  0
 21 23  1  0  0  0  0
 21 20  1  0  0  0  0
 22 24  1  0  0  0  0
 23 25  1  0  0  0  0
 25 24  1  0  0  0  0
M  END
>  <REMARK>
 SMILES O=C(Nc1ncn(C2CCCCC2)n1)c1cccc2cn[nH]c12
 SMILES IDX 1 1 2 2 3 3 15 5 16 6 23 7 17 8 22 9 19 10 18 11 21 12 20 13
 SMILES IDX 4 15 5 16 14 17 6 18 7 19 8 20 9 21 13 22 10 23 12 24 11 25
 H PARENT 3 4 22 14

>  <TORSDO>
F 3

$$$$
