/home/pchatterjee/Documents/git/vs_workflow/DiffDock/diffdock_run/pdbqt_scrubbed/Z1657740785.pdbqt
 OpenBabel10272516423D

 27 30  0  0  1  0  0  0  0  0999 V2000
   -0.3150    3.6540    0.3170 C   0  0  0  0  0  0  0  0  0  0  0  0
   -0.9430    4.8880    0.1090 C   0  0  0  0  0  3  0  0  0  0  0  0
   -0.3240    5.8680   -0.6650 C   0  0  0  0  0  3  0  0  0  0  0  0
    0.9310    5.6260   -1.2290 C   0  0  0  0  0  3  0  0  0  0  0  0
    1.5880    4.4050   -1.0160 C   0  0  0  0  0  0  0  0  0  0  0  0
    0.9520    3.4240   -0.2350 C   0  0  0  0  0  3  0  0  0  0  0  0
   -1.0170    2.6340    1.1500 C   0  0  0  0  0  0  0  0  0  0  0  0
   -0.7540    1.3310    0.8100 N   0  0  0  0  0  0  0  0  0  0  0  0
   -1.7740    3.0350    2.0260 O   0  0  0  0  0  0  0  0  0  0  0  0
   -0.1920    1.0910    0.0090 H   0  0  0  0  0  0  0  0  0  0  0  0
   -1.2680    0.2350    1.4400 C   0  0  0  0  0  0  0  0  0  0  0  0
   -2.0740    0.2700    2.5380 N   0  0  0  0  0  0  0  0  0  0  0  0
   -0.9860   -0.9940    0.9960 N   0  0  0  0  0  2  0  0  0  0  0  0
   -2.3090   -0.9950    2.7900 C   0  0  0  0  0  2  0  0  0  0  0  0
   -1.6620   -1.7610    1.8730 N   0  0  1  0  0  0  0  0  0  0  0  0
   -1.6520   -3.2140    1.7840 C   0  0  0  0  0  3  0  0  0  0  0  0
   -2.4340   -3.6980    0.5490 C   0  0  0  0  0  2  0  0  0  0  0  0
   -0.2270   -3.7970    1.8670 C   0  0  0  0  0  2  0  0  0  0  0  0
   -2.0400   -5.1180    0.1650 C   0  0  0  0  0  2  0  0  0  0  0  0
    0.3220   -4.1810    0.4960 C   0  0  0  0  0  2  0  0  0  0  0  0
   -0.5590   -5.2180   -0.2040 C   0  0  0  0  0  2  0  0  0  0  0  0
    2.9080    4.1110   -1.5790 C   0  0  0  0  0  0  0  0  0  0  0  0
    3.5160    2.9390   -1.5910 N   0  0  0  0  0  0  0  0  0  0  0  0
    3.7390    5.0210   -2.1790 N   0  0  0  0  0  0  0  0  0  0  0  0
    4.7020    3.1920   -2.2160 C   0  0  0  0  0  3  0  0  0  0  0  0
    4.8820    4.4560   -2.5980 N   0  0  0  0  0  0  0  0  0  0  0  0
    3.5980    6.0130   -2.3250 H   0  0  0  0  0  0  0  0  0  0  0  0
  1  7  1  0  0  0  0
  2  1  1  0  0  0  0
  3  2  2  0  0  0  0
  4  5  2  0  0  0  0
  4  3  1  0  0  0  0
  5  6  1  0  0  0  0
  6  1  2  0  0  0  0
  7  9  2  0  0  0  0
  8  7  1  0  0  0  0
  8 11  1  0  0  0  0
 10  8  1  0  0  0  0
 11 12  2  0  0  0  0
 12 14  1  0  0  0  0
 13 11  1  0  0  0  0
 13 15  1  0  0  0  0
 15 16  1  6  0  0  0
 15 14  1  0  0  0  0
 16 18  1  0  0  0  0
 17 16  1  0  0  0  0
 19 17  1  0  0  0  0
 20 18  1  0  0  0  0
 21 19  1  0  0  0  0
 21 20  1  0  0  0  0
 22  5  1  0  0  0  0
 23 22  2  0  0  0  0
 24 22  1  0  0  0  0
 25 23  1  0  0  0  0
 26 25  2  0  0  0  0
 26 24  1  0  0  0  0
 27 24  1  0  0  0  0
M  END
>  <REMARK>
 SMILES O=C(Nc1ncn(C2CCCCC2)n1)c1cccc(-c2ncn[nH]2)c1
 SMILES IDX 15 1 16 2 17 3 18 4 19 5 25 6 2 7 3 8 1 9 4 11 5 12 14 13
 SMILES IDX 6 14 7 15 8 16 9 17 13 18 10 19 12 20 11 21 20 22 21 23
 SMILES IDX 24 24 22 25 23 26
 H PARENT 3 10 24 27

>  <TORSDO>
F 4

$$$$
