/home/pchatterjee/Documents/git/vs_workflow/DiffDock/diffdock_run/pdbqt_scrubbed/Z166744674.pdbqt
 OpenBabel10272516423D

 23 25  0  0  1  0  0  0  0  0999 V2000
    1.6130    0.3830    0.0770 N   0  0  0  0  0  0  0  0  0  0  0  0
    1.0270    0.9940   -1.0340 C   0  0  0  0  0  0  0  0  0  0  0  0
   -0.0480    1.8020   -0.7460 N   0  0  0  0  0  0  0  0  0  0  0  0
    1.4520    0.7920   -2.1700 O   0  0  0  0  0  0  0  0  0  0  0  0
   -0.5320    1.5780    0.1120 H   0  0  0  0  0  0  0  0  0  0  0  0
   -0.7360    2.6550   -1.6340 C   0  0  0  0  0  0  0  0  0  0  0  0
   -0.2630    3.0280   -2.8890 C   0  0  0  0  0  3  0  0  0  0  0  0
   -1.9570    3.1960   -1.2340 C   0  0  0  0  0  3  0  0  0  0  0  0
   -1.0150    3.8930   -3.6850 C   0  0  0  0  0  3  0  0  0  0  0  0
   -2.7110    4.0400   -1.9800 N   0  0  0  0  0  0  0  0  0  0  0  0
   -2.2200    4.3660   -3.1930 C   0  0  0  0  0  3  0  0  0  0  0  0
    1.3980    0.8090    1.4630 C   0  0  0  0  0  2  0  0  0  0  0  0
    0.3590   -0.0230    2.1530 C   0  0  0  0  0  0  0  0  0  0  0  0
    0.5560   -1.0870    3.0120 C   0  0  0  0  0  3  0  0  0  0  0  0
   -1.3110    0.3390    1.9950 S   0  0  0  0  0  0  0  0  0  0  0  0
   -0.6650   -1.6170    3.5200 C   0  0  0  0  0  3  0  0  0  0  0  0
   -1.7600   -0.9340    3.0410 C   0  0  0  0  0  3  0  0  0  0  0  0
    2.7060   -0.5680   -0.1780 C   0  0  0  0  0  2  0  0  0  0  0  0
    2.2900   -2.0220   -0.4540 C   0  0  2  0  0  3  0  0  0  0  0  0
    1.1030   -2.2610   -1.3700 C   0  0  0  0  0  2  0  0  0  0  0  0
    1.9900   -2.7280    0.7680 O   0  0  0  0  0  0  0  0  0  0  0  0
    0.7510   -3.6860   -1.0200 C   0  0  0  0  0  2  0  0  0  0  0  0
    0.9760   -3.7050    0.4770 C   0  0  0  0  0  2  0  0  0  0  0  0
  1 12  1  0  0  0  0
  2  3  1  0  0  0  0
  2  1  1  0  0  0  0
  3  5  1  0  0  0  0
  4  2  2  0  0  0  0
  6  8  1  0  0  0  0
  6  3  1  0  0  0  0
  7  6  2  0  0  0  0
  9 11  2  0  0  0  0
  9  7  1  0  0  0  0
 10  8  2  0  0  0  0
 11 10  1  0  0  0  0
 12 13  1  0  0  0  0
 13 14  2  0  0  0  0
 14 16  1  0  0  0  0
 15 13  1  0  0  0  0
 15 17  1  0  0  0  0
 17 16  2  0  0  0  0
 18  1  1  0  0  0  0
 19 18  1  1  0  0  0
 19 21  1  0  0  0  0
 20 22  1  0  0  0  0
 20 19  1  0  0  0  0
 22 23  1  0  0  0  0
 23 21  1  0  0  0  0
M  END
>  <REMARK>
 SMILES O=C(Nc1cccnc1)N(Cc1cccs1)CC1CCCO1
 SMILES IDX 10 1 2 2 3 3 1 4 4 6 5 7 9 8 6 9 8 10 7 11 11 12 12 13 13 14
 SMILES IDX 16 15 14 16 15 17 17 18 18 19 19 20 22 21 20 22 21 23
 H PARENT 3 5

>  <TORSDO>
F 6

$$$$
