/home/pchatterjee/Documents/git/vs_workflow/DiffDock/diffdock_run/pdbqt_scrubbed/Z1665619458.pdbqt
 OpenBabel10272516423D

 29 32  0  0  0  0  0  0  0  0999 V2000
    0.0230    0.9060   -0.9040 C   0  0  0  0  0  0  0  0  0  0  0  0
    1.0120    0.0110   -0.5760 C   0  0  0  0  0  3  0  0  0  0  0  0
    2.0130    0.7850    0.0630 C   0  0  0  0  0  0  0  0  0  0  0  0
    1.6760    2.0790    0.1200 N   0  0  0  0  0  0  0  0  0  0  0  0
    0.4690    2.1280   -0.4690 N   0  0  0  0  0  0  0  0  0  0  0  0
   -0.0130    3.0190   -0.5550 H   0  0  0  0  0  0  0  0  0  0  0  0
   -1.1850    0.6860   -1.5350 N   0  0  0  0  0  0  0  0  0  0  0  0
   -2.0780    1.7120   -1.8010 C   0  0  0  0  0  0  0  0  0  0  0  0
   -1.8480    2.8930   -1.5460 O   0  0  0  0  0  0  0  0  0  0  0  0
   -1.3930   -0.2620   -1.8250 H   0  0  0  0  0  0  0  0  0  0  0  0
   -3.3110    1.3110   -2.4490 C   0  0  0  0  0  0  0  0  0  0  0  0
   -4.1310    2.1100   -3.2990 C   0  0  0  0  0  0  0  0  0  0  0  0
   -5.1810    1.4230   -3.7610 N   0  0  0  0  0  0  0  0  0  0  0  0
   -5.0880    0.1710   -3.1870 O   0  0  0  0  0  0  0  0  0  0  0  0
   -3.9850    0.1060   -2.3910 C   0  0  0  0  0  0  0  0  0  0  0  0
   -3.9350    3.5230   -3.7030 C   0  0  0  0  0  1  0  0  0  0  0  0
   -3.8210   -1.1550   -1.6860 C   0  0  0  0  0  0  0  0  0  0  0  0
   -3.5360   -1.1780   -0.3130 C   0  0  0  0  0  3  0  0  0  0  0  0
   -3.9250   -2.3690   -2.3760 C   0  0  0  0  0  3  0  0  0  0  0  0
   -3.3410   -2.3920    0.3510 C   0  0  0  0  0  3  0  0  0  0  0  0
   -3.7320   -3.5830   -1.7100 C   0  0  0  0  0  3  0  0  0  0  0  0
   -3.4370   -3.5920   -0.3480 C   0  0  0  0  0  3  0  0  0  0  0  0
    3.3250    0.3240    0.6170 C   0  0  0  0  0  2  0  0  0  0  0  0
    3.2930    0.0910    2.1440 C   0  0  0  0  0  3  0  0  0  0  0  0
    4.7150    0.1000    2.7270 C   0  0  0  0  0  2  0  0  0  0  0  0
    2.5420   -1.2060    2.5250 C   0  0  0  0  0  2  0  0  0  0  0  0
    5.5450   -1.1150    2.3160 C   0  0  0  0  0  2  0  0  0  0  0  0
    3.4450   -2.3160    3.0650 C   0  0  0  0  0  2  0  0  0  0  0  0
    4.7430   -2.4150    2.2770 C   0  0  0  0  0  2  0  0  0  0  0  0
  1  2  2  0  0  0  0
  1  5  1  0  0  0  0
  2  3  1  0  0  0  0
  3  4  2  0  0  0  0
  3 23  1  0  0  0  0
  5  4  1  0  0  0  0
  6  5  1  0  0  0  0
  7  1  1  0  0  0  0
  8  9  2  0  0  0  0
  8  7  1  0  0  0  0
 10  7  1  0  0  0  0
 11 15  2  0  0  0  0
 11  8  1  0  0  0  0
 12 11  1  0  0  0  0
 13 12  2  0  0  0  0
 13 14  1  0  0  0  0
 14 15  1  0  0  0  0
 15 17  1  0  0  0  0
 16 12  1  0  0  0  0
 17 18  1  0  0  0  0
 18 20  2  0  0  0  0
 19 21  1  0  0  0  0
 19 17  2  0  0  0  0
 21 22  2  0  0  0  0
 22 20  1  0  0  0  0
 23 24  1  0  0  0  0
 24 26  1  0  0  0  0
 24 25  1  0  0  0  0
 26 28  1  0  0  0  0
 27 25  1  0  0  0  0
 29 27  1  0  0  0  0
 29 28  1  0  0  0  0
M  END
>  <REMARK>
 SMILES Cc1noc(-c2ccccc2)c1C(=O)Nc1cc(CC2CCCCC2)n[nH]1
 SMILES IDX 16 1 17 2 18 3 26 4 27 5 15 7 13 8 14 9 12 11 2 12 3 13 4 14
 SMILES IDX 5 15 1 16 6 17 7 18 11 19 8 20 10 21 9 22 19 23 20 24 21 25
 SMILES IDX 25 26 22 27 24 28 23 29
 H PARENT 27 6 15 10

>  <TORSDO>
F 5

$$$$
