/home/pchatterjee/Documents/git/vs_workflow/DiffDock/diffdock_run/pdbqt_scrubbed/Z1677967961.pdbqt
 OpenBabel10272516423D

 29 32  0  0  0  0  0  0  0  0999 V2000
   -4.1350    1.3910    0.9390 C   0  0  0  0  0  0  0  0  0  0  0  0
   -5.4200    1.6260    1.4630 C   0  0  0  0  0  3  0  0  0  0  0  0
   -6.5490    1.6140    0.6430 C   0  0  0  0  0  3  0  0  0  0  0  0
   -6.4090    1.3710   -0.7180 C   0  0  0  0  0  3  0  0  0  0  0  0
   -5.1450    1.1360   -1.2600 C   0  0  0  0  0  3  0  0  0  0  0  0
   -4.0040    1.1310   -0.4430 C   0  0  0  0  0  0  0  0  0  0  0  0
   -2.9930    1.4180    1.9270 C   0  0  0  0  0  0  0  0  0  0  0  0
   -1.7430    1.1970    1.4110 N   0  0  0  0  0  0  0  0  0  0  0  0
   -3.2560    1.6250    3.1090 O   0  0  0  0  0  0  0  0  0  0  0  0
   -1.6210    1.0520    0.4180 H   0  0  0  0  0  0  0  0  0  0  0  0
   -0.5740    1.1410    2.1090 C   0  0  0  0  0  0  0  0  0  0  0  0
   -0.3780    1.2950    3.4190 N   0  0  0  0  0  0  0  0  0  0  0  0
    0.5680    0.8850    1.3950 N   0  0  0  0  0  0  0  0  0  0  0  0
    0.9460    1.1360    3.5250 N   0  0  0  0  0  0  0  0  0  0  0  0
    1.5100    0.8870    2.3110 C   0  0  0  0  0  0  0  0  0  0  0  0
    1.3830    1.2060    4.4370 H   0  0  0  0  0  0  0  0  0  0  0  0
    3.0160    0.6360    2.0550 C   0  0  0  0  0  3  0  0  0  0  0  0
    3.5470    1.0990    0.6750 C   0  0  0  0  0  2  0  0  0  0  0  0
    3.3640   -0.8060    1.6110 C   0  0  0  0  0  2  0  0  0  0  0  0
    4.4070   -0.1820    0.6600 C   0  0  0  0  0  2  0  0  0  0  0  0
   -2.7450    0.9260   -0.9440 O   0  0  0  0  0  0  0  0  0  0  0  0
   -2.6280    0.1680   -2.1490 C   0  0  0  0  0  2  0  0  0  0  0  0
   -1.1800   -0.2380   -2.2660 C   0  0  0  0  0  0  0  0  0  0  0  0
   -0.6770   -1.2870   -1.4790 C   0  0  0  0  0  3  0  0  0  0  0  0
   -0.3050    0.4590   -3.1150 C   0  0  0  0  0  3  0  0  0  0  0  0
    0.6710   -1.6400   -1.5500 C   0  0  0  0  0  3  0  0  0  0  0  0
    1.0430    0.1030   -3.1840 C   0  0  0  0  0  3  0  0  0  0  0  0
    1.5180   -0.9420   -2.4010 C   0  0  0  0  0  0  0  0  0  0  0  0
    2.8140   -1.2770   -2.4640 F   0  0  0  0  0  0  0  0  0  0  0  0
  1  2  1  0  0  0  0
  1  7  1  0  0  0  0
  3  2  2  0  0  0  0
  4  3  1  0  0  0  0
  5  4  2  0  0  0  0
  5  6  1  0  0  0  0
  6  1  2  0  0  0  0
  7  9  2  0  0  0  0
  8  7  1  0  0  0  0
  8 11  1  0  0  0  0
 10  8  1  0  0  0  0
 11 12  2  0  0  0  0
 12 14  1  0  0  0  0
 13 11  1  0  0  0  0
 13 15  2  0  0  0  0
 14 16  1  0  0  0  0
 15 14  1  0  0  0  0
 17 15  1  0  0  0  0
 18 17  1  0  0  0  0
 19 17  1  0  0  0  0
 20 18  1  0  0  0  0
 20 19  1  0  0  0  0
 21  6  1  0  0  0  0
 22 21  1  0  0  0  0
 23 22  1  0  0  0  0
 23 24  1  0  0  0  0
 25 23  2  0  0  0  0
 26 24  2  0  0  0  0
 27 25  1  0  0  0  0
 27 28  2  0  0  0  0
 28 26  1  0  0  0  0
 29 28  1  0  0  0  0
M  END
>  <REMARK>
 SMILES O=C(Nc1n[nH]c(C2CCC2)n1)c1ccccc1OCc1ccc(F)cc1
 SMILES IDX 13 1 14 2 15 3 16 4 17 5 18 6 2 7 3 8 1 9 4 11 5 12 12 13
 SMILES IDX 6 14 7 15 8 17 9 18 11 19 10 20 19 21 20 22 21 23 22 24
 SMILES IDX 27 25 23 26 26 27 24 28 25 29
 H PARENT 3 10 6 16

>  <TORSDO>
F 6

$$$$
