/home/pchatterjee/Documents/git/vs_workflow/DiffDock/diffdock_run/pdbqt_scrubbed/Z1673780356.pdbqt
 OpenBabel10272516423D

 23 25  0  0  0  0  0  0  0  0999 V2000
   -1.1200    3.1810   -0.7180 C   0  0  0  0  0  0  0  0  0  0  0  0
   -1.4360    4.2140   -1.6220 C   0  0  0  0  0  3  0  0  0  0  0  0
   -1.6310    3.9450   -2.9740 C   0  0  0  0  0  3  0  0  0  0  0  0
   -1.5140    2.6410   -3.4350 C   0  0  0  0  0  3  0  0  0  0  0  0
   -1.2080    1.6040   -2.5480 C   0  0  0  0  0  3  0  0  0  0  0  0
   -1.0120    1.8500   -1.1850 C   0  0  0  0  0  0  0  0  0  0  0  0
   -0.9280    3.6040    0.7110 C   0  0  0  0  0  0  0  0  0  0  0  0
   -0.3540    2.6970    1.5690 N   0  0  0  0  0  0  0  0  0  0  0  0
   -1.2670    4.7240    1.0820 O   0  0  0  0  0  0  0  0  0  0  0  0
   -0.2770    1.7400    1.2410 H   0  0  0  0  0  0  0  0  0  0  0  0
   -0.3160    2.9330    2.9910 C   0  0  0  0  0  2  0  0  0  0  0  0
    0.6060    1.9550    3.6030 C   0  0  0  0  0  0  0  0  0  0  0  0
    1.9290    1.9870    3.9710 C   0  0  0  0  0  3  0  0  0  0  0  0
    0.0950    0.7210    3.8720 O   0  0  0  0  0  0  0  0  0  0  0  0
    2.1730    0.6980    4.4750 C   0  0  0  0  0  3  0  0  0  0  0  0
    1.0860   -0.0770    4.4210 N   0  0  0  0  0  0  0  0  0  0  0  0
   -0.7270    0.8910   -0.2570 O   0  0  0  0  0  0  0  0  0  0  0  0
   -0.6310   -0.5140   -0.5070 C   0  0  0  0  0  3  0  0  0  0  0  0
    0.5870   -0.9160   -1.3460 C   0  0  0  0  0  2  0  0  0  0  0  0
   -1.9500   -1.1710   -0.9310 C   0  0  0  0  0  2  0  0  0  0  0  0
    0.6850   -2.4320   -1.5000 C   0  0  0  0  0  2  0  0  0  0  0  0
   -1.7950   -2.6820   -1.0920 C   0  0  0  0  0  2  0  0  0  0  0  0
   -0.6230   -3.0360   -2.0040 C   0  0  0  0  0  2  0  0  0  0  0  0
  1  7  1  0  0  0  0
  2  1  2  0  0  0  0
  3  2  1  0  0  0  0
  4  3  2  0  0  0  0
  4  5  1  0  0  0  0
  5  6  2  0  0  0  0
  6  1  1  0  0  0  0
  6 17  1  0  0  0  0
  7  9  2  0  0  0  0
  7  8  1  0  0  0  0
  8 11  1  0  0  0  0
 10  8  1  0  0  0  0
 11 12  1  0  0  0  0
 12 14  1  0  0  0  0
 12 13  2  0  0  0  0
 13 15  1  0  0  0  0
 14 16  1  0  0  0  0
 16 15  2  0  0  0  0
 18 17  1  0  0  0  0
 19 18  1  0  0  0  0
 20 18  1  0  0  0  0
 21 19  1  0  0  0  0
 22 20  1  0  0  0  0
 23 21  1  0  0  0  0
 23 22  1  0  0  0  0
M  END
>  <REMARK>
 SMILES O=C(NCc1ccno1)c1ccccc1OC1CCCCC1
 SMILES IDX 10 1 11 2 12 3 13 4 14 5 15 6 2 7 3 8 1 9 4 11 5 12 6 13
 SMILES IDX 9 14 7 15 8 16 16 17 17 18 18 19 22 20 19 21 21 22 20 23
 H PARENT 3 10

>  <TORSDO>
F 5

$$$$
