/home/pchatterjee/Documents/git/vs_workflow/DiffDock/diffdock_run/pdbqt_scrubbed/Z168978470.pdbqt
 OpenBabel10272516423D

 26 28  0  0  1  0  0  0  0  0999 V2000
    1.6190   -0.4760   -1.1590 C   0  0  0  0  0  0  0  0  0  0  0  0
    2.0690   -1.3510   -2.0600 N   0  0  0  0  0  4  0  0  0  0  0  0
    1.8120   -2.6170   -1.7810 C   0  0  0  0  0  0  0  0  0  0  0  0
    1.1950   -3.0510   -0.6940 N   0  0  0  0  0  0  0  0  0  0  0  0
    0.7820   -2.1140    0.1550 C   0  0  0  0  0  0  0  0  0  0  0  0
    0.9910   -0.8180   -0.0330 N   0  0  0  0  0  2  0  0  0  0  0  0
    1.8740    0.9990   -1.4290 C   0  0  2  0  0  3  0  0  0  0  0  0
    2.9740    1.5000   -0.4940 C   0  0  0  0  0  1  0  0  0  0  0  0
    0.7180    1.8180   -1.1870 O   0  0  0  0  0  0  0  0  0  0  0  0
   -0.2820    1.8420   -2.1180 C   0  0  0  0  0  0  0  0  0  0  0  0
   -1.3540    2.6760   -1.7870 C   0  0  0  0  0  3  0  0  0  0  0  0
   -0.3190    1.1330   -3.3190 C   0  0  0  0  0  3  0  0  0  0  0  0
   -2.4510    2.8030   -2.6420 C   0  0  0  0  0  3  0  0  0  0  0  0
   -1.4180    1.2590   -4.1760 C   0  0  0  0  0  3  0  0  0  0  0  0
   -2.4820    2.0930   -3.8390 C   0  0  0  0  0  3  0  0  0  0  0  0
    2.2610   -3.5640   -2.6790 N   0  0  0  0  0  0  0  0  0  0  0  0
    2.3880   -4.4560   -2.2210 H   0  0  0  0  0  0  0  0  0  0  0  0
    3.0350   -3.2040   -3.2190 H   0  0  0  0  0  0  0  0  0  0  0  0
    0.1300   -2.5920    1.2900 N   0  0  0  0  0  0  0  0  0  0  0  0
    0.0570   -3.5970    1.2320 H   0  0  0  0  0  0  0  0  0  0  0  0
   -0.5620   -1.9760    2.3400 C   0  0  0  0  0  0  0  0  0  0  0  0
   -0.7620   -0.5960    2.4430 C   0  0  0  0  0  3  0  0  0  0  0  0
   -1.0400   -2.7820    3.3880 C   0  0  0  0  0  3  0  0  0  0  0  0
   -1.4340   -0.0390    3.5370 C   0  0  0  0  0  3  0  0  0  0  0  0
   -1.7120   -2.2310    4.4840 C   0  0  0  0  0  3  0  0  0  0  0  0
   -1.9110   -0.8570    4.5570 C   0  0  0  0  0  3  0  0  0  0  0  0
  1  6  1  0  0  0  0
  2  3  2  0  0  0  0
  2  1  2  0  0  0  0
  3  4  1  0  0  0  0
  4  5  2  0  0  0  0
  5 19  1  0  0  0  0
  6  5  1  0  0  0  0
  7  9  1  0  0  0  0
  7  1  1  0  0  0  0
  7  8  1  1  0  0  0
 10 11  1  0  0  0  0
 10  9  1  0  0  0  0
 12 10  2  0  0  0  0
 13 11  2  0  0  0  0
 14 15  2  0  0  0  0
 14 12  1  0  0  0  0
 15 13  1  0  0  0  0
 16 17  1  0  0  0  0
 16  3  1  0  0  0  0
 18 16  1  0  0  0  0
 19 21  1  0  0  0  0
 20 19  1  0  0  0  0
 21 22  2  0  0  0  0
 21 23  1  0  0  0  0
 22 24  1  0  0  0  0
 23 25  2  0  0  0  0
 24 26  2  0  0  0  0
 25 26  1  0  0  0  0
M  END
>  <REMARK>
 SMILES CC(Oc1ccccc1)c1nc(N)nc(Nc2ccccc2)n1
 SMILES IDX 10 1 11 2 12 3 14 4 15 5 23 6 2 7 1 8 3 9 4 10 5 11 9 12
 SMILES IDX 6 13 8 14 7 15 13 16 16 19 17 21 18 22 22 23 19 24 21 25
 SMILES IDX 20 26
 H PARENT 13 17 13 18 16 20

>  <TORSDO>
F 6

$$$$
