/home/pchatterjee/Documents/git/vs_workflow/DiffDock/diffdock_run/pdbqt_scrubbed/Z1719484408.pdbqt
 OpenBabel10272516423D

 29 31  0  0  1  0  0  0  0  0999 V2000
   -0.2880    0.3170    3.1000 C   0  0  0  0  0  2  0  0  0  0  0  0
   -0.4890   -0.8050    2.2050 N   0  0  0  0  0  0  0  0  0  0  0  0
   -0.2770   -2.0940    2.6190 C   0  0  0  0  0  0  0  0  0  0  0  0
    0.1560   -2.3710    3.7320 O   0  0  0  0  0  0  0  0  0  0  0  0
   -0.8240   -0.6390    1.2620 H   0  0  0  0  0  0  0  0  0  0  0  0
   -0.6240   -3.1780    1.6560 C   0  0  0  0  0  0  0  0  0  0  0  0
   -0.6740   -3.0080    0.2650 C   0  0  0  0  0  0  0  0  0  0  0  0
   -1.0670   -4.0770   -0.5490 C   0  0  0  0  0  3  0  0  0  0  0  0
   -1.3690   -5.3220    0.0060 C   0  0  0  0  0  3  0  0  0  0  0  0
   -0.9000   -4.4440    2.2000 C   0  0  0  0  0  3  0  0  0  0  0  0
   -1.2770   -5.5070    1.3850 C   0  0  0  0  0  3  0  0  0  0  0  0
   -0.4080   -1.7830   -0.3010 O   0  0  0  0  0  0  0  0  0  0  0  0
    0.7260   -1.8450   -1.1670 C   0  0  0  0  0  1  0  0  0  0  0  0
   -0.6750    1.6460    2.4510 C   0  0  0  0  0  0  0  0  0  0  0  0
    0.2740    2.2750    1.6310 N   0  0  0  0  0  0  0  0  0  0  0  0
    1.3160    1.5050    0.9510 C   0  0  0  0  0  2  0  0  0  0  0  0
   -0.2140    3.4560    0.9180 C   0  0  0  0  0  2  0  0  0  0  0  0
    2.4410    2.3770    0.3940 C   0  0  0  0  0  2  0  0  0  0  0  0
    0.9050    4.3380    0.3650 C   0  0  0  0  0  2  0  0  0  0  0  0
    1.9610    3.5690   -0.4420 C   0  0  2  0  0  3  0  0  0  0  0  0
   -1.8100    2.0970    2.6110 O   0  0  0  0  0  0  0  0  0  0  0  0
    1.4860    3.1820   -1.8550 C   0  0  0  0  0  2  0  0  0  0  0  0
    0.3930    2.2740   -1.7880 O   0  0  0  0  0  0  0  0  0  0  0  0
   -0.3420    2.0820   -2.9180 C   0  0  0  0  0  0  0  0  0  0  0  0
   -1.6110    1.5450   -2.7000 C   0  0  0  0  0  3  0  0  0  0  0  0
    0.0800    2.3580   -4.2170 C   0  0  0  0  0  3  0  0  0  0  0  0
   -2.4790    1.3240   -3.7680 C   0  0  0  0  0  3  0  0  0  0  0  0
   -0.7830    2.1210   -5.2900 C   0  0  0  0  0  3  0  0  0  0  0  0
   -2.0650    1.6110   -5.0660 C   0  0  0  0  0  3  0  0  0  0  0  0
  2  3  1  0  0  0  0
  2  1  1  0  0  0  0
  3  4  2  0  0  0  0
  5  2  1  0  0  0  0
  6 10  1  0  0  0  0
  6  3  1  0  0  0  0
  7  6  2  0  0  0  0
  8  9  2  0  0  0  0
  8  7  1  0  0  0  0
  9 11  1  0  0  0  0
 11 10  2  0  0  0  0
 12  7  1  0  0  0  0
 13 12  1  0  0  0  0
 14 21  2  0  0  0  0
 14  1  1  0  0  0  0
 15 14  1  0  0  0  0
 16 15  1  0  0  0  0
 17 15  1  0  0  0  0
 18 16  1  0  0  0  0
 19 17  1  0  0  0  0
 20 22  1  6  0  0  0
 20 19  1  0  0  0  0
 20 18  1  0  0  0  0
 22 23  1  0  0  0  0
 24 25  1  0  0  0  0
 24 23  1  0  0  0  0
 26 24  2  0  0  0  0
 27 25  2  0  0  0  0
 28 29  2  0  0  0  0
 28 26  1  0  0  0  0
 29 27  1  0  0  0  0
M  END
>  <REMARK>
 SMILES COc1ccccc1C(=O)NCC(=O)N1CCC(COc2ccccc2)CC1
 SMILES IDX 12 1 11 2 9 3 10 4 8 6 3 7 4 8 5 9 7 10 6 11 2 12 1 13 13 14
 SMILES IDX 15 15 16 16 28 17 17 18 27 19 18 20 14 21 19 22 20 23 21 24
 SMILES IDX 22 25 26 26 23 27 25 28 24 29
 H PARENT 11 5

>  <TORSDO>
F 7

$$$$
