/home/pchatterjee/Documents/git/vs_workflow/DiffDock/diffdock_run/pdbqt_scrubbed/Z1724269066.pdbqt
 OpenBabel10272516423D

 27 29  0  0  1  0  0  0  0  0999 V2000
   -1.4250    0.6850   -2.9720 C   0  0  0  0  0  0  0  0  0  0  0  0
   -2.5040    0.1170   -3.5970 N   0  0  0  0  0  0  0  0  0  0  0  0
   -2.1890   -0.9250   -4.3800 N   0  0  0  0  0  0  0  0  0  0  0  0
   -0.8620   -1.0130   -4.2700 C   0  0  0  0  0  3  0  0  0  0  0  0
   -0.3290   -0.0700   -3.3660 C   0  0  0  0  0  0  0  0  0  0  0  0
   -3.4780    0.4020   -3.5520 H   0  0  0  0  0  0  0  0  0  0  0  0
   -1.5560    1.8970   -2.1130 C   0  0  0  0  0  2  0  0  0  0  0  0
   -1.0540    3.1700   -2.7980 C   0  0  0  0  0  2  0  0  0  0  0  0
   -1.9230    3.6050   -3.9700 C   0  0  0  0  0  1  0  0  0  0  0  0
    1.0670    0.1180   -3.0190 C   0  0  0  0  0  0  0  0  0  0  0  0
    1.8860    0.4040   -3.8870 O   0  0  0  0  0  0  0  0  0  0  0  0
    1.4160   -0.0420   -1.6700 N   0  0  0  0  0  0  0  0  0  0  0  0
    2.8200    0.1310   -1.3160 C   0  0  0  0  0  2  0  0  0  0  0  0
    0.6160   -0.8790   -0.7640 C   0  0  0  0  0  2  0  0  0  0  0  0
    2.9820    0.7300    0.0810 C   0  0  0  0  0  2  0  0  0  0  0  0
    1.2300   -1.0120    0.6330 C   0  0  1  0  0  3  0  0  0  0  0  0
    1.8940    0.2960    1.0670 C   0  0  0  0  0  2  0  0  0  0  0  0
    0.1910   -1.5170    1.6310 C   0  0  0  0  0  0  0  0  0  0  0  0
   -0.8160   -0.6130    1.9160 N   0  0  0  0  0  0  0  0  0  0  0  0
    0.2920   -2.6540    2.0820 O   0  0  0  0  0  0  0  0  0  0  0  0
   -0.7630    0.2970    1.4780 H   0  0  0  0  0  0  0  0  0  0  0  0
   -1.9250   -0.7990    2.7700 C   0  0  0  0  0  0  0  0  0  0  0  0
   -2.1890   -1.9790    3.4660 C   0  0  0  0  0  3  0  0  0  0  0  0
   -2.8080    0.2810    2.9120 C   0  0  0  0  0  3  0  0  0  0  0  0
   -3.3160   -2.0790    4.2900 C   0  0  0  0  0  3  0  0  0  0  0  0
   -3.9330    0.1810    3.7350 C   0  0  0  0  0  3  0  0  0  0  0  0
   -4.1870   -1.0010    4.4240 C   0  0  0  0  0  3  0  0  0  0  0  0
  1  7  1  0  0  0  0
  2  6  1  0  0  0  0
  2  1  1  0  0  0  0
  3  4  2  0  0  0  0
  3  2  1  0  0  0  0
  4  5  1  0  0  0  0
  5 10  1  0  0  0  0
  5  1  2  0  0  0  0
  8  7  1  0  0  0  0
  9  8  1  0  0  0  0
 10 12  1  0  0  0  0
 11 10  2  0  0  0  0
 12 13  1  0  0  0  0
 12 14  1  0  0  0  0
 13 15  1  0  0  0  0
 14 16  1  0  0  0  0
 15 17  1  0  0  0  0
 16 17  1  0  0  0  0
 16 18  1  1  0  0  0
 18 19  1  0  0  0  0
 18 20  2  0  0  0  0
 19 22  1  0  0  0  0
 21 19  1  0  0  0  0
 22 24  2  0  0  0  0
 22 23  1  0  0  0  0
 23 25  2  0  0  0  0
 24 26  1  0  0  0  0
 25 27  1  0  0  0  0
 26 27  2  0  0  0  0
M  END
>  <REMARK>
 SMILES CCCc1[nH]ncc1C(=O)N1CCCC(C(=O)Nc2ccccc2)C1
 SMILES IDX 4 1 5 2 6 3 7 4 8 5 3 7 2 8 1 9 9 10 10 11 11 12 12 13 25 14
 SMILES IDX 13 15 15 16 14 17 16 18 18 19 17 20 19 22 20 23 24 24 21 25
 SMILES IDX 23 26 22 27
 H PARENT 5 6 18 21

>  <TORSDO>
F 6

$$$$
