/home/pchatterjee/Documents/git/vs_workflow/DiffDock/diffdock_run/pdbqt_scrubbed/Z1762067520.pdbqt
 OpenBabel10272516423D

 28 31  0  0  1  0  0  0  0  0999 V2000
   -0.7240   -0.1030    1.9260 C   0  0  2  0  0  3  0  0  0  0  0  0
   -1.4820    0.3450    3.1890 C   0  0  0  0  0  2  0  0  0  0  0  0
   -2.1850    1.6940    2.9960 C   0  0  0  0  0  2  0  0  0  0  0  0
   -1.2970    2.6810    2.2360 C   0  0  0  0  0  2  0  0  0  0  0  0
   -0.9100    2.1470    0.9270 N   0  0  0  0  0  0  0  0  0  0  0  0
   -1.1150    0.7150    0.6770 C   0  0  0  0  0  2  0  0  0  0  0  0
   -0.7520   -1.5630    1.7380 N   0  0  0  0  0  0  0  0  0  0  0  0
    0.1310   -1.8960    1.3530 H   0  0  0  0  0  0  0  0  0  0  0  0
   -1.8270   -2.2830    1.2230 C   0  0  0  0  0  0  0  0  0  0  0  0
   -3.9230   -3.9330    0.2680 C   0  0  0  0  0  3  0  0  0  0  0  0
   -2.6120   -4.3940    0.2570 C   0  0  0  0  0  3  0  0  0  0  0  0
   -4.1970   -2.6690    0.7780 C   0  0  0  0  0  3  0  0  0  0  0  0
   -1.5820   -3.5800    0.7430 C   0  0  0  0  0  3  0  0  0  0  0  0
   -3.1600   -1.8620    1.2630 C   0  0  0  0  0  3  0  0  0  0  0  0
    0.2070    2.7490    0.3580 C   0  0  0  0  0  0  0  0  0  0  0  0
    0.5370    3.9910    0.7450 N   0  0  0  0  0  0  0  0  0  0  0  0
    0.9130    2.0760   -0.5640 N   0  0  0  0  0  0  0  0  0  0  0  0
    1.6170    4.5500    0.1780 C   0  0  0  0  0  3  0  0  0  0  0  0
    1.9830    2.6550   -1.1280 C   0  0  0  0  0  0  0  0  0  0  0  0
    2.3840    3.9210   -0.7680 C   0  0  0  0  0  3  0  0  0  0  0  0
    2.7590    1.9590   -2.0790 N   0  0  0  0  0  0  0  0  0  0  0  0
    2.8520    2.5630   -2.8930 H   0  0  0  0  0  0  0  0  0  0  0  0
    2.2620    0.6180   -2.4510 C   0  0  2  0  0  3  0  0  0  0  0  0
    2.6130   -0.4220   -1.3670 C   0  0  0  0  0  2  0  0  0  0  0  0
    2.8810    0.2050   -3.8080 C   0  0  0  0  0  2  0  0  0  0  0  0
    3.9490   -1.0910   -1.6630 C   0  0  0  0  0  2  0  0  0  0  0  0
    2.9780   -1.2110   -3.9320 O   0  0  0  0  0  0  0  0  0  0  0  0
    3.9360   -1.7700   -3.0310 C   0  0  0  0  0  2  0  0  0  0  0  0
  1  7  1  6  0  0  0
  1  2  1  0  0  0  0
  3  2  1  0  0  0  0
  4  3  1  0  0  0  0
  5  4  1  0  0  0  0
  6  5  1  0  0  0  0
  6  1  1  0  0  0  0
  8  7  1  0  0  0  0
  9 14  1  0  0  0  0
  9  7  1  0  0  0  0
 10 12  1  0  0  0  0
 11 10  2  0  0  0  0
 11 13  1  0  0  0  0
 12 14  2  0  0  0  0
 13  9  2  0  0  0  0
 15 16  2  0  0  0  0
 15  5  1  0  0  0  0
 17 15  1  0  0  0  0
 18 16  1  0  0  0  0
 19 20  1  0  0  0  0
 19 17  2  0  0  0  0
 20 18  2  0  0  0  0
 21 19  1  0  0  0  0
 22 21  1  0  0  0  0
 23 21  1  1  0  0  0
 23 24  1  0  0  0  0
 25 23  1  0  0  0  0
 26 24  1  0  0  0  0
 27 25  1  0  0  0  0
 27 28  1  0  0  0  0
 28 26  1  0  0  0  0
M  END
>  <REMARK>
 SMILES c1ccc(NC2CCCN(c3nccc(NC4CCCOC4)n3)C2)cc1
 SMILES IDX 6 1 7 2 8 3 9 4 10 5 24 6 5 7 4 9 1 10 2 11 26 12 3 13 25 14
 SMILES IDX 11 15 12 16 23 17 13 18 15 19 14 20 16 21 17 23 18 24 22 25
 SMILES IDX 19 26 21 27 20 28
 H PARENT 5 8 16 22

>  <TORSDO>
F 5

$$$$
