/home/pchatterjee/Documents/git/vs_workflow/DiffDock/diffdock_run/pdbqt_scrubbed/Z1827616875.pdbqt
 OpenBabel10272516423D

 34 37  0  0  1  0  0  0  0  0999 V2000
    0.0160    0.6840   -2.6460 C   0  0  0  0  0  0  0  0  0  0  0  0
   -0.0410    1.6310   -3.4280 O   0  0  0  0  0  0  0  0  0  0  0  0
    1.1400    0.4210   -1.8960 N   0  0  0  0  0  0  0  0  0  0  0  0
    1.1150   -0.3980   -1.2950 H   0  0  0  0  0  0  0  0  0  0  0  0
   -1.1720   -0.2050   -2.4470 C   0  0  0  0  0  0  0  0  0  0  0  0
   -1.1120   -1.5020   -1.8980 C   0  0  0  0  0  0  0  0  0  0  0  0
   -2.3010   -2.2350   -1.7610 C   0  0  0  0  0  3  0  0  0  0  0  0
   -3.5260   -1.6990   -2.1670 C   0  0  0  0  0  3  0  0  0  0  0  0
   -2.4110    0.3170   -2.8590 C   0  0  0  0  0  3  0  0  0  0  0  0
   -3.5820   -0.4250   -2.7190 C   0  0  0  0  0  3  0  0  0  0  0  0
    0.1210   -1.9810   -1.5320 O   0  0  0  0  0  0  0  0  0  0  0  0
    0.2010   -3.3180   -1.0420 C   0  0  0  0  0  2  0  0  0  0  0  0
    1.6600   -3.6110   -0.7410 C   0  0  0  0  0  1  0  0  0  0  0  0
    2.3790    1.1450   -2.0710 C   0  0  0  0  0  2  0  0  0  0  0  0
    2.9580    2.1060   -1.0040 C   0  0  0  0  0  0  0  0  0  0  0  0
    4.1430    2.4500   -1.1480 O   0  0  0  0  0  0  0  0  0  0  0  0
    2.2190    2.6190    0.0570 N   0  0  0  0  0  0  0  0  0  0  0  0
    2.8600    3.6600    0.8710 C   0  0  0  0  0  2  0  0  0  0  0  0
    0.7720    2.4240    0.2570 C   0  0  2  0  0  3  0  0  0  0  0  0
    2.3110    3.7300    2.2900 C   0  0  0  0  0  2  0  0  0  0  0  0
    0.1230    3.6060    0.9960 C   0  0  0  0  0  2  0  0  0  0  0  0
    0.7980    3.9300    2.3270 C   0  0  0  0  0  2  0  0  0  0  0  0
    0.5230    1.1310    0.9950 C   0  0  0  0  0  0  0  0  0  0  0  0
   -0.6300    0.5060    1.1300 N   0  0  0  0  0  0  0  0  0  0  0  0
    1.5200    0.4220    1.6210 N   0  0  0  0  0  0  0  0  0  0  0  0
   -0.3720   -0.6330    1.8630 C   0  0  0  0  0  0  0  0  0  0  0  0
    0.9680   -0.6970    2.1760 C   0  0  0  0  0  3  0  0  0  0  0  0
    2.4930    0.6970    1.6440 H   0  0  0  0  0  0  0  0  0  0  0  0
   -1.3970   -1.6070    2.2110 C   0  0  0  0  0  0  0  0  0  0  0  0
   -2.7090   -1.4210    1.7520 C   0  0  0  0  0  3  0  0  0  0  0  0
   -1.1170   -2.7410    2.9880 C   0  0  0  0  0  3  0  0  0  0  0  0
   -3.7130   -2.3470    2.0510 C   0  0  0  0  0  3  0  0  0  0  0  0
   -2.1210   -3.6670    3.2900 C   0  0  0  0  0  3  0  0  0  0  0  0
   -3.4180   -3.4700    2.8190 C   0  0  0  0  0  3  0  0  0  0  0  0
  1  5  1  0  0  0  0
  1  3  1  0  0  0  0
  2  1  2  0  0  0  0
  3  4  1  0  0  0  0
  5  6  1  0  0  0  0
  6  7  2  0  0  0  0
  6 11  1  0  0  0  0
  8  7  1  0  0  0  0
  9 10  1  0  0  0  0
  9  5  2  0  0  0  0
 10  8  2  0  0  0  0
 11 12  1  0  0  0  0
 12 13  1  0  0  0  0
 14  3  1  0  0  0  0
 14 15  1  0  0  0  0
 15 17  1  0  0  0  0
 16 15  2  0  0  0  0
 17 19  1  0  0  0  0
 17 18  1  0  0  0  0
 18 20  1  0  0  0  0
 19 23  1  1  0  0  0
 19 21  1  0  0  0  0
 20 22  1  0  0  0  0
 21 22  1  0  0  0  0
 23 24  2  0  0  0  0
 23 25  1  0  0  0  0
 24 26  1  0  0  0  0
 25 28  1  0  0  0  0
 25 27  1  0  0  0  0
 26 27  2  0  0  0  0
 26 29  1  0  0  0  0
 29 31  1  0  0  0  0
 30 32  1  0  0  0  0
 30 29  2  0  0  0  0
 31 33  2  0  0  0  0
 32 34  2  0  0  0  0
 34 33  1  0  0  0  0
M  END
>  <REMARK>
 SMILES CCOc1ccccc1C(=O)NCC(=O)N1CCCCC1c1nc(-c2ccccc2)c[nH]1
 SMILES IDX 10 1 11 2 12 3 9 5 4 6 5 7 6 8 8 9 7 10 3 11 2 12 1 13 13 14
 SMILES IDX 14 15 15 16 16 17 17 18 21 19 18 20 20 21 19 22 22 23 23 24
 SMILES IDX 32 25 24 26 31 27 25 29 26 30 30 31 27 32 29 33 28 34
 H PARENT 12 4 32 28

>  <TORSDO>
F 8

$$$$
