/home/pchatterjee/Documents/git/vs_workflow/DiffDock/diffdock_run/pdbqt_scrubbed/Z1822975975.pdbqt
 OpenBabel10272516423D

 29 32  0  0  1  0  0  0  0  0999 V2000
   -3.4150   -1.2880   -3.6660 C   0  0  0  0  0  0  0  0  0  0  0  0
   -2.8170   -2.5270   -3.8590 C   0  0  0  0  0  3  0  0  0  0  0  0
   -1.5200   -2.7490   -3.3910 C   0  0  0  0  0  3  0  0  0  0  0  0
   -0.8000   -1.7380   -2.7270 C   0  0  0  0  0  0  0  0  0  0  0  0
   -1.3890   -0.4730   -2.5570 C   0  0  0  0  0  0  0  0  0  0  0  0
   -2.7020   -0.2730   -3.0160 C   0  0  0  0  0  3  0  0  0  0  0  0
   -4.6770   -0.9340   -4.0590 O   0  0  0  0  0  0  0  0  0  0  0  0
   -5.4470   -1.9280   -4.7250 C   0  0  0  0  0  1  0  0  0  0  0  0
   -0.6530    0.5110   -1.9410 O   0  0  0  0  0  0  0  0  0  0  0  0
   -1.0930    1.8610   -2.1400 C   0  0  0  0  0  2  0  0  0  0  0  0
   -0.0570    2.8480   -1.6820 C   0  0  0  0  0  3  0  0  0  0  0  0
    1.4190    2.5570   -1.7730 C   0  0  0  0  0  2  0  0  0  0  0  0
    0.7470    2.6310   -0.4270 C   0  0  0  0  0  2  0  0  0  0  0  0
    0.5670   -2.1170   -2.2530 C   0  0  0  0  0  0  0  0  0  0  0  0
    1.1110   -1.3880   -1.2270 N   0  0  0  0  0  0  0  0  0  0  0  0
    1.1470   -3.0790   -2.7500 O   0  0  0  0  0  0  0  0  0  0  0  0
    0.6310   -0.5520   -0.9020 H   0  0  0  0  0  0  0  0  0  0  0  0
    2.4200   -1.6990   -0.6710 C   0  0  1  0  0  3  0  0  0  0  0  0
    3.5340   -1.0920   -1.5210 C   0  0  0  0  0  1  0  0  0  0  0  0
    2.4910   -1.1940    0.7310 C   0  0  0  0  0  0  0  0  0  0  0  0
    1.8070   -0.2380    1.3240 N   0  0  0  0  0  0  0  0  0  0  0  0
    3.4070   -1.7900    1.5500 O   0  0  0  0  0  0  0  0  0  0  0  0
    2.3390   -0.2440    2.5880 C   0  0  0  0  0  0  0  0  0  0  0  0
    3.3050   -1.1520    2.7870 N   0  0  0  0  0  0  0  0  0  0  0  0
    1.8730    0.6990    3.6360 C   0  0  0  0  0  3  0  0  0  0  0  0
    1.3230    0.0260    4.8940 C   0  0  0  0  0  2  0  0  0  0  0  0
    2.9660    1.6100    4.1900 C   0  0  0  0  0  2  0  0  0  0  0  0
    1.4310    1.0820    5.9940 C   0  0  0  0  0  2  0  0  0  0  0  0
    2.3300    2.1890    5.4460 C   0  0  0  0  0  2  0  0  0  0  0  0
  1  6  1  0  0  0  0
  2  1  2  0  0  0  0
  2  3  1  0  0  0  0
  3  4  2  0  0  0  0
  4  5  1  0  0  0  0
  4 14  1  0  0  0  0
  5  9  1  0  0  0  0
  6  5  2  0  0  0  0
  7  1  1  0  0  0  0
  8  7  1  0  0  0  0
 10  9  1  0  0  0  0
 10 11  1  0  0  0  0
 11 13  1  0  0  0  0
 12 11  1  0  0  0  0
 12 13  1  0  0  0  0
 14 15  1  0  0  0  0
 15 17  1  0  0  0  0
 15 18  1  0  0  0  0
 16 14  2  0  0  0  0
 18 19  1  6  0  0  0
 18 20  1  0  0  0  0
 20 21  2  0  0  0  0
 20 22  1  0  0  0  0
 21 23  1  0  0  0  0
 22 24  1  0  0  0  0
 23 24  2  0  0  0  0
 23 25  1  0  0  0  0
 25 27  1  0  0  0  0
 25 26  1  0  0  0  0
 26 28  1  0  0  0  0
 27 29  1  0  0  0  0
 29 28  1  0  0  0  0
M  END
>  <REMARK>
 SMILES COc1ccc(C(=O)NC(C)c2nc(C3CCCC3)no2)c(OCC2CC2)c1
 SMILES IDX 3 1 4 2 5 3 6 4 22 5 28 6 2 7 1 8 23 9 24 10 25 11 26 12
 SMILES IDX 27 13 7 14 9 15 8 16 10 18 11 19 12 20 13 21 21 22 14 23
 SMILES IDX 20 24 15 25 16 26 19 27 17 28 18 29
 H PARENT 9 17

>  <TORSDO>
F 8

$$$$
