/home/pchatterjee/Documents/git/vs_workflow/DiffDock/diffdock_run/pdbqt_scrubbed/Z1833218652.pdbqt
 OpenBabel10272516423D

 26 29  0  0  1  0  0  0  0  0999 V2000
   -1.6530    0.3550    0.9910 C   0  0  0  0  0  0  0  0  0  0  0  0
   -1.5400   -1.0210    1.2290 C   0  0  0  0  0  3  0  0  0  0  0  0
   -0.8970   -1.8530    0.3110 C   0  0  0  0  0  3  0  0  0  0  0  0
   -0.3690   -1.3190   -0.8640 C   0  0  0  0  0  3  0  0  0  0  0  0
   -0.4960    0.0430   -1.1240 C   0  0  0  0  0  0  0  0  0  0  0  0
   -1.1200    0.8780   -0.1890 C   0  0  0  0  0  3  0  0  0  0  0  0
   -2.3080    1.1210    1.9790 N   0  0  0  0  0  0  0  0  0  0  0  0
   -2.5280    2.4880    1.9900 C   0  0  0  0  0  0  0  0  0  0  0  0
   -2.1590    3.2720    1.1230 O   0  0  0  0  0  0  0  0  0  0  0  0
   -2.6230    0.6080    2.7880 H   0  0  0  0  0  0  0  0  0  0  0  0
   -3.2610    2.9600    3.1650 C   0  0  0  0  0  0  0  0  0  0  0  0
   -3.9790    2.2270    4.0980 C   0  0  0  0  0  3  0  0  0  0  0  0
   -3.4280    4.2980    3.6110 C   0  0  0  0  0  0  0  0  0  0  0  0
   -4.4980    3.1260    4.9870 N   0  0  0  0  0  0  0  0  0  0  0  0
   -4.1780    4.3950    4.7120 N   0  0  0  0  0  0  0  0  0  0  0  0
   -5.0830    2.9450    5.7970 H   0  0  0  0  0  0  0  0  0  0  0  0
   -2.8170    5.5470    2.9150 C   0  0  0  0  0  3  0  0  0  0  0  0
   -1.3570    5.8570    3.1330 C   0  0  0  0  0  2  0  0  0  0  0  0
   -2.4060    6.7430    3.7370 C   0  0  0  0  0  2  0  0  0  0  0  0
    0.0170    0.6690   -2.2260 O   0  0  0  0  0  0  0  0  0  0  0  0
   -0.0710   -0.0370   -3.4710 C   0  0  0  0  0  2  0  0  0  0  0  0
    1.3290   -0.3610   -3.9940 C   0  0  2  0  0  3  0  0  0  0  0  0
    1.3450   -0.7030   -5.4750 C   0  0  0  0  0  2  0  0  0  0  0  0
    1.8800   -1.5230   -3.3370 O   0  0  0  0  0  0  0  0  0  0  0  0
    2.6250   -1.4920   -5.5900 C   0  0  0  0  0  2  0  0  0  0  0  0
    2.6260   -2.2840   -4.2990 C   0  0  0  0  0  2  0  0  0  0  0  0
  1  2  1  0  0  0  0
  1  7  1  0  0  0  0
  3  2  2  0  0  0  0
  4  3  1  0  0  0  0
  5  4  2  0  0  0  0
  5  6  1  0  0  0  0
  6  1  2  0  0  0  0
  7  8  1  0  0  0  0
  7 10  1  0  0  0  0
  8 11  1  0  0  0  0
  9  8  2  0  0  0  0
 11 13  1  0  0  0  0
 11 12  2  0  0  0  0
 12 14  1  0  0  0  0
 13 15  2  0  0  0  0
 14 16  1  0  0  0  0
 15 14  1  0  0  0  0
 17 18  1  0  0  0  0
 17 13  1  0  0  0  0
 17 19  1  0  0  0  0
 18 19  1  0  0  0  0
 20  5  1  0  0  0  0
 21 20  1  0  0  0  0
 22 21  1  1  0  0  0
 22 24  1  0  0  0  0
 23 22  1  0  0  0  0
 25 23  1  0  0  0  0
 25 26  1  0  0  0  0
 26 24  1  0  0  0  0
M  END
>  <REMARK>
 SMILES O=C(Nc1cccc(OCC2CCCO2)c1)c1c[nH]nc1C1CC1
 SMILES IDX 4 1 5 2 6 3 7 4 8 5 16 6 3 7 2 8 1 9 17 11 18 12 21 13 19 14
 SMILES IDX 20 15 22 17 23 18 24 19 9 20 10 21 11 22 12 23 15 24 13 25
 SMILES IDX 14 26
 H PARENT 3 10 19 16

>  <TORSDO>
F 6

$$$$
