/home/pchatterjee/Documents/git/vs_workflow/DiffDock/diffdock_run/pdbqt_scrubbed/Z1833516258.pdbqt
 OpenBabel10272516423D

 24 27  0  0  0  0  0  0  0  0999 V2000
    0.2500    0.5400   -2.0990 C   0  0  0  0  0  1  0  0  0  0  0  0
   -0.3790    1.4750   -1.1260 C   0  0  0  0  0  0  0  0  0  0  0  0
   -0.4480    2.8130   -1.4900 N   0  0  0  0  0  0  0  0  0  0  0  0
   -1.0780    3.5070   -0.5670 C   0  0  0  0  0  0  0  0  0  0  0  0
   -1.6240    2.6030    0.7840 S   0  0  0  0  0  0  0  0  0  0  0  0
   -0.9380    1.1780    0.1100 C   0  0  0  0  0  0  0  0  0  0  0  0
   -1.0430   -0.0710    0.8470 C   0  0  0  0  0  0  0  0  0  0  0  0
    0.0560   -0.8940    0.7020 N   0  0  0  0  0  0  0  0  0  0  0  0
   -2.0140   -0.3430    1.5470 O   0  0  0  0  0  0  0  0  0  0  0  0
    0.8650   -0.5380    0.2030 H   0  0  0  0  0  0  0  0  0  0  0  0
    0.2620   -2.1820    1.2350 C   0  0  0  0  0  0  0  0  0  0  0  0
   -0.6610   -2.9070    1.9980 C   0  0  0  0  0  3  0  0  0  0  0  0
    1.5070   -2.7860    0.9590 C   0  0  0  0  0  0  0  0  0  0  0  0
   -0.3510   -4.1870    2.4760 C   0  0  0  0  0  3  0  0  0  0  0  0
    2.5720   -2.2930    0.2310 N   0  0  0  0  0  0  0  0  0  0  0  0
    1.7860   -4.0570    1.4480 C   0  0  0  0  0  0  0  0  0  0  0  0
    0.8830   -4.7940    2.2130 C   0  0  0  0  0  3  0  0  0  0  0  0
    3.4830   -3.2390    0.2780 C   0  0  0  0  0  3  0  0  0  0  0  0
    3.0560   -4.3200    0.9990 N   0  0  0  0  0  0  0  0  0  0  0  0
    3.5830   -5.1630    1.1700 H   0  0  0  0  0  0  0  0  0  0  0  0
   -1.3340    4.9850   -0.6470 C   0  0  0  0  0  2  0  0  0  0  0  0
   -0.3350    5.8340    0.0950 C   0  0  0  0  0  3  0  0  0  0  0  0
   -0.0570    7.2470   -0.3510 C   0  0  0  0  0  2  0  0  0  0  0  0
    0.9900    6.1830   -0.5340 C   0  0  0  0  0  2  0  0  0  0  0  0
  1  2  1  0  0  0  0
  2  6  2  0  0  0  0
  3  2  1  0  0  0  0
  3  4  2  0  0  0  0
  4  5  1  0  0  0  0
  6  5  1  0  0  0  0
  6  7  1  0  0  0  0
  7  9  2  0  0  0  0
  8  7  1  0  0  0  0
  8 11  1  0  0  0  0
 10  8  1  0  0  0  0
 11 12  1  0  0  0  0
 12 14  2  0  0  0  0
 13 11  2  0  0  0  0
 13 16  1  0  0  0  0
 15 18  2  0  0  0  0
 15 13  1  0  0  0  0
 16 17  2  0  0  0  0
 17 14  1  0  0  0  0
 18 19  1  0  0  0  0
 19 20  1  0  0  0  0
 19 16  1  0  0  0  0
 21  4  1  0  0  0  0
 21 22  1  0  0  0  0
 23 22  1  0  0  0  0
 24 23  1  0  0  0  0
 24 22  1  0  0  0  0
M  END
>  <REMARK>
 SMILES Cc1nc(CC2CC2)sc1C(=O)Nc1cccc2[nH]cnc12
 SMILES IDX 1 1 2 2 3 3 4 4 9 5 10 6 11 7 13 8 12 9 14 11 15 12 22 13
 SMILES IDX 16 14 21 15 18 16 17 17 20 18 19 19 5 21 6 22 7 23 8 24
 H PARENT 13 10 19 20

>  <TORSDO>
F 4

$$$$
