/home/pchatterjee/Documents/git/vs_workflow/DiffDock/diffdock_run/pdbqt_scrubbed/Z1887562379.pdbqt
 OpenBabel10272516423D

 25 28  0  0  1  0  0  0  0  0999 V2000
   -0.2530    0.7240   -2.1010 N   0  0  0  0  0  4  0  0  0  0  0  0
   -1.1760    0.6630   -3.2880 C   0  0  0  0  0  2  0  0  0  0  0  0
   -2.5920    1.1090   -2.9210 C   0  0  0  0  0  2  0  0  0  0  0  0
   -2.9710    0.7780   -1.4820 C   0  0  0  0  0  2  0  0  0  0  0  0
   -1.9940    1.3850   -0.4670 C   0  0  0  0  0  2  0  0  0  0  0  0
   -0.6510    1.7850   -1.0870 C   0  0  1  0  0  3  0  0  0  0  0  0
    0.6630    1.0530   -2.4520 H   0  0  0  0  0  0  0  0  0  0  0  0
    0.0990   -0.6380   -1.5110 C   0  0  0  0  0  2  0  0  0  0  0  0
    1.1560   -1.3140   -2.3100 C   0  0  0  0  0  0  0  0  0  0  0  0
    1.9970   -2.3370   -1.8940 N   0  0  0  0  0  0  0  0  0  0  0  0
    2.9050   -2.4470   -2.9230 C   0  0  0  0  0  3  0  0  0  0  0  0
    2.6190   -1.6060   -3.8880 N   0  0  0  0  0  0  0  0  0  0  0  0
    1.5230   -0.8970   -3.5080 N   0  0  0  0  0  0  0  0  0  0  0  0
    1.9930   -3.1030   -0.6970 C   0  0  0  0  0  0  0  0  0  0  0  0
    2.0410   -4.6210    1.6650 C   0  0  0  0  0  3  0  0  0  0  0  0
    3.2050   -4.4550    0.9210 C   0  0  0  0  0  3  0  0  0  0  0  0
    0.8520   -4.0460    1.2280 C   0  0  0  0  0  3  0  0  0  0  0  0
    3.1840   -3.7060   -0.2580 C   0  0  0  0  0  3  0  0  0  0  0  0
    0.8220   -3.2920    0.0500 C   0  0  0  0  0  3  0  0  0  0  0  0
    0.4300    2.0990   -0.0840 C   0  0  0  0  0  0  0  0  0  0  0  0
    0.1820    2.6010    1.1610 N   0  0  0  0  0  0  0  0  0  0  0  0
    1.7280    1.8810   -0.3560 N   0  0  0  0  0  2  0  0  0  0  0  0
    1.3830    2.7480    1.6720 C   0  0  0  0  0  2  0  0  0  0  0  0
    2.3160    2.3360    0.7720 N   0  0  0  0  0  0  0  0  0  0  0  0
    3.3290    2.3330    0.8550 H   0  0  0  0  0  0  0  0  0  0  0  0
  1  8  1  0  0  0  0
  1  6  1  0  0  0  0
  2  3  1  0  0  0  0
  2  1  1  0  0  0  0
  3  4  1  0  0  0  0
  4  5  1  0  0  0  0
  6  5  1  0  0  0  0
  6 20  1  1  0  0  0
  7  1  1  0  0  0  0
  9 10  1  0  0  0  0
  9  8  1  0  0  0  0
 10 14  1  0  0  0  0
 11 10  1  0  0  0  0
 12 13  1  0  0  0  0
 12 11  2  0  0  0  0
 13  9  2  0  0  0  0
 14 18  2  0  0  0  0
 14 19  1  0  0  0  0
 16 15  2  0  0  0  0
 17 15  1  0  0  0  0
 18 16  1  0  0  0  0
 19 17  2  0  0  0  0
 20 21  2  0  0  0  0
 21 23  1  0  0  0  0
 22 20  1  0  0  0  0
 22 24  1  0  0  0  0
 24 25  1  0  0  0  0
 24 23  1  0  0  0  0
M  END
>  <REMARK>
 SMILES c1ccc(-n2cnnc2C[NH+]2CCCCC2c2nc[nH]n2)cc1
 SMILES IDX 11 1 12 2 13 3 14 4 15 5 16 6 10 8 9 9 5 10 6 11 7 12 8 13
 SMILES IDX 4 14 1 15 2 16 23 17 3 18 22 19 17 20 18 21 21 22 19 23
 SMILES IDX 20 24
 H PARENT 11 7 20 25

>  <TORSDO>
F 4

$$$$
