/home/pchatterjee/Documents/git/vs_workflow/DiffDock/diffdock_run/pdbqt_scrubbed/Z1883550081.pdbqt
 OpenBabel10272516423D

 27 30  0  0  1  0  0  0  0  0999 V2000
   -0.4320   -0.5270    1.1340 C   0  0  0  0  0  0  0  0  0  0  0  0
   -0.2180    0.1560   -0.0640 C   0  0  0  0  0  3  0  0  0  0  0  0
   -1.2820    0.7620   -0.7500 C   0  0  0  0  0  3  0  0  0  0  0  0
   -2.5870    0.7140   -0.2570 C   0  0  0  0  0  0  0  0  0  0  0  0
   -2.7910    0.0450    0.9590 C   0  0  0  0  0  3  0  0  0  0  0  0
   -1.7310   -0.5590    1.6470 C   0  0  0  0  0  3  0  0  0  0  0  0
    0.6010   -1.1270    1.8820 N   0  0  0  0  0  0  0  0  0  0  0  0
    0.7250   -0.6470    2.7700 H   0  0  0  0  0  0  0  0  0  0  0  0
    1.8840   -1.4950    1.4480 C   0  0  1  0  0  3  0  0  0  0  0  0
    4.1780   -1.5200    1.9160 C   0  0  0  0  0  0  0  0  0  0  0  0
    2.9170   -1.1770    2.2680 N   0  0  0  0  0  0  0  0  0  0  0  0
    4.5520   -2.1670    0.7960 N   0  0  0  0  0  2  0  0  0  0  0  0
    3.5020   -2.4930    0.0310 C   0  0  0  0  0  0  0  0  0  0  0  0
    2.1680   -2.2100    0.2740 C   0  0  0  0  0  0  0  0  0  0  0  0
    3.5880   -3.1820   -1.1480 N   0  0  0  0  0  0  0  0  0  0  0  0
    1.4320   -2.7860   -0.8030 C   0  0  0  0  0  3  0  0  0  0  0  0
    2.3330   -3.3720   -1.6670 C   0  0  0  0  0  3  0  0  0  0  0  0
    5.2730   -1.0950    2.8460 C   0  0  0  0  0  1  0  0  0  0  0  0
    4.4580   -3.5040   -1.5470 H   0  0  0  0  0  0  0  0  0  0  0  0
   -3.6860    1.2990   -0.8900 N   0  0  0  0  0  0  0  0  0  0  0  0
   -4.5870    1.1800   -0.4530 H   0  0  0  0  0  0  0  0  0  0  0  0
   -3.8570    2.0230   -2.0670 C   0  0  0  0  0  0  0  0  0  0  0  0
   -2.8310    2.3280   -2.8750 N   0  0  0  0  0  0  0  0  0  0  0  0
   -5.1260    2.3890   -2.3220 N   0  0  0  0  0  0  0  0  0  0  0  0
   -3.1050    3.0340   -3.9880 C   0  0  0  0  0  3  0  0  0  0  0  0
   -5.3530    3.0940   -3.4470 C   0  0  0  0  0  3  0  0  0  0  0  0
   -4.3660    3.4500   -4.3300 C   0  0  0  0  0  3  0  0  0  0  0  0
  1  6  1  0  0  0  0
  1  7  1  0  0  0  0
  2  1  2  0  0  0  0
  3  4  2  0  0  0  0
  3  2  1  0  0  0  0
  4  5  1  0  0  0  0
  5  6  2  0  0  0  0
  7  8  1  0  0  0  0
  9  7  1  1  0  0  0
  9 11  1  0  0  0  0
 10 11  2  0  0  0  0
 10 18  1  0  0  0  0
 12 10  1  0  0  0  0
 13 14  2  0  0  0  0
 13 12  1  0  0  0  0
 14  9  1  0  0  0  0
 15 13  1  0  0  0  0
 16 14  1  0  0  0  0
 17 15  1  0  0  0  0
 17 16  2  0  0  0  0
 19 15  1  0  0  0  0
 20 21  1  0  0  0  0
 20  4  1  0  0  0  0
 22 20  1  0  0  0  0
 23 22  2  0  0  0  0
 24 22  1  0  0  0  0
 25 23  1  0  0  0  0
 26 24  2  0  0  0  0
 27 25  2  0  0  0  0
 27 26  1  0  0  0  0
M  END
>  <REMARK>
 SMILES Cc1nc(Nc2ccc(Nc3ncccn3)cc2)c2cc[nH]c2n1
 SMILES IDX 6 1 7 2 8 3 9 4 17 5 18 6 5 7 4 9 2 10 3 11 24 12 23 13
 SMILES IDX 19 14 22 15 20 16 21 17 1 18 10 20 11 22 12 23 16 24 13 25
 SMILES IDX 15 26 14 27
 H PARENT 5 8 22 19 10 21

>  <TORSDO>
F 4

$$$$
