/home/pchatterjee/Documents/git/vs_workflow/DiffDock/diffdock_run/pdbqt_scrubbed/Z1918494952.pdbqt
 OpenBabel10272516423D

 27 30  0  0  1  0  0  0  0  0999 V2000
   -1.0470   -1.4260   -1.8390 N   0  0  0  0  0  0  0  0  0  0  0  0
   -0.1530   -1.5480   -2.9820 C   0  0  0  0  0  2  0  0  0  0  0  0
    0.6110   -0.2440   -3.2070 C   0  0  0  0  0  2  0  0  0  0  0  0
   -0.2980    0.9970   -3.1430 C   0  0  1  0  0  3  0  0  0  0  0  0
   -1.7790    0.6130   -3.0400 C   0  0  0  0  0  2  0  0  0  0  0  0
   -2.0190   -0.3300   -1.8580 C   0  0  0  0  0  2  0  0  0  0  0  0
   -0.5330   -1.7550   -0.5880 C   0  0  0  0  0  0  0  0  0  0  0  0
   -0.7280   -1.7840    1.7000 C   0  0  0  0  0  0  0  0  0  0  0  0
    0.4860   -2.4010    1.8670 C   0  0  0  0  0  3  0  0  0  0  0  0
   -1.2440   -1.4460    0.5060 N   0  0  0  0  0  0  0  0  0  0  0  0
    1.1360   -2.6970    0.7030 C   0  0  0  0  0  3  0  0  0  0  0  0
    0.6490   -2.3950   -0.5140 N   0  0  0  0  0  0  0  0  0  0  0  0
   -1.4690   -1.3960    2.7990 O   0  0  0  0  0  0  0  0  0  0  0  0
   -1.9330   -2.4150    3.6000 C   0  0  0  0  0  0  0  0  0  0  0  0
   -2.8850   -4.3760    5.3360 C   0  0  0  0  0  3  0  0  0  0  0  0
   -2.2840   -3.2260    5.8480 C   0  0  0  0  0  3  0  0  0  0  0  0
   -3.0250   -4.5390    3.9570 C   0  0  0  0  0  3  0  0  0  0  0  0
   -1.8140   -2.2410    4.9790 C   0  0  0  0  0  3  0  0  0  0  0  0
   -2.5560   -3.5550    3.0860 C   0  0  0  0  0  3  0  0  0  0  0  0
    0.1220    1.7630   -2.0060 O   0  0  0  0  0  0  0  0  0  0  0  0
   -0.2330    3.1420   -2.0510 C   0  0  0  0  0  2  0  0  0  0  0  0
    0.2850    3.9110   -0.8160 C   0  0  2  0  0  3  0  0  0  0  0  0
    1.7600    3.6680   -0.4700 C   0  0  0  0  0  2  0  0  0  0  0  0
   -0.5570    3.7340    0.3340 O   0  0  0  0  0  0  0  0  0  0  0  0
    2.0030    2.3910    0.3270 C   0  0  0  0  0  2  0  0  0  0  0  0
   -0.4120    2.4730    0.9840 C   0  0  0  0  0  2  0  0  0  0  0  0
    1.0120    2.2700    1.4750 C   0  0  0  0  0  2  0  0  0  0  0  0
  1  7  1  0  0  0  0
  2  1  1  0  0  0  0
  3  4  1  0  0  0  0
  3  2  1  0  0  0  0
  4  5  1  0  0  0  0
  4 20  1  1  0  0  0
  5  6  1  0  0  0  0
  6  1  1  0  0  0  0
  7 12  2  0  0  0  0
  7 10  1  0  0  0  0
  8  9  1  0  0  0  0
  8 13  1  0  0  0  0
 10  8  2  0  0  0  0
 11  9  2  0  0  0  0
 12 11  1  0  0  0  0
 13 14  1  0  0  0  0
 14 18  1  0  0  0  0
 15 16  1  0  0  0  0
 17 15  2  0  0  0  0
 18 16  2  0  0  0  0
 19 14  2  0  0  0  0
 19 17  1  0  0  0  0
 21 20  1  0  0  0  0
 22 21  1  6  0  0  0
 22 23  1  0  0  0  0
 22 24  1  0  0  0  0
 23 25  1  0  0  0  0
 24 26  1  0  0  0  0
 25 27  1  0  0  0  0
 26 27  1  0  0  0  0
M  END
>  <REMARK>
 SMILES c1ccc(Oc2ccnc(N3CCC(OCC4CCCCO4)CC3)n2)cc1
 SMILES IDX 11 1 12 2 13 3 14 4 23 5 24 6 10 7 6 8 7 9 25 10 8 11 9 12
 SMILES IDX 5 13 4 14 1 15 2 16 27 17 3 18 26 19 15 20 16 21 17 22 18 23
 SMILES IDX 22 24 19 25 21 26 20 27
 H PARENT

>  <TORSDO>
F 6

$$$$
