/home/pchatterjee/Documents/git/vs_workflow/DiffDock/diffdock_run/pdbqt_scrubbed/Z1935637461.pdbqt
 OpenBabel10272516423D

 25 28  0  0  0  0  0  0  0  0999 V2000
    2.3270   -0.0660    1.7220 C   0  0  0  0  0  0  0  0  0  0  0  0
    3.5110    0.0950    2.4590 C   0  0  0  0  0  3  0  0  0  0  0  0
    3.4990    0.0010    3.8520 C   0  0  0  0  0  3  0  0  0  0  0  0
    2.3040   -0.2500    4.5230 C   0  0  0  0  0  3  0  0  0  0  0  0
    1.1160   -0.3960    3.8030 C   0  0  0  0  0  3  0  0  0  0  0  0
    1.1240   -0.2810    2.4090 C   0  0  0  0  0  0  0  0  0  0  0  0
    2.4240    0.0540    0.2400 C   0  0  0  0  0  0  0  0  0  0  0  0
    1.4770   -0.6040   -0.5060 N   0  0  0  0  0  0  0  0  0  0  0  0
    3.3240    0.7120   -0.2680 O   0  0  0  0  0  0  0  0  0  0  0  0
    0.7250   -1.0940   -0.0340 H   0  0  0  0  0  0  0  0  0  0  0  0
    1.4980   -0.5440   -1.9490 C   0  0  0  0  0  2  0  0  0  0  0  0
    0.4020   -1.3770   -2.5180 C   0  0  0  0  0  0  0  0  0  0  0  0
    0.5540   -2.7100   -2.6370 N   0  0  0  0  0  0  0  0  0  0  0  0
   -0.8670   -0.9520   -3.0040 C   0  0  0  0  0  0  0  0  0  0  0  0
   -0.6150   -3.1740   -3.2180 O   0  0  0  0  0  0  0  0  0  0  0  0
   -1.5780    0.2550   -3.1330 C   0  0  0  0  0  3  0  0  0  0  0  0
   -1.4620   -2.1280   -3.4340 C   0  0  0  0  0  0  0  0  0  0  0  0
   -2.8660    0.2170   -3.7010 C   0  0  0  0  0  3  0  0  0  0  0  0
   -2.7300   -2.2070   -3.9990 C   0  0  0  0  0  3  0  0  0  0  0  0
   -3.4290   -0.9930   -4.1260 C   0  0  0  0  0  3  0  0  0  0  0  0
   -0.0580   -0.4180    1.7320 O   0  0  0  0  0  0  0  0  0  0  0  0
   -0.8460    0.7770    1.8510 C   0  0  0  0  0  2  0  0  0  0  0  0
   -1.8950    0.7460    0.7850 C   0  0  0  0  0  3  0  0  0  0  0  0
   -3.1330   -0.1020    0.9400 C   0  0  0  0  0  2  0  0  0  0  0  0
   -3.2370    1.3980    1.0030 C   0  0  0  0  0  2  0  0  0  0  0  0
  1  6  2  0  0  0  0
  1  2  1  0  0  0  0
  2  3  2  0  0  0  0
  3  4  1  0  0  0  0
  5  4  2  0  0  0  0
  6  5  1  0  0  0  0
  7  1  1  0  0  0  0
  8 10  1  0  0  0  0
  8  7  1  0  0  0  0
  9  7  2  0  0  0  0
 11  8  1  0  0  0  0
 12 11  1  0  0  0  0
 13 12  2  0  0  0  0
 14 12  1  0  0  0  0
 15 13  1  0  0  0  0
 16 14  1  0  0  0  0
 17 15  1  0  0  0  0
 17 14  2  0  0  0  0
 18 16  2  0  0  0  0
 19 17  1  0  0  0  0
 20 19  2  0  0  0  0
 20 18  1  0  0  0  0
 21 22  1  0  0  0  0
 21  6  1  0  0  0  0
 23 24  1  0  0  0  0
 23 25  1  0  0  0  0
 23 22  1  0  0  0  0
 24 25  1  0  0  0  0
M  END
>  <REMARK>
 SMILES O=C(NCc1noc2ccccc12)c1ccccc1OCC1CC1
 SMILES IDX 14 1 15 2 16 3 17 4 18 5 19 6 2 7 3 8 1 9 4 11 5 12 6 13
 SMILES IDX 13 14 7 15 12 16 8 17 11 18 9 19 10 20 20 21 21 22 22 23
 SMILES IDX 23 24 24 25
 H PARENT 3 10

>  <TORSDO>
F 6

$$$$
