/home/pchatterjee/Documents/git/vs_workflow/DiffDock/diffdock_run/pdbqt_scrubbed/Z195980060.pdbqt
 OpenBabel10272516423D

 24 26  0  0  1  0  0  0  0  0999 V2000
   -0.2990   -1.1660   -1.0030 C   0  0  1  0  0  3  0  0  0  0  0  0
   -1.1840   -2.1700   -1.7400 C   0  0  0  0  0  2  0  0  0  0  0  0
   -0.9610   -3.6000   -1.2580 C   0  0  0  0  0  2  0  0  0  0  0  0
    0.5110   -3.9380   -1.0290 C   0  0  0  0  0  2  0  0  0  0  0  0
    1.4400   -2.9520   -1.7130 C   0  0  0  0  0  2  0  0  0  0  0  0
    1.2100   -1.5680   -1.1730 N   0  0  0  0  0  4  0  0  0  0  0  0
    1.5450   -0.9050   -1.8970 H   0  0  0  0  0  0  0  0  0  0  0  0
   -0.5070    0.2360   -1.5830 C   0  0  0  0  0  0  0  0  0  0  0  0
    0.3770    0.7770   -2.2440 O   0  0  0  0  0  0  0  0  0  0  0  0
   -1.7190    0.7470   -1.2740 O   0  0  0  0  0  0  0  0  0  0  0  0
   -1.9370    2.0760   -1.7580 C   0  0  0  0  0  1  0  0  0  0  0  0
    2.0490   -1.2600    0.0720 C   0  0  0  0  0  2  0  0  0  0  0  0
    2.0160    0.2160    0.4600 C   0  0  0  0  0  0  0  0  0  0  0  0
    0.9600    0.6960    1.0350 N   0  0  0  0  0  0  0  0  0  0  0  0
    3.1020    0.9750    0.1220 N   0  0  0  0  0  0  0  0  0  0  0  0
    0.9440    2.0700    1.3430 C   0  0  0  0  0  0  0  0  0  0  0  0
    3.1800    2.3240    0.3720 C   0  0  0  0  0  0  0  0  0  0  0  0
   -0.1800    2.6080    1.9720 C   0  0  0  0  0  3  0  0  0  0  0  0
    2.0090    2.9220    1.0320 C   0  0  0  0  0  0  0  0  0  0  0  0
   -0.2340    3.9710    2.2790 C   0  0  0  0  0  3  0  0  0  0  0  0
    1.9660    4.2850    1.3340 C   0  0  0  0  0  3  0  0  0  0  0  0
    0.8370    4.8080    1.9600 C   0  0  0  0  0  3  0  0  0  0  0  0
    3.9320    0.5990   -0.3170 H   0  0  0  0  0  0  0  0  0  0  0  0
    4.1700    2.9690    0.0580 O   0  0  0  0  0  0  0  0  0  0  0  0
  1  8  1  6  0  0  0
  2  3  1  0  0  0  0
  2  1  1  0  0  0  0
  3  4  1  0  0  0  0
  5  6  1  0  0  0  0
  5  4  1  0  0  0  0
  6  1  1  0  0  0  0
  6 12  1  0  0  0  0
  7  6  1  0  0  0  0
  8 10  1  0  0  0  0
  9  8  2  0  0  0  0
 11 10  1  0  0  0  0
 12 13  1  0  0  0  0
 13 14  2  0  0  0  0
 14 16  1  0  0  0  0
 15 17  1  0  0  0  0
 15 13  1  0  0  0  0
 16 18  1  0  0  0  0
 17 19  1  0  0  0  0
 18 20  2  0  0  0  0
 19 21  1  0  0  0  0
 19 16  2  0  0  0  0
 21 22  2  0  0  0  0
 22 20  1  0  0  0  0
 23 15  1  0  0  0  0
 24 17  2  0  0  0  0
M  END
>  <REMARK>
 SMILES COC(=O)C1CCCC[NH+]1Cc1nc2ccccc2c(=O)[nH]1
 SMILES IDX 5 1 6 2 7 3 8 4 9 5 10 6 3 8 4 9 2 10 1 11 11 12 12 13 13 14
 SMILES IDX 22 15 14 16 20 17 15 18 19 19 16 20 18 21 17 22 21 24
 H PARENT 10 7 22 23

>  <TORSDO>
F 4

$$$$
