/home/pchatterjee/Documents/git/vs_workflow/DiffDock/diffdock_run/pdbqt_scrubbed/Z195569274.pdbqt
 OpenBabel10272516423D

 32 35  0  0  1  0  0  0  0  0999 V2000
    0.9480   -1.0300   -0.5840 C   0  0  0  0  0  0  0  0  0  0  0  0
    1.5760   -2.1280   -0.1660 N   0  0  0  0  0  4  0  0  0  0  0  0
    0.8350   -3.2250   -0.1740 C   0  0  0  0  0  0  0  0  0  0  0  0
   -0.4400   -3.2730   -0.5220 N   0  0  0  0  0  0  0  0  0  0  0  0
   -1.0060   -2.1230   -0.8760 C   0  0  0  0  0  0  0  0  0  0  0  0
   -0.3410   -0.9740   -0.9040 N   0  0  0  0  0  2  0  0  0  0  0  0
    1.6870    0.3020   -0.4520 C   0  0  2  0  0  3  0  0  0  0  0  0
    3.0310    0.2140   -1.1810 C   0  0  0  0  0  1  0  0  0  0  0  0
    1.9210    0.6920    1.0330 N   0  0  0  0  0  4  0  0  0  0  0  0
    2.6510    2.0020    1.2560 C   0  0  0  0  0  2  0  0  0  0  0  0
    0.6210    0.7480    1.8390 C   0  0  0  0  0  2  0  0  0  0  0  0
    1.8190    3.2290    0.8250 C   0  0  0  0  0  2  0  0  0  0  0  0
   -0.2870    1.9230    1.4150 C   0  0  0  0  0  2  0  0  0  0  0  0
    0.4110    2.9080    0.5830 N   0  0  0  0  0  0  0  0  0  0  0  0
    2.4790   -0.0780    1.4240 H   0  0  0  0  0  0  0  0  0  0  0  0
   -0.3740    3.9740    0.1510 C   0  0  0  0  0  0  0  0  0  0  0  0
   -1.7090    3.8580    0.2190 N   0  0  0  0  0  0  0  0  0  0  0  0
    0.2370    5.0610   -0.3440 N   0  0  0  0  0  0  0  0  0  0  0  0
   -2.4510    4.8930   -0.2260 C   0  0  0  0  0  3  0  0  0  0  0  0
   -0.5420    6.0720   -0.7800 C   0  0  0  0  0  3  0  0  0  0  0  0
   -1.9120    6.0410   -0.7440 C   0  0  0  0  0  3  0  0  0  0  0  0
    1.4310   -4.3970    0.2280 N   0  0  0  0  0  0  0  0  0  0  0  0
    0.9150   -5.2040   -0.1020 H   0  0  0  0  0  0  0  0  0  0  0  0
    2.4270   -4.4040    0.0590 H   0  0  0  0  0  0  0  0  0  0  0  0
   -2.3610   -2.1840   -1.1770 N   0  0  0  0  0  0  0  0  0  0  0  0
   -2.6890   -3.1380   -1.0970 H   0  0  0  0  0  0  0  0  0  0  0  0
   -3.3280   -1.2270   -1.5140 C   0  0  0  0  0  0  0  0  0  0  0  0
   -4.6570   -1.6510   -1.6840 C   0  0  0  0  0  3  0  0  0  0  0  0
   -3.0580    0.1360   -1.6860 C   0  0  0  0  0  3  0  0  0  0  0  0
   -5.6750   -0.7500   -2.0100 C   0  0  0  0  0  3  0  0  0  0  0  0
   -4.0730    1.0420   -2.0150 C   0  0  0  0  0  3  0  0  0  0  0  0
   -5.3820    0.5990   -2.1760 C   0  0  0  0  0  3  0  0  0  0  0  0
  1  7  1  0  0  0  0
  1  2  2  0  0  0  0
  3  2  2  0  0  0  0
  3 22  1  0  0  0  0
  4  3  1  0  0  0  0
  5  4  2  0  0  0  0
  6  5  1  0  0  0  0
  6  1  1  0  0  0  0
  7  8  1  6  0  0  0
  7  9  1  0  0  0  0
  9 10  1  0  0  0  0
  9 15  1  0  0  0  0
  9 11  1  0  0  0  0
 12 10  1  0  0  0  0
 13 11  1  0  0  0  0
 14 12  1  0  0  0  0
 14 13  1  0  0  0  0
 16 17  2  0  0  0  0
 16 14  1  0  0  0  0
 18 16  1  0  0  0  0
 19 17  1  0  0  0  0
 20 21  1  0  0  0  0
 20 18  2  0  0  0  0
 21 19  2  0  0  0  0
 23 22  1  0  0  0  0
 24 22  1  0  0  0  0
 25 26  1  0  0  0  0
 25  5  1  0  0  0  0
 27 25  1  0  0  0  0
 28 27  1  0  0  0  0
 29 27  2  0  0  0  0
 30 28  2  0  0  0  0
 31 29  1  0  0  0  0
 32 31  2  0  0  0  0
 32 30  1  0  0  0  0
M  END
>  <REMARK>
 SMILES CC(c1nc(N)nc(Nc2ccccc2)n1)[NH+]1CCN(c2ncccn2)CC1
 SMILES IDX 3 1 4 2 5 3 7 4 8 5 16 6 2 7 1 8 17 9 18 10 28 11 19 12
 SMILES IDX 27 13 20 14 21 16 22 17 26 18 23 19 25 20 24 21 6 22 9 25
 SMILES IDX 10 27 11 28 15 29 12 30 14 31 13 32
 H PARENT 17 15 6 23 6 24 9 26

>  <TORSDO>
F 6

$$$$
