/home/pchatterjee/Documents/git/vs_workflow/DiffDock/diffdock_run/pdbqt_scrubbed/Z196075274.pdbqt
 OpenBabel10272516423D

 30 33  0  0  1  0  0  0  0  0999 V2000
    3.0620   -1.7770    0.3930 C   0  0  0  0  0  2  0  0  0  0  0  0
    2.6660   -0.4150    0.9870 N   0  0  0  0  0  4  0  0  0  0  0  0
    1.4520    1.7530    0.6500 C   0  0  2  0  0  3  0  0  0  0  0  0
    2.6530    2.5010    1.2310 C   0  0  0  0  0  2  0  0  0  0  0  0
    1.8870    0.4380   -0.0080 C   0  0  0  0  0  2  0  0  0  0  0  0
    3.4570    1.6100    2.1740 C   0  0  0  0  0  2  0  0  0  0  0  0
    3.8810    0.3080    1.5120 C   0  0  0  0  0  2  0  0  0  0  0  0
    2.0400   -0.6220    1.7760 H   0  0  0  0  0  0  0  0  0  0  0  0
    0.7220    2.5890   -0.3960 C   0  0  0  0  0  0  0  0  0  0  0  0
    0.1090    3.7090    0.1310 N   0  0  0  0  0  0  0  0  0  0  0  0
    0.7230    2.2310   -1.5680 O   0  0  0  0  0  0  0  0  0  0  0  0
    0.2310    3.9030    1.1170 H   0  0  0  0  0  0  0  0  0  0  0  0
   -0.6850    4.6540   -0.5580 C   0  0  0  0  0  0  0  0  0  0  0  0
   -1.0160    4.5620   -1.9110 C   0  0  0  0  0  3  0  0  0  0  0  0
   -1.1720    5.7380    0.1860 C   0  0  0  0  0  3  0  0  0  0  0  0
   -1.8210    5.5360   -2.5110 C   0  0  0  0  0  3  0  0  0  0  0  0
   -1.9750    6.7130   -0.4140 C   0  0  0  0  0  3  0  0  0  0  0  0
   -2.3010    6.6100   -1.7630 C   0  0  0  0  0  3  0  0  0  0  0  0
    1.9300   -2.6940    0.1020 C   0  0  0  0  0  0  0  0  0  0  0  0
    0.9500   -2.5650   -0.7620 N   0  0  0  0  0  0  0  0  0  0  0  0
    1.8520   -3.8310    0.8420 O   0  0  0  0  0  0  0  0  0  0  0  0
    0.2270   -3.7310   -0.5760 C   0  0  0  0  0  0  0  0  0  0  0  0
    0.7250   -4.5120    0.3980 N   0  0  0  0  0  0  0  0  0  0  0  0
   -0.9540   -4.0540   -1.3710 C   0  0  0  0  0  0  0  0  0  0  0  0
   -1.3620   -3.1990   -2.4100 C   0  0  0  0  0  3  0  0  0  0  0  0
   -1.6960   -5.2240   -1.1260 C   0  0  0  0  0  3  0  0  0  0  0  0
   -2.4830   -3.5080   -3.1860 C   0  0  0  0  0  3  0  0  0  0  0  0
   -2.8200   -5.5280   -1.9010 C   0  0  0  0  0  3  0  0  0  0  0  0
   -3.2010   -4.6680   -2.9240 C   0  0  0  0  0  0  0  0  0  0  0  0
   -4.2730   -4.9640   -3.6710 F   0  0  0  0  0  0  0  0  0  0  0  0
  1  2  1  0  0  0  0
  2  7  1  0  0  0  0
  2  8  1  0  0  0  0
  3  9  1  6  0  0  0
  3  4  1  0  0  0  0
  4  6  1  0  0  0  0
  5  3  1  0  0  0  0
  5  2  1  0  0  0  0
  7  6  1  0  0  0  0
  9 10  1  0  0  0  0
 10 12  1  0  0  0  0
 11  9  2  0  0  0  0
 13 10  1  0  0  0  0
 13 15  1  0  0  0  0
 14 13  2  0  0  0  0
 16 14  1  0  0  0  0
 16 18  2  0  0  0  0
 17 15  2  0  0  0  0
 18 17  1  0  0  0  0
 19  1  1  0  0  0  0
 19 21  1  0  0  0  0
 20 22  1  0  0  0  0
 20 19  2  0  0  0  0
 22 23  2  0  0  0  0
 23 21  1  0  0  0  0
 24 26  1  0  0  0  0
 24 22  1  0  0  0  0
 25 24  2  0  0  0  0
 27 29  2  0  0  0  0
 27 25  1  0  0  0  0
 28 26  2  0  0  0  0
 29 28  1  0  0  0  0
 30 29  1  0  0  0  0
M  END
>  <REMARK>
 SMILES O=C(Nc1ccccc1)C1CCC[NH+](Cc2nc(-c3ccc(F)cc3)no2)C1
 SMILES IDX 15 1 14 2 10 3 11 4 28 5 12 6 13 7 2 9 3 10 1 11 4 13 5 14
 SMILES IDX 9 15 6 16 8 17 7 18 16 19 17 20 27 21 18 22 26 23 19 24
 SMILES IDX 20 25 25 26 21 27 24 28 22 29 23 30
 H PARENT 14 8 3 12

>  <TORSDO>
F 5

$$$$
