/home/pchatterjee/Documents/git/vs_workflow/DiffDock/diffdock_run/pdbqt_scrubbed/Z196075054.pdbqt
 OpenBabel10272516423D

 30 33  0  0  1  0  0  0  0  0999 V2000
   -3.3900    1.4810    0.4530 C   0  0  0  0  0  2  0  0  0  0  0  0
   -2.9910    1.3750   -0.9740 C   0  0  0  0  0  0  0  0  0  0  0  0
   -2.1100    1.0530   -2.8580 C   0  0  0  0  0  0  0  0  0  0  0  0
   -3.2120    1.7770   -3.1270 N   0  0  0  0  0  0  0  0  0  0  0  0
   -1.9500    0.7850   -1.5110 N   0  0  0  0  0  0  0  0  0  0  0  0
   -3.7960    1.9880   -1.8830 O   0  0  0  0  0  0  0  0  0  0  0  0
   -1.1580    0.5900   -3.8610 C   0  0  0  0  0  0  0  0  0  0  0  0
    0.6930   -0.3220   -5.7870 C   0  0  0  0  0  0  0  0  0  0  0  0
    0.8830   -0.6060   -4.4320 C   0  0  0  0  0  3  0  0  0  0  0  0
   -0.4160    0.4380   -6.1730 C   0  0  0  0  0  3  0  0  0  0  0  0
   -0.0350   -0.1570   -3.4770 C   0  0  0  0  0  3  0  0  0  0  0  0
   -1.3370    0.8850   -5.2190 C   0  0  0  0  0  3  0  0  0  0  0  0
    1.6970   -0.7760   -6.8070 C   0  0  0  0  0  1  0  0  0  0  0  0
   -2.3030    1.2080    1.5050 N   0  0  0  0  0  4  0  0  0  0  0  0
   -1.1020    2.1050    1.3420 C   0  0  0  0  0  2  0  0  0  0  0  0
   -1.9060   -0.2620    1.5700 C   0  0  0  0  0  2  0  0  0  0  0  0
   -0.2370    2.0160    2.5970 C   0  0  0  0  0  2  0  0  0  0  0  0
   -0.6680   -0.4950    2.4550 C   0  0  2  0  0  3  0  0  0  0  0  0
   -0.3750    0.6980    3.3690 C   0  0  0  0  0  2  0  0  0  0  0  0
   -2.7390    1.4490    2.4020 H   0  0  0  0  0  0  0  0  0  0  0  0
    0.5580   -0.8260    1.6030 C   0  0  0  0  0  0  0  0  0  0  0  0
    1.5800   -1.4110    2.3250 N   0  0  0  0  0  0  0  0  0  0  0  0
    0.5810   -0.5230    0.4150 O   0  0  0  0  0  0  0  0  0  0  0  0
    1.4300   -1.5850    3.3120 H   0  0  0  0  0  0  0  0  0  0  0  0
    2.8480   -1.8100    1.8450 C   0  0  0  0  0  0  0  0  0  0  0  0
    3.2520   -1.7030    0.5130 C   0  0  0  0  0  3  0  0  0  0  0  0
    3.7420   -2.3460    2.7810 C   0  0  0  0  0  3  0  0  0  0  0  0
    4.5290   -2.1220    0.1230 C   0  0  0  0  0  3  0  0  0  0  0  0
    5.0170   -2.7660    2.3920 C   0  0  0  0  0  3  0  0  0  0  0  0
    5.4110   -2.6510    1.0620 C   0  0  0  0  0  3  0  0  0  0  0  0
  1 14  1  0  0  0  0
  2  1  1  0  0  0  0
  3  5  1  0  0  0  0
  4  3  2  0  0  0  0
  4  6  1  0  0  0  0
  5  2  2  0  0  0  0
  6  2  1  0  0  0  0
  7 11  1  0  0  0  0
  7  3  1  0  0  0  0
  8  9  1  0  0  0  0
  9 11  2  0  0  0  0
 10  8  2  0  0  0  0
 10 12  1  0  0  0  0
 12  7  2  0  0  0  0
 13  8  1  0  0  0  0
 14 16  1  0  0  0  0
 14 20  1  0  0  0  0
 15 14  1  0  0  0  0
 15 17  1  0  0  0  0
 16 18  1  0  0  0  0
 17 19  1  0  0  0  0
 18 21  1  6  0  0  0
 18 19  1  0  0  0  0
 21 22  1  0  0  0  0
 22 24  1  0  0  0  0
 23 21  2  0  0  0  0
 25 22  1  0  0  0  0
 25 27  1  0  0  0  0
 26 25  2  0  0  0  0
 28 26  1  0  0  0  0
 28 30  2  0  0  0  0
 29 27  2  0  0  0  0
 30 29  1  0  0  0  0
M  END
>  <REMARK>
 SMILES Cc1ccc(-c2noc(C[NH+]3CCCC(C(=O)Nc4ccccc4)C3)n2)cc1
 SMILES IDX 10 1 9 2 6 3 7 4 26 5 8 6 5 7 2 8 3 9 28 10 4 11 27 12 1 13
 SMILES IDX 11 14 12 15 25 16 13 17 15 18 14 19 16 21 18 22 17 23 19 25
 SMILES IDX 20 26 24 27 21 28 23 29 22 30
 H PARENT 11 20 18 24

>  <TORSDO>
F 5

$$$$
