/home/pchatterjee/Documents/git/vs_workflow/DiffDock/diffdock_run/pdbqt_scrubbed/Z196075810.pdbqt
 OpenBabel10272516423D

 30 33  0  0  1  0  0  0  0  0999 V2000
    1.2160   -1.6400   -0.8850 C   0  0  0  0  0  2  0  0  0  0  0  0
    1.7440   -2.3910    0.2840 C   0  0  0  0  0  0  0  0  0  0  0  0
    2.1670   -3.3340    2.1200 C   0  0  0  0  0  0  0  0  0  0  0  0
    3.3070   -3.4420    1.4190 N   0  0  0  0  0  0  0  0  0  0  0  0
    1.1640   -2.6720    1.4280 N   0  0  0  0  0  0  0  0  0  0  0  0
    3.0320   -2.8180    0.2100 O   0  0  0  0  0  0  0  0  0  0  0  0
    1.9520   -3.8610    3.4680 C   0  0  0  0  0  0  0  0  0  0  0  0
    2.9830   -4.0150    4.4220 C   0  0  0  0  0  0  0  0  0  0  0  0
    2.6700   -4.5500    5.6870 C   0  0  0  0  0  3  0  0  0  0  0  0
    1.3630   -4.9090    6.0160 C   0  0  0  0  0  3  0  0  0  0  0  0
    0.6370   -4.2240    3.8250 C   0  0  0  0  0  3  0  0  0  0  0  0
    0.3450   -4.7430    5.0870 C   0  0  0  0  0  3  0  0  0  0  0  0
    4.4190   -3.6470    4.1530 C   0  0  0  0  0  1  0  0  0  0  0  0
    0.5850   -0.2880   -0.5660 N   0  0  0  0  0  4  0  0  0  0  0  0
    1.5750    0.7580   -0.1250 C   0  0  0  0  0  2  0  0  0  0  0  0
   -0.6550   -0.3840    0.3010 C   0  0  0  0  0  2  0  0  0  0  0  0
    0.9770    1.6980    0.9190 C   0  0  0  0  0  2  0  0  0  0  0  0
   -1.3870    0.9640    0.2770 C   0  0  1  0  0  3  0  0  0  0  0  0
   -0.4480    2.1410    0.5900 C   0  0  0  0  0  2  0  0  0  0  0  0
    0.2070    0.0240   -1.4840 H   0  0  0  0  0  0  0  0  0  0  0  0
   -1.9940    1.1580   -1.1080 C   0  0  0  0  0  0  0  0  0  0  0  0
   -3.0340    2.0610   -1.1330 N   0  0  0  0  0  0  0  0  0  0  0  0
   -1.4790    0.5780   -2.0640 O   0  0  0  0  0  0  0  0  0  0  0  0
   -3.3030    2.5020   -0.2600 H   0  0  0  0  0  0  0  0  0  0  0  0
   -3.7790    2.4750   -2.2600 C   0  0  0  0  0  0  0  0  0  0  0  0
   -3.5920    1.9750   -3.5500 C   0  0  0  0  0  3  0  0  0  0  0  0
   -4.7650    3.4480   -2.0480 C   0  0  0  0  0  3  0  0  0  0  0  0
   -4.3730    2.4450   -4.6110 C   0  0  0  0  0  3  0  0  0  0  0  0
   -5.5440    3.9180   -3.1080 C   0  0  0  0  0  3  0  0  0  0  0  0
   -5.3460    3.4170   -4.3920 C   0  0  0  0  0  3  0  0  0  0  0  0
  1 14  1  0  0  0  0
  1  2  1  0  0  0  0
  2  5  2  0  0  0  0
  3  7  1  0  0  0  0
  4  3  2  0  0  0  0
  5  3  1  0  0  0  0
  6  2  1  0  0  0  0
  6  4  1  0  0  0  0
  7 11  2  0  0  0  0
  7  8  1  0  0  0  0
  8  9  2  0  0  0  0
  9 10  1  0  0  0  0
 11 12  1  0  0  0  0
 12 10  2  0  0  0  0
 13  8  1  0  0  0  0
 14 15  1  0  0  0  0
 14 16  1  0  0  0  0
 15 17  1  0  0  0  0
 18 21  1  6  0  0  0
 18 16  1  0  0  0  0
 18 19  1  0  0  0  0
 19 17  1  0  0  0  0
 20 14  1  0  0  0  0
 22 21  1  0  0  0  0
 22 24  1  0  0  0  0
 23 21  2  0  0  0  0
 25 27  1  0  0  0  0
 25 22  1  0  0  0  0
 26 25  2  0  0  0  0
 28 30  2  0  0  0  0
 28 26  1  0  0  0  0
 29 27  2  0  0  0  0
 30 29  1  0  0  0  0
M  END
>  <REMARK>
 SMILES Cc1ccccc1-c1noc(C[NH+]2CCCC(C(=O)Nc3ccccc3)C2)n1
 SMILES IDX 12 1 11 2 8 3 9 4 28 5 10 6 7 7 2 8 3 9 4 10 6 11 5 12 1 13
 SMILES IDX 13 14 14 15 27 16 15 17 17 18 16 19 18 21 20 22 19 23 21 25
 SMILES IDX 22 26 26 27 23 28 25 29 24 30
 H PARENT 13 20 20 24

>  <TORSDO>
F 5

$$$$
