/home/pchatterjee/Documents/git/vs_workflow/DiffDock/diffdock_run/pdbqt_scrubbed/Z197456916.pdbqt
 OpenBabel10272516423D

 35 38  0  0  1  0  0  0  0  0999 V2000
    1.1100    3.1140    2.2730 S   0  0  0  0  0  0  0  0  0  0  0  0
    2.5640    2.1210    1.7360 C   0  0  2  0  0  3  0  0  0  0  0  0
    3.8300    2.7480    2.3050 C   0  0  0  0  0  1  0  0  0  0  0  0
    2.5970    2.0260    0.2010 C   0  0  0  0  0  0  0  0  0  0  0  0
    1.4400    1.4540   -0.3150 N   0  0  0  0  0  0  0  0  0  0  0  0
    3.5850    2.3610   -0.4460 O   0  0  0  0  0  0  0  0  0  0  0  0
    0.6730    1.3490    0.3370 H   0  0  0  0  0  0  0  0  0  0  0  0
    1.1800    1.0660   -1.6440 C   0  0  0  0  0  0  0  0  0  0  0  0
    2.1140    1.1680   -2.6860 C   0  0  0  0  0  3  0  0  0  0  0  0
   -0.0840    0.5160   -1.9050 C   0  0  0  0  0  3  0  0  0  0  0  0
    1.8080    0.7240   -3.9790 C   0  0  0  0  0  3  0  0  0  0  0  0
   -0.3810    0.0860   -3.1880 C   0  0  0  0  0  0  0  0  0  0  0  0
    0.5570    0.1870   -4.2150 C   0  0  0  0  0  0  0  0  0  0  0  0
   -1.6330   -0.5780   -3.6690 C   0  0  0  0  0  2  0  0  0  0  0  0
    0.0250   -0.4010   -5.4840 C   0  0  0  0  0  2  0  0  0  0  0  0
   -1.4820   -0.4330   -5.1900 C   0  0  0  0  0  2  0  0  0  0  0  0
    0.5200    2.0580    3.6620 C   0  0  1  0  0  3  0  0  0  0  0  0
   -0.5230    2.8300    4.4690 C   0  0  0  0  0  1  0  0  0  0  0  0
   -0.0520    0.7390    3.1760 C   0  0  0  0  0  0  0  0  0  0  0  0
    0.5130   -0.3770    3.6300 N   0  0  0  0  0  4  0  0  0  0  0  0
   -1.0510    0.7650    2.2900 N   0  0  0  0  0  0  0  0  0  0  0  0
   -0.0110   -1.4990    3.1660 C   0  0  0  0  0  0  0  0  0  0  0  0
   -1.5130   -0.4160    1.8890 C   0  0  0  0  0  0  0  0  0  0  0  0
   -0.9990   -1.5710    2.2920 N   0  0  0  0  0  2  0  0  0  0  0  0
    0.5470   -2.6850    3.5960 N   0  0  0  0  0  0  0  0  0  0  0  0
    1.4930   -2.5460    3.9140 H   0  0  0  0  0  0  0  0  0  0  0  0
    0.3960   -3.4150    2.9110 H   0  0  0  0  0  0  0  0  0  0  0  0
   -2.5590   -0.3470    0.9720 N   0  0  0  0  0  0  0  0  0  0  0  0
   -2.8340    0.6180    0.8530 H   0  0  0  0  0  0  0  0  0  0  0  0
   -3.3700   -1.3020    0.3480 C   0  0  0  0  0  0  0  0  0  0  0  0
   -3.2580   -2.6790    0.5550 C   0  0  0  0  0  3  0  0  0  0  0  0
   -4.3240   -0.8590   -0.5850 C   0  0  0  0  0  3  0  0  0  0  0  0
   -4.0840   -3.5830   -0.1210 C   0  0  0  0  0  3  0  0  0  0  0  0
   -5.1510   -1.7570   -1.2650 C   0  0  0  0  0  3  0  0  0  0  0  0
   -5.0330   -3.1230   -1.0290 C   0  0  0  0  0  3  0  0  0  0  0  0
  1 17  1  0  0  0  0
  2  1  1  0  0  0  0
  2  3  1  6  0  0  0
  4  2  1  0  0  0  0
  5  4  1  0  0  0  0
  5  7  1  0  0  0  0
  6  4  2  0  0  0  0
  8  5  1  0  0  0  0
  9  8  2  0  0  0  0
 10  8  1  0  0  0  0
 11  9  1  0  0  0  0
 12 10  2  0  0  0  0
 13 11  2  0  0  0  0
 13 12  1  0  0  0  0
 14 12  1  0  0  0  0
 15 16  1  0  0  0  0
 15 13  1  0  0  0  0
 16 14  1  0  0  0  0
 17 18  1  6  0  0  0
 19 20  2  0  0  0  0
 19 17  1  0  0  0  0
 21 19  1  0  0  0  0
 22 25  1  0  0  0  0
 22 20  2  0  0  0  0
 23 21  2  0  0  0  0
 23 24  1  0  0  0  0
 24 22  1  0  0  0  0
 25 26  1  0  0  0  0
 27 25  1  0  0  0  0
 28 23  1  0  0  0  0
 29 28  1  0  0  0  0
 30 31  1  0  0  0  0
 30 28  1  0  0  0  0
 32 30  2  0  0  0  0
 33 31  2  0  0  0  0
 34 35  2  0  0  0  0
 34 32  1  0  0  0  0
 35 33  1  0  0  0  0
M  END
>  <REMARK>
 SMILES CC(SC(C)c1nc(N)nc(Nc2ccccc2)n1)C(=O)Nc1ccc2c(c1)CCC2
 SMILES IDX 3 1 2 2 1 3 20 4 22 5 21 6 23 8 24 9 28 10 25 11 27 12 26 13
 SMILES IDX 29 14 31 15 30 16 4 17 5 18 6 19 7 20 19 21 8 22 11 23 10 24
 SMILES IDX 9 25 12 28 13 30 14 31 18 32 15 33 17 34 16 35
 H PARENT 22 7 9 26 9 27 12 29

>  <TORSDO>
F 8

$$$$
