/home/pchatterjee/Documents/git/vs_workflow/DiffDock/diffdock_run/pdbqt_scrubbed/Z216807044.pdbqt
 OpenBabel10272516423D

 31 34  0  0  0  0  0  0  0  0999 V2000
    3.4090   -0.9800   -0.4940 C   0  0  0  0  0  2  0  0  0  0  0  0
    2.6230   -1.6680    0.5970 C   0  0  0  0  0  0  0  0  0  0  0  0
    1.7950   -3.5310    1.5170 C   0  0  0  0  0  0  0  0  0  0  0  0
    2.5050   -2.9940    0.5390 N   0  0  0  0  0  4  0  0  0  0  0  0
    1.1980   -2.8590    2.4850 N   0  0  0  0  0  0  0  0  0  0  0  0
    1.3630   -1.5420    2.4710 C   0  0  0  0  0  0  0  0  0  0  0  0
    2.0690   -0.9050    1.5410 N   0  0  0  0  0  2  0  0  0  0  0  0
    1.6310   -4.9020    1.4990 N   0  0  0  0  0  0  0  0  0  0  0  0
    1.7390   -5.2590    0.5600 H   0  0  0  0  0  0  0  0  0  0  0  0
    0.7900   -5.1580    1.9980 H   0  0  0  0  0  0  0  0  0  0  0  0
    0.7850   -0.7110    3.4270 N   0  0  0  0  0  0  0  0  0  0  0  0
    1.0310    0.2480    3.2230 H   0  0  0  0  0  0  0  0  0  0  0  0
    0.0470   -0.9350    4.5950 C   0  0  0  0  0  0  0  0  0  0  0  0
   -0.2520   -2.2040    5.0990 C   0  0  0  0  0  3  0  0  0  0  0  0
   -0.4580    0.1770    5.2900 C   0  0  0  0  0  3  0  0  0  0  0  0
   -1.0150   -2.3610    6.2630 C   0  0  0  0  0  3  0  0  0  0  0  0
   -1.2210    0.0260    6.4530 C   0  0  0  0  0  3  0  0  0  0  0  0
   -1.4980   -1.2460    6.9400 C   0  0  0  0  0  3  0  0  0  0  0  0
    2.5610   -0.2680   -1.4170 N   0  0  0  0  0  0  0  0  0  0  0  0
    1.7770   -0.9100   -2.3320 N   0  0  0  0  0  0  0  0  0  0  0  0
    2.1290    1.0400   -1.2610 C   0  0  0  0  0  0  0  0  0  0  0  0
    0.9510   -0.0800   -2.8180 N   0  0  0  0  0  0  0  0  0  0  0  0
    1.1490    1.1540   -2.2430 N   0  0  0  0  0  0  0  0  0  0  0  0
    2.5030    1.8240   -0.4050 O   0  0  0  0  0  0  0  0  0  0  0  0
    0.2840    2.2240   -2.5560 C   0  0  0  0  0  0  0  0  0  0  0  0
   -1.0090    1.9150   -3.0270 C   0  0  0  0  0  3  0  0  0  0  0  0
    0.6280    3.5830   -2.4390 C   0  0  0  0  0  0  0  0  0  0  0  0
   -1.9450    2.9150   -3.3070 C   0  0  0  0  0  3  0  0  0  0  0  0
   -0.3190    4.5830   -2.7170 C   0  0  0  0  0  3  0  0  0  0  0  0
   -1.6040    4.2500   -3.1390 C   0  0  0  0  0  3  0  0  0  0  0  0
    2.2370    4.1490   -2.1490 Cl  0  0  0  0  0  0  0  0  0  0  0  0
  1  2  1  0  0  0  0
  2  7  1  0  0  0  0
  3  5  1  0  0  0  0
  4  2  2  0  0  0  0
  4  3  2  0  0  0  0
  6  5  2  0  0  0  0
  6 11  1  0  0  0  0
  7  6  1  0  0  0  0
  8  3  1  0  0  0  0
  8 10  1  0  0  0  0
  9  8  1  0  0  0  0
 11 13  1  0  0  0  0
 12 11  1  0  0  0  0
 13 14  2  0  0  0  0
 13 15  1  0  0  0  0
 14 16  1  0  0  0  0
 15 17  2  0  0  0  0
 16 18  2  0  0  0  0
 17 18  1  0  0  0  0
 19 21  1  0  0  0  0
 19  1  1  0  0  0  0
 20 19  1  0  0  0  0
 21 24  2  0  0  0  0
 22 20  2  0  0  0  0
 22 23  1  0  0  0  0
 23 21  1  0  0  0  0
 25 27  1  0  0  0  0
 25 23  1  0  0  0  0
 26 25  2  0  0  0  0
 27 31  1  0  0  0  0
 28 30  2  0  0  0  0
 28 26  1  0  0  0  0
 29 27  2  0  0  0  0
 30 29  1  0  0  0  0
M  END
>  <REMARK>
 SMILES Nc1nc(Cn2nnn(-c3ccccc3Cl)c2=O)nc(Nc2ccccc2)n1
 SMILES IDX 5 1 4 2 2 3 3 4 28 5 20 6 19 7 1 8 21 11 22 13 23 14 27 15
 SMILES IDX 24 16 26 17 25 18 6 19 7 20 17 21 8 22 9 23 18 24 10 25
 SMILES IDX 11 26 15 27 12 28 14 29 13 30 16 31
 H PARENT 1 9 1 10 21 12

>  <TORSDO>
F 6

$$$$
