/home/pchatterjee/Documents/git/vs_workflow/DiffDock/diffdock_run/pdbqt_scrubbed/Z218103890.pdbqt
 OpenBabel10272516423D

 33 36  0  0  1  0  0  0  0  0999 V2000
   -2.5240    3.0010   -2.2580 C   0  0  0  0  0  0  0  0  0  0  0  0
   -2.7490    3.9150   -1.3030 N   0  0  0  0  0  0  0  0  0  0  0  0
   -3.6580    3.2930   -0.4570 O   0  0  0  0  0  0  0  0  0  0  0  0
   -3.8990    2.0620   -0.9840 C   0  0  0  0  0  0  0  0  0  0  0  0
   -3.2360    1.8280   -2.0960 N   0  0  0  0  0  0  0  0  0  0  0  0
   -1.5870    3.2480   -3.3950 C   0  0  0  0  0  2  0  0  0  0  0  0
   -0.2020    3.2140   -3.0120 O   0  0  0  0  0  0  0  0  0  0  0  0
    0.3400    1.9930   -2.7230 C   0  0  0  0  0  0  0  0  0  0  0  0
    1.6380   -0.3830   -1.9840 C   0  0  0  0  0  0  0  0  0  0  0  0
    1.9960    0.8220   -1.3810 C   0  0  0  0  0  3  0  0  0  0  0  0
    0.6360   -0.3940   -2.9580 C   0  0  0  0  0  3  0  0  0  0  0  0
    1.3540    2.0060   -1.7610 C   0  0  0  0  0  3  0  0  0  0  0  0
   -0.0080    0.7900   -3.3350 C   0  0  0  0  0  3  0  0  0  0  0  0
    2.1640   -1.6060   -1.6720 O   0  0  0  0  0  0  0  0  0  0  0  0
    3.5040   -1.5870   -1.1900 C   0  0  0  0  0  1  0  0  0  0  0  0
   -4.8450    1.2050   -0.2210 C   0  0  0  0  0  2  0  0  0  0  0  0
   -4.2810   -0.0560    0.4540 N   0  0  0  0  0  4  0  0  0  0  0  0
   -4.0180   -1.2040   -0.4800 C   0  0  0  0  0  2  0  0  0  0  0  0
   -3.1870    0.2420    1.4710 C   0  0  0  0  0  2  0  0  0  0  0  0
   -2.6220   -1.1900   -1.0780 C   0  0  0  0  0  2  0  0  0  0  0  0
   -1.9740   -0.6820    1.3240 C   0  0  1  0  0  3  0  0  0  0  0  0
   -1.5260   -0.7120   -0.1330 C   0  0  0  0  0  2  0  0  0  0  0  0
   -5.0770   -0.3790    1.0200 H   0  0  0  0  0  0  0  0  0  0  0  0
   -0.8730   -0.1650    2.2480 C   0  0  0  0  0  0  0  0  0  0  0  0
    0.2790   -0.9240    2.2210 N   0  0  0  0  0  0  0  0  0  0  0  0
   -1.0830    0.8210    2.9490 O   0  0  0  0  0  0  0  0  0  0  0  0
    0.2860   -1.7650    1.6520 H   0  0  0  0  0  0  0  0  0  0  0  0
    1.4810   -0.6790    2.9200 C   0  0  0  0  0  0  0  0  0  0  0  0
    1.7110    0.4480    3.7100 C   0  0  0  0  0  3  0  0  0  0  0  0
    2.5030   -1.6330    2.7910 C   0  0  0  0  0  3  0  0  0  0  0  0
    2.9350    0.6170    4.3650 C   0  0  0  0  0  3  0  0  0  0  0  0
    3.7250   -1.4610    3.4460 C   0  0  0  0  0  3  0  0  0  0  0  0
    3.9390   -0.3380    4.2380 C   0  0  0  0  0  3  0  0  0  0  0  0
  1  5  1  0  0  0  0
  1  2  2  0  0  0  0
  2  3  1  0  0  0  0
  4  3  1  0  0  0  0
  4 16  1  0  0  0  0
  5  4  2  0  0  0  0
  6  7  1  0  0  0  0
  6  1  1  0  0  0  0
  7  8  1  0  0  0  0
  8 12  1  0  0  0  0
  9 14  1  0  0  0  0
  9 10  1  0  0  0  0
 11  9  2  0  0  0  0
 12 10  2  0  0  0  0
 13 11  1  0  0  0  0
 13  8  2  0  0  0  0
 14 15  1  0  0  0  0
 16 17  1  0  0  0  0
 17 23  1  0  0  0  0
 17 19  1  0  0  0  0
 18 17  1  0  0  0  0
 20 18  1  0  0  0  0
 20 22  1  0  0  0  0
 21 19  1  0  0  0  0
 21 24  1  1  0  0  0
 22 21  1  0  0  0  0
 24 26  2  0  0  0  0
 25 24  1  0  0  0  0
 25 28  1  0  0  0  0
 27 25  1  0  0  0  0
 28 29  1  0  0  0  0
 29 31  2  0  0  0  0
 30 28  2  0  0  0  0
 30 32  1  0  0  0  0
 32 33  2  0  0  0  0
 33 31  1  0  0  0  0
M  END
>  <REMARK>
 SMILES COc1ccc(OCc2noc(C[NH+]3CCCC(C(=O)Nc4ccccc4)C3)n2)cc1
 SMILES IDX 9 1 10 2 11 3 12 4 29 5 8 6 7 7 6 8 3 9 4 10 31 11 5 12
 SMILES IDX 30 13 2 14 1 15 13 16 14 17 15 18 28 19 16 20 18 21 17 22
 SMILES IDX 19 24 21 25 20 26 22 28 23 29 27 30 24 31 26 32 25 33
 H PARENT 14 23 21 27

>  <TORSDO>
F 8

$$$$
