/home/pchatterjee/Documents/git/vs_workflow/DiffDock/diffdock_run/pdbqt_scrubbed/Z2205184554.pdbqt
 OpenBabel10272516423D

 24 26  0  0  0  0  0  0  0  0999 V2000
   -0.2220    0.0560   -0.2890 O   0  0  0  0  0  0  0  0  0  0  0  0
    0.7070   -0.5400    0.6270 C   0  0  0  0  0  2  0  0  0  0  0  0
    0.4130   -0.1640    2.0610 C   0  0  0  0  0  0  0  0  0  0  0  0
   -1.0590    0.1300    3.8800 C   0  0  0  0  0  0  0  0  0  0  0  0
   -0.8800   -0.2210    2.5550 C   0  0  0  0  0  3  0  0  0  0  0  0
   -0.0340    0.5020    4.6720 N   0  0  0  0  0  0  0  0  0  0  0  0
    1.1800    0.5190    4.1040 C   0  0  0  0  0  3  0  0  0  0  0  0
    1.4620    0.2020    2.8310 N   0  0  0  0  0  0  0  0  0  0  0  0
   -2.4290    0.1070    4.4890 C   0  0  0  0  0  1  0  0  0  0  0  0
    0.1110    1.2500   -0.8770 C   0  0  0  0  0  0  0  0  0  0  0  0
    1.0570    2.1330   -0.3370 C   0  0  0  0  0  3  0  0  0  0  0  0
   -0.5570    1.6090   -2.0680 C   0  0  0  0  0  0  0  0  0  0  0  0
    1.3640    3.3360   -0.9810 C   0  0  0  0  0  3  0  0  0  0  0  0
   -0.2290    2.8180   -2.7080 C   0  0  0  0  0  3  0  0  0  0  0  0
    0.7270    3.6760   -2.1680 C   0  0  0  0  0  3  0  0  0  0  0  0
   -1.6100    0.7740   -2.7350 C   0  0  0  0  0  0  0  0  0  0  0  0
   -2.2120   -0.2030   -1.9740 N   0  0  0  0  0  0  0  0  0  0  0  0
   -1.9140    0.9820   -3.9060 O   0  0  0  0  0  0  0  0  0  0  0  0
   -1.7900   -0.3990   -1.0740 H   0  0  0  0  0  0  0  0  0  0  0  0
   -3.1140   -1.1850   -2.5490 C   0  0  0  0  0  3  0  0  0  0  0  0
   -3.9280   -1.8870   -1.4670 C   0  0  0  0  0  2  0  0  0  0  0  0
   -2.3510   -2.3430   -3.1880 C   0  0  0  0  0  2  0  0  0  0  0  0
   -3.0020   -2.9730   -0.9210 C   0  0  0  0  0  2  0  0  0  0  0  0
   -1.9690   -3.2420   -2.0150 C   0  0  0  0  0  2  0  0  0  0  0  0
  1  2  1  0  0  0  0
  2  3  1  0  0  0  0
  3  5  2  0  0  0  0
  3  8  1  0  0  0  0
  4  9  1  0  0  0  0
  4  6  2  0  0  0  0
  5  4  1  0  0  0  0
  7  6  1  0  0  0  0
  8  7  2  0  0  0  0
 10 11  1  0  0  0  0
 10  1  1  0  0  0  0
 12 10  2  0  0  0  0
 13 11  2  0  0  0  0
 14 15  2  0  0  0  0
 14 12  1  0  0  0  0
 15 13  1  0  0  0  0
 16 12  1  0  0  0  0
 16 17  1  0  0  0  0
 17 19  1  0  0  0  0
 18 16  2  0  0  0  0
 20 17  1  0  0  0  0
 20 21  1  0  0  0  0
 21 23  1  0  0  0  0
 22 20  1  0  0  0  0
 22 24  1  0  0  0  0
 24 23  1  0  0  0  0
M  END
>  <REMARK>
 SMILES Cc1cc(COc2ccccc2C(=O)NC2CCCC2)ncn1
 SMILES IDX 6 1 5 2 4 3 2 4 3 5 23 6 22 7 21 8 1 9 7 10 8 11 12 12 9 13
 SMILES IDX 11 14 10 15 13 16 15 17 14 18 16 20 17 21 20 22 18 23 19 24
 H PARENT 15 19

>  <TORSDO>
F 5

$$$$
