/home/pchatterjee/Documents/git/vs_workflow/DiffDock/diffdock_run/pdbqt_scrubbed/Z2272335630.pdbqt
 OpenBabel10272516423D

 23 22  0  0  1  0  0  0  0  0999 V2000
   -2.6230    0.7060   -0.2420 C   0  0  0  0  0  2  0  0  0  0  0  0
   -1.9610    2.0890   -0.3390 C   0  0  2  0  0  3  0  0  0  0  0  0
   -2.8170    3.1080    0.4350 C   0  0  0  0  0  2  0  0  0  0  0  0
   -2.2990    4.4380    0.3760 O   0  0  0  0  0  0  0  0  0  0  0  0
   -1.1740    4.6390    1.2220 C   0  0  0  0  0  1  0  0  0  0  0  0
   -1.7640    2.5430   -1.7980 C   0  0  0  0  0  1  0  0  0  0  0  0
   -0.9470    1.5900   -2.6780 *   0  0  0  0  0  0  0  0  0  0  0  0
   -1.6410   -0.3290   -0.5130 N   0  0  0  0  0  0  0  0  0  0  0  0
   -1.3780   -0.8010   -1.8610 C   0  0  0  0  0  1  0  0  0  0  0  0
   -1.6370    0.2500   -2.9420 *   0  0  0  0  0  0  0  0  0  0  0  0
   -1.0750   -1.0150    0.5470 C   0  0  0  0  0  0  0  0  0  0  0  0
   -0.3540   -2.1150    0.2910 N   0  0  0  0  0  0  0  0  0  0  0  0
   -1.2510   -0.5390    1.7880 N   0  0  0  0  0  2  0  0  0  0  0  0
    0.2120   -2.7760    1.3190 C   0  0  2  0  0  3  0  0  0  0  0  0
   -0.7030   -1.1970    2.8130 C   0  0  0  0  0  0  0  0  0  0  0  0
    0.0570   -2.3540    2.6480 C   0  0  0  0  0  0  0  0  0  0  0  0
   -0.8990   -0.7110    4.1010 C   0  0  0  0  0  3  0  0  0  0  0  0
    0.5900   -3.0130    3.7860 C   0  0  0  0  0  3  0  0  0  0  0  0
   -0.3670   -1.3500    5.2250 C   0  0  0  0  0  3  0  0  0  0  0  0
    0.3800   -2.5100    5.0670 C   0  0  0  0  0  3  0  0  0  0  0  0
    1.0100   -3.9250    1.0360 N   0  0  0  0  0  0  0  0  0  0  0  0
    2.4040   -3.4990    0.8670 C   0  0  0  0  0  1  0  0  0  0  0  0
    0.4910   -4.6560   -0.1230 C   0  0  0  0  0  1  0  0  0  0  0  0
  2  6  1  6  0  0  0
  2  1  1  0  0  0  0
  2  3  1  0  0  0  0
  4  3  1  0  0  0  0
  4  5  1  0  0  0  0
  8  1  1  0  0  0  0
  8 11  1  0  0  0  0
  9  8  1  0  0  0  0
 11 13  1  0  0  0  0
 12 11  2  0  0  0  0
 12 14  1  0  0  0  0
 13 15  1  0  0  0  0
 14 21  1  6  0  0  0
 14 16  1  0  0  0  0
 15 17  1  0  0  0  0
 16 15  2  0  0  0  0
 16 18  1  0  0  0  0
 17 19  2  0  0  0  0
 18 20  2  0  0  0  0
 20 19  1  0  0  0  0
 22 21  1  0  0  0  0
 23 21  1  0  0  0  0
M  END
>  <REMARK>
 SMILES COCC1CCCCN(c2nc(N(C)C)c3ccccc3n2)C1
 SMILES IDX 23 1 4 2 3 3 2 4 1 5 5 6 6 7 9 9 8 10 7 11 10 13 11 14 22 15
 SMILES IDX 12 16 21 17 16 18 20 19 17 20 19 21 18 22 13 23 14 24 15 25
 H PARENT
 Flexibility Score:   35.900

>  <TORSDO>
F 4

$$$$
