/home/pchatterjee/Documents/git/vs_workflow/DiffDock/diffdock_run/pdbqt_scrubbed/Z2274813544.pdbqt
 OpenBabel10272516423D

 23 22  0  0  1  0  0  0  0  0999 V2000
   -0.0570    0.7000   -1.1570 C   0  0  0  0  0  2  0  0  0  0  0  0
   -0.2700    1.2660    0.1650 N   0  0  0  0  0  2  0  0  0  0  0  0
    0.4240    0.7230    1.2320 C   0  0  0  0  0  0  0  0  0  0  0  0
    1.9270   -0.8410    2.0370 C   0  0  1  0  0  3  0  0  0  0  0  0
    1.2630   -0.2950    1.0050 N   0  0  0  0  0  0  0  0  0  0  0  0
    1.7450   -0.3930    3.3530 C   0  0  0  0  0  0  0  0  0  0  0  0
    2.3730   -0.9400    4.5030 C   0  0  0  0  0  3  0  0  0  0  0  0
    0.8580    0.6740    3.4930 C   0  0  0  0  0  0  0  0  0  0  0  0
    0.2160    1.2210    2.4580 N   0  0  0  0  0  0  0  0  0  0  0  0
    2.1270   -0.4130    5.7690 C   0  0  0  0  0  3  0  0  0  0  0  0
    0.6290    1.1850    4.7660 C   0  0  0  0  0  3  0  0  0  0  0  0
    1.2530    0.6580    5.9000 C   0  0  0  0  0  3  0  0  0  0  0  0
    2.8180   -1.9140    1.7870 N   0  0  0  0  0  0  0  0  0  0  0  0
    2.9300   -2.2850    0.3850 C   0  0  0  0  0  1  0  0  0  0  0  0
    3.7230   -1.6690    2.1800 H   0  0  0  0  0  0  0  0  0  0  0  0
   -0.9920    2.5120    0.3470 *   0  0  0  0  0  0  0  0  0  0  0  0
   -1.1980    0.9880   -2.1370 C   0  0  0  0  0  2  0  0  0  0  0  0
   -2.6250    0.7100   -1.6190 C   0  0  2  0  0  3  0  0  0  0  0  0
   -3.1930    1.8850   -0.8030 C   0  0  0  0  0  1  0  0  0  0  0  0
   -2.4830    2.2250    0.5100 *   0  0  0  0  0  0  0  0  0  0  0  0
   -2.7680   -0.6320   -0.8880 C   0  0  0  0  0  2  0  0  0  0  0  0
   -2.3220   -1.6790   -1.7540 O   0  0  0  0  0  0  0  0  0  0  0  0
   -2.3080   -2.9340   -1.0850 C   0  0  0  0  0  1  0  0  0  0  0  0
  1  2  1  0  0  0  0
  2  3  1  0  0  0  0
  3  9  2  0  0  0  0
  4 13  1  1  0  0  0
  4  6  1  0  0  0  0
  5  3  2  0  0  0  0
  5  4  1  0  0  0  0
  6  8  2  0  0  0  0
  6  7  1  0  0  0  0
  7 10  2  0  0  0  0
  8 11  1  0  0  0  0
  9  8  1  0  0  0  0
 10 12  1  0  0  0  0
 11 12  2  0  0  0  0
 13 15  1  0  0  0  0
 14 13  1  0  0  0  0
 17 18  1  0  0  0  0
 17  1  1  0  0  0  0
 18 21  1  0  0  0  0
 18 19  1  1  0  0  0
 22 23  1  0  0  0  0
 22 21  1  0  0  0  0
M  END
>  <REMARK>
 SMILES CNc1nc(N2CCCC(COC)CC2)nc2ccccc12
 SMILES IDX 15 1 6 2 5 3 3 4 4 5 22 6 21 7 17 8 16 9 20 10 18 11 19 12
 SMILES IDX 2 13 1 14 7 16 14 18 10 19 9 20 8 21 11 23 12 24 13 25
 H PARENT 2 15
 Flexibility Score:   35.900

>  <TORSDO>
F 4

$$$$
