/home/pchatterjee/Documents/git/vs_workflow/DiffDock/diffdock_run/pdbqt_scrubbed/Z235827660.pdbqt
 OpenBabel10272516423D

 40 44  0  0  1  0  0  0  0  0999 V2000
   -2.3820   -0.8160   -3.3320 N   0  0  0  0  0  4  0  0  0  0  0  0
   -0.8820   -0.4900   -3.4140 C   0  0  0  0  0  2  0  0  0  0  0  0
   -0.6710    0.9220   -4.0260 C   0  0  0  0  0  2  0  0  0  0  0  0
   -1.2920    2.0240   -3.1430 N   0  0  0  0  0  4  0  0  0  0  0  0
   -2.5330    1.5520   -2.3700 C   0  0  0  0  0  2  0  0  0  0  0  0
   -3.2730    0.4210   -3.1350 C   0  0  0  0  0  2  0  0  0  0  0  0
   -2.6410   -1.2110   -4.2500 H   0  0  0  0  0  0  0  0  0  0  0  0
   -1.6070    2.7650   -3.7880 H   0  0  0  0  0  0  0  0  0  0  0  0
   -2.6810   -1.9870   -2.3550 C   0  0  0  0  0  2  0  0  0  0  0  0
   -2.9230   -1.6040   -0.9410 C   0  0  0  0  0  0  0  0  0  0  0  0
   -2.9360   -0.9610    1.0600 C   0  0  0  0  0  0  0  0  0  0  0  0
   -4.2100   -0.8200    0.6590 N   0  0  0  0  0  0  0  0  0  0  0  0
   -2.0850   -1.3610    0.0390 N   0  0  0  0  0  0  0  0  0  0  0  0
   -4.2140   -1.3070   -0.6330 O   0  0  0  0  0  0  0  0  0  0  0  0
   -2.4950   -0.6780    2.4150 C   0  0  0  0  0  0  0  0  0  0  0  0
   -1.6950   -0.1820    5.0710 C   0  0  0  0  0  0  0  0  0  0  0  0
   -1.1600   -1.2600    4.3580 C   0  0  0  0  0  3  0  0  0  0  0  0
   -2.6520    0.6310    4.4570 C   0  0  0  0  0  3  0  0  0  0  0  0
   -1.5470   -1.5000    3.0340 C   0  0  0  0  0  3  0  0  0  0  0  0
   -3.0500    0.3860    3.1390 C   0  0  0  0  0  3  0  0  0  0  0  0
   -1.3070    0.0650    6.5010 C   0  0  0  0  0  1  0  0  0  0  0  0
   -0.2660    2.7640   -2.1960 C   0  0  2  0  0  3  0  0  0  0  0  0
    0.4500    3.8320   -3.0290 C   0  0  0  0  0  1  0  0  0  0  0  0
    0.7170    1.8490   -1.4700 C   0  0  0  0  0  0  0  0  0  0  0  0
    1.6640    1.2800   -2.2180 N   0  0  0  0  0  4  0  0  0  0  0  0
    0.4540    1.5220   -0.2070 N   0  0  0  0  0  0  0  0  0  0  0  0
    2.3970    0.3680   -1.6060 C   0  0  0  0  0  0  0  0  0  0  0  0
    1.2750    0.6200    0.3380 C   0  0  0  0  0  0  0  0  0  0  0  0
    2.2170   -0.0080   -0.3600 N   0  0  0  0  0  2  0  0  0  0  0  0
    3.3710   -0.2710   -2.3460 N   0  0  0  0  0  0  0  0  0  0  0  0
    3.8920    0.4120   -2.8850 H   0  0  0  0  0  0  0  0  0  0  0  0
    3.9730   -0.7790   -1.7010 H   0  0  0  0  0  0  0  0  0  0  0  0
    1.1220    0.3770    1.6990 N   0  0  0  0  0  0  0  0  0  0  0  0
    0.5000    1.0370    2.1470 H   0  0  0  0  0  0  0  0  0  0  0  0
    1.8490   -0.4500    2.5700 C   0  0  0  0  0  0  0  0  0  0  0  0
    2.4570   -1.6450    2.1630 C   0  0  0  0  0  3  0  0  0  0  0  0
    2.0270   -0.0420    3.9020 C   0  0  0  0  0  3  0  0  0  0  0  0
    3.1920   -2.4280    3.0610 C   0  0  0  0  0  3  0  0  0  0  0  0
    2.7710   -0.8160    4.7990 C   0  0  0  0  0  3  0  0  0  0  0  0
    3.3540   -2.0070    4.3770 C   0  0  0  0  0  3  0  0  0  0  0  0
  1  6  1  0  0  0  0
  1  9  1  0  0  0  0
  2  1  1  0  0  0  0
  3  2  1  0  0  0  0
  3  4  1  0  0  0  0
  4  5  1  0  0  0  0
  4 22  1  0  0  0  0
  6  5  1  0  0  0  0
  7  1  1  0  0  0  0
  8  4  1  0  0  0  0
  9 10  1  0  0  0  0
 10 14  1  0  0  0  0
 10 13  2  0  0  0  0
 11 15  1  0  0  0  0
 12 11  2  0  0  0  0
 13 11  1  0  0  0  0
 14 12  1  0  0  0  0
 15 19  2  0  0  0  0
 15 20  1  0  0  0  0
 16 21  1  0  0  0  0
 17 16  2  0  0  0  0
 18 16  1  0  0  0  0
 19 17  1  0  0  0  0
 20 18  2  0  0  0  0
 22 23  1  6  0  0  0
 22 24  1  0  0  0  0
 24 26  1  0  0  0  0
 25 27  2  0  0  0  0
 25 24  2  0  0  0  0
 26 28  2  0  0  0  0
 27 29  1  0  0  0  0
 28 33  1  0  0  0  0
 29 28  1  0  0  0  0
 30 32  1  0  0  0  0
 30 27  1  0  0  0  0
 31 30  1  0  0  0  0
 33 34  1  0  0  0  0
 33 35  1  0  0  0  0
 35 37  1  0  0  0  0
 36 35  2  0  0  0  0
 36 38  1  0  0  0  0
 37 39  2  0  0  0  0
 38 40  2  0  0  0  0
 40 39  1  0  0  0  0
M  END
>  <REMARK>
 SMILES Cc1ccc(-c2noc(C[NH+]3CC[NH+](C(C)c4nc(N)nc(Nc5ccccc5)n4)CC3)n2)cc1
 SMILES IDX 11 1 12 2 13 3 14 4 31 5 32 6 10 9 9 10 6 11 7 12 33 13 8 14
 SMILES IDX 5 15 2 16 3 17 35 18 4 19 34 20 1 21 15 22 16 23 17 24 18 25
 SMILES IDX 30 26 19 27 22 28 21 29 20 30 23 33 24 35 25 36 29 37 26 38
 SMILES IDX 28 39 27 40
 H PARENT 11 7 14 8 20 31 20 32 23 34

>  <TORSDO>
F 8

$$$$
