/home/pchatterjee/Documents/git/vs_workflow/DiffDock/diffdock_run/pdbqt_scrubbed/Z237513862.pdbqt
 OpenBabel10272516423D

 29 28  0  0  1  0  0  0  0  0999 V2000
   -4.3450    0.1640    0.4330 S   0  0  0  0  0  0  0  0  0  0  0  0
   -3.2820    1.0270    1.4720 C   0  0  0  0  0  0  0  0  0  0  0  0
   -1.7330    1.7570    2.6870 C   0  0  0  0  0  0  0  0  0  0  0  0
   -2.6420    2.7450    2.7390 N   0  0  0  0  0  0  0  0  0  0  0  0
   -2.1190    0.6610    1.9460 N   0  0  0  0  0  0  0  0  0  0  0  0
   -3.5990    2.2670    1.9250 N   0  0  0  0  0  0  0  0  0  0  0  0
   -4.4220    2.8220    1.7260 H   0  0  0  0  0  0  0  0  0  0  0  0
   -0.4030    1.8160    3.3670 C   0  0  0  0  0  2  0  0  0  0  0  0
    0.3690    2.9870    3.0410 O   0  0  0  0  0  0  0  0  0  0  0  0
    1.3170    2.7860    2.0710 C   0  0  0  0  0  0  0  0  0  0  0  0
    2.6160    3.2500    2.3350 C   0  0  0  0  0  0  0  0  0  0  0  0
    3.6040    3.1050    1.3500 C   0  0  0  0  0  3  0  0  0  0  0  0
    3.2980    2.5270    0.1180 C   0  0  0  0  0  3  0  0  0  0  0  0
    1.0090    2.2280    0.8270 C   0  0  0  0  0  3  0  0  0  0  0  0
    2.0000    2.0980   -0.1450 C   0  0  0  0  0  3  0  0  0  0  0  0
    2.9460    3.9110    3.6440 C   0  0  0  0  0  1  0  0  0  0  0  0
   -3.3190   -1.2700   -0.0770 C   0  0  2  0  0  3  0  0  0  0  0  0
   -3.1340   -2.2290    1.0990 C   0  0  0  0  0  1  0  0  0  0  0  0
   -2.0240   -0.8150   -0.7820 C   0  0  0  0  0  0  0  0  0  0  0  0
   -1.0010   -1.7480   -0.8000 N   0  0  0  0  0  0  0  0  0  0  0  0
   -1.9210    0.2600   -1.3750 O   0  0  0  0  0  0  0  0  0  0  0  0
   -1.1940   -2.6920   -0.4950 H   0  0  0  0  0  0  0  0  0  0  0  0
    0.2350   -1.5370   -1.5560 C   0  0  0  0  0  3  0  0  0  0  0  0
    1.3860   -2.2510   -0.8370 C   0  0  0  0  0  2  0  0  0  0  0  0
    2.6890   -2.4140   -1.6130 C   0  0  0  0  0  1  0  0  0  0  0  0
    3.1470   -1.1880   -2.3970 *   0  0  0  0  0  0  0  0  0  0  0  0
    0.0260   -1.9740   -3.0140 C   0  0  0  0  0  2  0  0  0  0  0  0
    1.1860   -1.7270   -3.9890 C   0  0  0  0  0  1  0  0  0  0  0  0
    2.2240   -0.7110   -3.5250 *   0  0  0  0  0  0  0  0  0  0  0  0
  1  2  1  0  0  0  0
  2  6  1  0  0  0  0
  2  5  2  0  0  0  0
  3  4  2  0  0  0  0
  3  8  1  0  0  0  0
  5  3  1  0  0  0  0
  6  4  1  0  0  0  0
  7  6  1  0  0  0  0
  9  8  1  0  0  0  0
 10 11  1  0  0  0  0
 10  9  1  0  0  0  0
 11 16  1  0  0  0  0
 12 11  2  0  0  0  0
 13 12  1  0  0  0  0
 14 10  2  0  0  0  0
 15 13  2  0  0  0  0
 15 14  1  0  0  0  0
 17  1  1  0  0  0  0
 17 18  1  1  0  0  0
 19 17  1  0  0  0  0
 20 19  1  0  0  0  0
 20 22  1  0  0  0  0
 21 19  2  0  0  0  0
 23 24  1  0  0  0  0
 23 20  1  0  0  0  0
 25 24  1  0  0  0  0
 27 23  1  0  0  0  0
 28 27  1  0  0  0  0
M  END
>  <REMARK>
 SMILES Cc1ccccc1OCc1n[nH]c(SC(C)C(=O)NC2CCCCCC2)n1
 SMILES IDX 14 1 13 2 10 3 11 4 27 5 12 6 9 8 8 9 7 10 2 11 3 12 4 13
 SMILES IDX 6 14 5 15 1 16 15 17 16 18 17 19 19 20 18 21 20 23 21 24
 SMILES IDX 22 25 23 26 26 28 25 29 24 30
 H PARENT 12 7 19 22
 Flexibility Score:   83.900

>  <TORSDO>
F 7

$$$$
