/home/pchatterjee/Documents/git/vs_workflow/DiffDock/diffdock_run/pdbqt_scrubbed/Z24682342.pdbqt
 OpenBabel10272516423D

 27 30  0  0  1  0  0  0  0  0999 V2000
    2.3030    1.2710    0.3610 S   0  0  0  0  0  0  0  0  0  0  0  0
    2.0710    0.1710   -1.0720 C   0  0  0  0  0  2  0  0  0  0  0  0
    1.2190    0.8750   -2.1150 C   0  0  0  0  0  0  0  0  0  0  0  0
    1.8730    1.5910   -3.0970 N   0  0  0  0  0  0  0  0  0  0  0  0
    1.1340    2.2630   -4.1520 C   0  0  0  0  0  2  0  0  0  0  0  0
    3.3020    1.8220   -3.2230 C   0  0  0  0  0  2  0  0  0  0  0  0
    2.2020    2.6890   -5.1490 C   0  0  0  0  0  2  0  0  0  0  0  0
    3.4150    2.9300   -4.2620 C   0  0  0  0  0  2  0  0  0  0  0  0
   -0.0120    0.8010   -2.0900 O   0  0  0  0  0  0  0  0  0  0  0  0
    1.5650    0.3200    1.6620 C   0  0  0  0  0  0  0  0  0  0  0  0
    0.7540   -0.6910    1.3530 N   0  0  0  0  0  0  0  0  0  0  0  0
    1.8830    0.6850    2.9090 N   0  0  0  0  0  2  0  0  0  0  0  0
    0.2000   -1.3880    2.3580 C   0  0  2  0  0  3  0  0  0  0  0  0
    1.3300   -0.0010    3.9100 C   0  0  0  0  0  0  0  0  0  0  0  0
    0.4530   -1.0720    3.7040 C   0  0  0  0  0  0  0  0  0  0  0  0
    1.6380    0.3660    5.2150 C   0  0  0  0  0  3  0  0  0  0  0  0
   -0.1100   -1.7380    4.8250 C   0  0  0  0  0  3  0  0  0  0  0  0
    1.0950   -0.2970    6.3190 C   0  0  0  0  0  3  0  0  0  0  0  0
    0.2140   -1.3500    6.1230 C   0  0  0  0  0  3  0  0  0  0  0  0
   -0.6520   -2.4840    2.0530 N   0  0  0  0  0  0  0  0  0  0  0  0
   -0.3280   -3.3060    2.5480 H   0  0  0  0  0  0  0  0  0  0  0  0
   -1.2220   -2.8240    0.8040 C   0  0  0  0  0  0  0  0  0  0  0  0
   -1.5990   -4.1540    0.5660 C   0  0  0  0  0  3  0  0  0  0  0  0
   -1.5370   -1.8720   -0.1720 C   0  0  0  0  0  3  0  0  0  0  0  0
   -2.2070   -4.5310   -0.6370 C   0  0  0  0  0  3  0  0  0  0  0  0
   -2.1430   -2.2430   -1.3760 C   0  0  0  0  0  3  0  0  0  0  0  0
   -2.4710   -3.5750   -1.6120 C   0  0  0  0  0  3  0  0  0  0  0  0
  1 10  1  0  0  0  0
  2  1  1  0  0  0  0
  3  9  2  0  0  0  0
  3  2  1  0  0  0  0
  4  3  1  0  0  0  0
  5  4  1  0  0  0  0
  6  4  1  0  0  0  0
  7  8  1  0  0  0  0
  7  5  1  0  0  0  0
  8  6  1  0  0  0  0
 10 12  1  0  0  0  0
 11 10  2  0  0  0  0
 11 13  1  0  0  0  0
 12 14  1  0  0  0  0
 13 20  1  6  0  0  0
 13 15  1  0  0  0  0
 14 16  1  0  0  0  0
 15 14  2  0  0  0  0
 15 17  1  0  0  0  0
 16 18  2  0  0  0  0
 17 19  2  0  0  0  0
 19 18  1  0  0  0  0
 20 21  1  0  0  0  0
 22 20  1  0  0  0  0
 23 22  1  0  0  0  0
 24 22  2  0  0  0  0
 25 23  2  0  0  0  0
 26 24  1  0  0  0  0
 27 26  2  0  0  0  0
 27 25  1  0  0  0  0
M  END
>  <REMARK>
 SMILES O=C(CSc1nc(Nc2ccccc2)c2ccccc2n1)N1CCCC1
 SMILES IDX 4 1 3 2 2 3 22 4 23 5 26 6 24 7 25 8 1 9 5 10 6 11 21 12
 SMILES IDX 7 13 20 14 15 15 19 16 16 17 18 18 17 19 8 20 9 22 10 23
 SMILES IDX 14 24 11 25 13 26 12 27
 H PARENT 8 21

>  <TORSDO>
F 5

$$$$
