/home/pchatterjee/Documents/git/vs_workflow/DiffDock/diffdock_run/pdbqt_scrubbed/Z24682220.pdbqt
 OpenBabel10272516423D

 30 33  0  0  1  0  0  0  0  0999 V2000
    3.9690   -1.6470    1.2970 C   0  0  0  0  0  2  0  0  0  0  0  0
    2.6910   -2.4610    1.1040 C   0  0  0  0  0  0  0  0  0  0  0  0
    1.7370   -2.0320    0.2180 N   0  0  0  0  0  0  0  0  0  0  0  0
    2.5190   -3.4870    1.7700 O   0  0  0  0  0  0  0  0  0  0  0  0
    1.8390   -1.1280   -0.2400 H   0  0  0  0  0  0  0  0  0  0  0  0
    0.4430   -2.6840    0.0980 C   0  0  0  0  0  2  0  0  0  0  0  0
   -0.4740   -2.4300    1.3030 C   0  0  2  0  0  3  0  0  0  0  0  0
   -1.6630   -3.3720    1.3410 C   0  0  0  0  0  2  0  0  0  0  0  0
   -1.0660   -1.1070    1.2680 O   0  0  0  0  0  0  0  0  0  0  0  0
   -2.5920   -2.6370    2.2730 C   0  0  0  0  0  2  0  0  0  0  0  0
   -2.3550   -1.1880    1.9010 C   0  0  0  0  0  2  0  0  0  0  0  0
    4.2750   -0.2880    0.1420 S   0  0  0  0  0  0  0  0  0  0  0  0
    3.0010    0.8010    0.7040 C   0  0  0  0  0  0  0  0  0  0  0  0
    1.9020    0.8050   -0.0530 N   0  0  0  0  0  0  0  0  0  0  0  0
    3.1340    1.3910    1.8940 N   0  0  0  0  0  2  0  0  0  0  0  0
    0.8220    1.4320    0.4380 C   0  0  2  0  0  3  0  0  0  0  0  0
    2.0660    2.0450    2.3610 C   0  0  0  0  0  0  0  0  0  0  0  0
    0.8450    2.0940    1.6760 C   0  0  0  0  0  0  0  0  0  0  0  0
    2.1600    2.6840    3.5910 C   0  0  0  0  0  3  0  0  0  0  0  0
   -0.2540    2.7840    2.2460 C   0  0  0  0  0  3  0  0  0  0  0  0
    1.0770    3.3660    4.1560 C   0  0  0  0  0  3  0  0  0  0  0  0
   -0.1360    3.4160    3.4820 C   0  0  0  0  0  3  0  0  0  0  0  0
   -0.4140    1.2940   -0.2550 N   0  0  0  0  0  0  0  0  0  0  0  0
   -0.9770    0.6710    0.3350 H   0  0  0  0  0  0  0  0  0  0  0  0
   -0.5750    0.9180   -1.6140 C   0  0  0  0  0  0  0  0  0  0  0  0
    0.3320    1.2960   -2.6120 C   0  0  0  0  0  3  0  0  0  0  0  0
   -1.7520    0.2640   -2.0050 C   0  0  0  0  0  3  0  0  0  0  0  0
    0.1120    0.9550   -3.9500 C   0  0  0  0  0  3  0  0  0  0  0  0
   -1.9760   -0.0780   -3.3420 C   0  0  0  0  0  3  0  0  0  0  0  0
   -1.0360    0.2600   -4.3140 C   0  0  0  0  0  3  0  0  0  0  0  0
  2  1  1  0  0  0  0
  2  4  2  0  0  0  0
  3  2  1  0  0  0  0
  5  3  1  0  0  0  0
  6  3  1  0  0  0  0
  7  6  1  6  0  0  0
  7  8  1  0  0  0  0
  8 10  1  0  0  0  0
  9  7  1  0  0  0  0
  9 11  1  0  0  0  0
 11 10  1  0  0  0  0
 12 13  1  0  0  0  0
 12  1  1  0  0  0  0
 13 15  1  0  0  0  0
 14 16  1  0  0  0  0
 14 13  2  0  0  0  0
 15 17  1  0  0  0  0
 16 23  1  1  0  0  0
 16 18  1  0  0  0  0
 17 19  1  0  0  0  0
 18 20  1  0  0  0  0
 18 17  2  0  0  0  0
 19 21  2  0  0  0  0
 20 22  2  0  0  0  0
 22 21  1  0  0  0  0
 23 24  1  0  0  0  0
 25 23  1  0  0  0  0
 26 25  2  0  0  0  0
 27 25  1  0  0  0  0
 28 26  1  0  0  0  0
 29 27  2  0  0  0  0
 30 28  2  0  0  0  0
 30 29  1  0  0  0  0
M  END
>  <REMARK>
 SMILES O=C(CSc1nc(Nc2ccccc2)c2ccccc2n1)NCC1CCCO1
 SMILES IDX 3 1 2 2 22 3 1 4 23 6 24 7 25 8 28 9 26 10 27 11 4 12 5 13
 SMILES IDX 6 14 21 15 7 16 20 17 15 18 19 19 16 20 18 21 17 22 8 23
 SMILES IDX 9 25 10 26 14 27 11 28 13 29 12 30
 H PARENT 22 5 8 24

>  <TORSDO>
F 7

$$$$
