/home/pchatterjee/Documents/git/vs_workflow/DiffDock/diffdock_run/pdbqt_scrubbed/Z25402869.pdbqt
 OpenBabel10272516423D

 29 32  0  0  1  0  0  0  0  0999 V2000
   -3.0320   -4.5980   -0.6220 S   0  0  0  0  0  0  0  0  0  0  0  0
   -1.6210   -4.3220   -1.7230 C   0  0  0  0  0  2  0  0  0  0  0  0
   -0.3200   -4.2200   -0.9450 C   0  0  0  0  0  0  0  0  0  0  0  0
    0.2510   -2.9640   -0.9570 N   0  0  0  0  0  0  0  0  0  0  0  0
    0.1870   -5.1830   -0.3770 O   0  0  0  0  0  0  0  0  0  0  0  0
   -0.2680   -2.1720   -1.3030 H   0  0  0  0  0  0  0  0  0  0  0  0
    1.5030   -2.6830   -0.2630 C   0  0  2  0  0  3  0  0  0  0  0  0
    1.2810   -2.4950    1.2470 C   0  0  0  0  0  2  0  0  0  0  0  0
    2.1570   -1.4760   -0.9160 C   0  0  0  0  0  0  0  0  0  0  0  0
    0.6940   -1.1190    1.5500 C   0  0  0  0  0  2  0  0  0  0  0  0
    2.7150   -1.6140   -2.2020 C   0  0  0  0  0  3  0  0  0  0  0  0
    2.1840   -0.2140   -0.2900 C   0  0  0  0  0  0  0  0  0  0  0  0
    1.6520   -0.0140    1.1090 C   0  0  0  0  0  2  0  0  0  0  0  0
    3.3020   -0.5250   -2.8510 C   0  0  0  0  0  3  0  0  0  0  0  0
    2.7860    0.8720   -0.9510 C   0  0  0  0  0  3  0  0  0  0  0  0
    3.3380    0.7170   -2.2250 C   0  0  0  0  0  3  0  0  0  0  0  0
   -3.0360   -3.1000    0.2750 C   0  0  0  0  0  0  0  0  0  0  0  0
   -2.6780   -3.0520    1.5370 N   0  0  0  0  0  0  0  0  0  0  0  0
   -3.5080   -1.5940   -0.3870 S   0  0  0  0  0  0  0  0  0  0  0  0
   -2.7580   -1.7710    2.0430 N   0  0  0  0  0  0  0  0  0  0  0  0
   -3.1310   -0.8820    1.1440 C   0  0  0  0  0  0  0  0  0  0  0  0
   -3.2690    0.4370    1.4300 N   0  0  0  0  0  0  0  0  0  0  0  0
   -3.1840    0.6280    2.4260 H   0  0  0  0  0  0  0  0  0  0  0  0
   -2.7430    1.5320    0.6990 C   0  0  0  0  0  0  0  0  0  0  0  0
   -3.1660    2.8220    1.0660 C   0  0  0  0  0  3  0  0  0  0  0  0
   -1.8470    1.4150   -0.3720 C   0  0  0  0  0  3  0  0  0  0  0  0
   -2.6940    3.9570    0.3970 C   0  0  0  0  0  3  0  0  0  0  0  0
   -1.3690    2.5490   -1.0410 C   0  0  0  0  0  3  0  0  0  0  0  0
   -1.7930    3.8200   -0.6560 C   0  0  0  0  0  3  0  0  0  0  0  0
  1 17  1  0  0  0  0
  2  3  1  0  0  0  0
  2  1  1  0  0  0  0
  3  5  2  0  0  0  0
  4  3  1  0  0  0  0
  6  4  1  0  0  0  0
  7  4  1  6  0  0  0
  7  8  1  0  0  0  0
  8 10  1  0  0  0  0
  9 12  1  0  0  0  0
  9  7  1  0  0  0  0
 11  9  2  0  0  0  0
 12 13  1  0  0  0  0
 13 10  1  0  0  0  0
 14 16  2  0  0  0  0
 14 11  1  0  0  0  0
 15 12  2  0  0  0  0
 16 15  1  0  0  0  0
 17 18  2  0  0  0  0
 18 20  1  0  0  0  0
 19 17  1  0  0  0  0
 19 21  1  0  0  0  0
 21 22  1  0  0  0  0
 21 20  2  0  0  0  0
 22 23  1  0  0  0  0
 24 25  1  0  0  0  0
 24 22  1  0  0  0  0
 26 24  2  0  0  0  0
 27 25  2  0  0  0  0
 28 29  2  0  0  0  0
 28 26  1  0  0  0  0
 29 27  1  0  0  0  0
M  END
>  <REMARK>
 SMILES O=C(CSc1nnc(Nc2ccccc2)s1)NC1CCCc2ccccc21
 SMILES IDX 4 1 3 2 2 3 17 4 1 5 18 7 19 8 27 9 20 10 26 11 22 12 21 13
 SMILES IDX 25 14 23 15 24 16 5 17 6 18 16 19 7 20 8 21 9 22 10 24 11 25
 SMILES IDX 15 26 12 27 14 28 13 29
 H PARENT 17 6 9 23

>  <TORSDO>
F 6

$$$$
