/home/pchatterjee/Documents/git/vs_workflow/DiffDock/diffdock_run/pdbqt_scrubbed/Z25935093.pdbqt
 OpenBabel10272516423D

 29 32  0  0  0  0  0  0  0  0999 V2000
   -2.7990    0.6860    0.3700 N   0  0  0  0  0  0  0  0  0  0  0  0
   -2.7780    0.6920   -1.0070 C   0  0  0  0  0  0  0  0  0  0  0  0
   -2.4600    1.8830   -1.4590 N   0  0  0  0  0  0  0  0  0  0  0  0
   -2.2520    2.6680   -0.3560 C   0  0  0  0  0  0  0  0  0  0  0  0
   -1.8850    4.0190   -0.2770 C   0  0  0  0  0  3  0  0  0  0  0  0
   -1.7210    4.5990    0.9860 C   0  0  0  0  0  3  0  0  0  0  0  0
   -1.9160    3.8480    2.1470 C   0  0  0  0  0  3  0  0  0  0  0  0
   -2.2840    2.5000    2.0870 C   0  0  0  0  0  3  0  0  0  0  0  0
   -2.4480    1.9430    0.8130 C   0  0  0  0  0  0  0  0  0  0  0  0
   -3.1230   -0.4300    1.2330 C   0  0  0  0  0  2  0  0  0  0  0  0
   -1.8880   -1.0390    1.8570 C   0  0  0  0  0  0  0  0  0  0  0  0
   -0.9450   -1.5140    0.9650 N   0  0  0  0  0  0  0  0  0  0  0  0
   -1.7700   -1.1380    3.0760 O   0  0  0  0  0  0  0  0  0  0  0  0
   -0.9910   -1.1720    0.0090 H   0  0  0  0  0  0  0  0  0  0  0  0
    0.3560   -1.9880    1.4320 C   0  0  0  0  0  3  0  0  0  0  0  0
    1.2890   -0.8130    1.7860 C   0  0  0  0  0  2  0  0  0  0  0  0
    0.9890   -2.9160    0.3930 C   0  0  0  0  0  2  0  0  0  0  0  0
    2.3130   -0.4810    0.6960 C   0  0  0  0  0  2  0  0  0  0  0  0
    1.3650   -2.1910   -0.9030 C   0  0  0  0  0  2  0  0  0  0  0  0
    1.7650   -0.7290   -0.7010 C   0  0  0  0  0  2  0  0  0  0  0  0
   -3.0420   -0.4080   -1.7380 N   0  0  0  0  0  0  0  0  0  0  0  0
   -3.1980   -1.3300   -1.3610 H   0  0  0  0  0  0  0  0  0  0  0  0
   -3.0410   -0.3350   -3.1890 C   0  0  0  0  0  2  0  0  0  0  0  0
   -1.8370   -1.0620   -3.7350 C   0  0  0  0  0  0  0  0  0  0  0  0
   -1.8850   -2.4390   -4.0000 C   0  0  0  0  0  3  0  0  0  0  0  0
   -0.6390   -0.3690   -3.9620 C   0  0  0  0  0  3  0  0  0  0  0  0
   -0.7630   -3.1020   -4.5010 C   0  0  0  0  0  3  0  0  0  0  0  0
    0.4790   -1.0330   -4.4690 C   0  0  0  0  0  3  0  0  0  0  0  0
    0.4160   -2.3990   -4.7390 C   0  0  0  0  0  3  0  0  0  0  0  0
  1  9  1  0  0  0  0
  1 10  1  0  0  0  0
  2  1  1  0  0  0  0
  3  2  2  0  0  0  0
  3  4  1  0  0  0  0
  4  5  2  0  0  0  0
  4  9  1  0  0  0  0
  5  6  1  0  0  0  0
  6  7  2  0  0  0  0
  8  7  1  0  0  0  0
  9  8  2  0  0  0  0
 10 11  1  0  0  0  0
 11 13  2  0  0  0  0
 12 15  1  0  0  0  0
 12 11  1  0  0  0  0
 14 12  1  0  0  0  0
 15 16  1  0  0  0  0
 17 15  1  0  0  0  0
 18 16  1  0  0  0  0
 19 20  1  0  0  0  0
 19 17  1  0  0  0  0
 20 18  1  0  0  0  0
 21 22  1  0  0  0  0
 21  2  1  0  0  0  0
 23 21  1  0  0  0  0
 24 23  1  0  0  0  0
 25 24  2  0  0  0  0
 26 24  1  0  0  0  0
 27 25  1  0  0  0  0
 28 26  2  0  0  0  0
 29 27  2  0  0  0  0
 29 28  1  0  0  0  0
M  END
>  <REMARK>
 SMILES O=C(Cn1c(NCc2ccccc2)nc2ccccc21)NC1CCCCC1
 SMILES IDX 4 1 5 2 14 3 15 4 16 5 17 6 18 7 19 8 20 9 3 10 2 11 21 12
 SMILES IDX 1 13 22 15 23 16 27 17 24 18 26 19 25 20 6 21 7 23 8 24 9 25
 SMILES IDX 13 26 10 27 12 28 11 29
 H PARENT 21 14 6 22

>  <TORSDO>
F 6

$$$$
