/home/pchatterjee/Documents/git/vs_workflow/DiffDock/diffdock_run/pdbqt_scrubbed/Z2613622720.pdbqt
 OpenBabel10272516423D

 26 29  0  0  1  0  0  0  0  0999 V2000
   -0.8770    0.8530    0.6170 C   0  0  0  0  0  0  0  0  0  0  0  0
   -0.4600    0.0260   -0.3710 N   0  0  0  0  0  0  0  0  0  0  0  0
    0.5840   -0.8080   -0.1860 C   0  0  0  0  0  0  0  0  0  0  0  0
    1.1590   -0.8000    1.0630 C   0  0  0  0  0  0  0  0  0  0  0  0
    2.1660   -1.4990    1.6670 N   0  0  0  0  0  0  0  0  0  0  0  0
    2.2770   -1.0320    2.9470 C   0  0  0  0  0  2  0  0  0  0  0  0
    1.3970   -0.0870    3.1980 N   0  0  0  0  0  0  0  0  0  0  0  0
    0.6920    0.0590    2.0310 C   0  0  0  0  0  0  0  0  0  0  0  0
   -0.3220    0.9110    1.8330 N   0  0  0  0  0  2  0  0  0  0  0  0
    2.7230   -2.2230    1.2350 H   0  0  0  0  0  0  0  0  0  0  0  0
   -1.9380    1.7240    0.3290 N   0  0  0  0  0  0  0  0  0  0  0  0
   -3.9220    2.2980   -1.0330 C   0  0  2  0  0  3  0  0  0  0  0  0
   -2.8420    1.2390   -0.7300 C   0  0  0  0  0  2  0  0  0  0  0  0
   -4.6260    2.6870    0.1650 O   0  0  0  0  0  0  0  0  0  0  0  0
   -3.7070    3.2460    1.1170 C   0  0  0  0  0  2  0  0  0  0  0  0
   -2.6300    2.2310    1.5250 C   0  0  0  0  0  2  0  0  0  0  0  0
   -4.9350    1.7480   -2.0290 C   0  0  0  0  0  2  0  0  0  0  0  0
   -4.3120    1.4390   -3.1970 F   0  0  0  0  0  0  0  0  0  0  0  0
    0.9690   -1.6500   -1.2380 N   0  0  0  0  0  0  0  0  0  0  0  0
    0.3910   -1.3950   -2.0380 H   0  0  0  0  0  0  0  0  0  0  0  0
    2.2860   -1.9440   -1.6540 C   0  0  0  0  0  0  0  0  0  0  0  0
    3.3520   -1.0520   -1.4820 C   0  0  0  0  0  3  0  0  0  0  0  0
    2.5150   -3.1330   -2.3560 C   0  0  0  0  0  3  0  0  0  0  0  0
    4.6290   -1.3690   -1.9510 C   0  0  0  0  0  3  0  0  0  0  0  0
    3.7910   -3.4530   -2.8260 C   0  0  0  0  0  3  0  0  0  0  0  0
    4.8490   -2.5720   -2.6180 C   0  0  0  0  0  3  0  0  0  0  0  0
  1  9  1  0  0  0  0
  2  3  1  0  0  0  0
  2  1  2  0  0  0  0
  3  4  2  0  0  0  0
  4  5  1  0  0  0  0
  4  8  1  0  0  0  0
  5  6  1  0  0  0  0
  6  7  1  0  0  0  0
  8  7  2  0  0  0  0
  9  8  1  0  0  0  0
 10  5  1  0  0  0  0
 11  1  1  0  0  0  0
 11 16  1  0  0  0  0
 12 17  1  6  0  0  0
 12 13  1  0  0  0  0
 12 14  1  0  0  0  0
 13 11  1  0  0  0  0
 14 15  1  0  0  0  0
 15 16  1  0  0  0  0
 18 17  1  0  0  0  0
 19  3  1  0  0  0  0
 20 19  1  0  0  0  0
 21 22  1  0  0  0  0
 21 19  1  0  0  0  0
 23 21  2  0  0  0  0
 24 22  2  0  0  0  0
 25 26  2  0  0  0  0
 25 23  1  0  0  0  0
 26 24  1  0  0  0  0
M  END
>  <REMARK>
 SMILES FCC1CN(c2nc(Nc3ccccc3)c3[nH]cnc3n2)CCO1
 SMILES IDX 6 1 7 2 8 3 16 4 17 5 18 6 19 7 20 8 21 9 5 11 3 12 4 13
 SMILES IDX 24 14 23 15 22 16 2 17 1 18 9 19 10 21 11 22 15 23 12 24
 SMILES IDX 14 25 13 26
 H PARENT 17 10 9 20

>  <TORSDO>
F 4

$$$$
