/home/pchatterjee/Documents/git/vs_workflow/DiffDock/diffdock_run/pdbqt_scrubbed/Z2610310359.pdbqt
 OpenBabel10272516423D

 27 30  0  0  1  0  0  0  0  0999 V2000
    1.0520    0.3240   -1.5930 C   0  0  1  0  0  3  0  0  0  0  0  0
    0.4970    0.3940   -3.0270 C   0  0  0  0  0  2  0  0  0  0  0  0
   -0.7120   -0.5290   -3.2150 C   0  0  0  0  0  2  0  0  0  0  0  0
   -0.4010   -1.9580   -2.7590 C   0  0  0  0  0  2  0  0  0  0  0  0
    0.1070   -1.9450   -1.3860 N   0  0  0  0  0  0  0  0  0  0  0  0
    1.3170   -1.1400   -1.1980 C   0  0  0  0  0  2  0  0  0  0  0  0
    2.3180    1.1710   -1.4590 C   0  0  0  0  0  2  0  0  0  0  0  0
    2.8250    1.1380   -0.1320 O   0  0  0  0  0  0  0  0  0  0  0  0
    2.0960    1.3670    0.4740 H   0  0  0  0  0  0  0  0  0  0  0  0
   -0.8630   -1.8710   -0.3820 C   0  0  0  0  0  0  0  0  0  0  0  0
   -0.5330   -1.2640    0.7810 N   0  0  0  0  0  0  0  0  0  0  0  0
   -2.0630   -2.4010   -0.6270 N   0  0  0  0  0  0  0  0  0  0  0  0
   -1.4110   -1.1360    1.8030 C   0  0  0  0  0  0  0  0  0  0  0  0
   -2.9390   -2.3030    0.3790 C   0  0  0  0  0  0  0  0  0  0  0  0
   -2.6570   -1.6910    1.5820 C   0  0  0  0  0  0  0  0  0  0  0  0
   -4.2260   -2.7750    0.3530 N   0  0  0  0  0  0  0  0  0  0  0  0
   -3.8100   -1.8150    2.3080 N   0  0  0  0  0  0  0  0  0  0  0  0
   -4.7230   -2.4720    1.5300 C   0  0  0  0  0  3  0  0  0  0  0  0
   -3.9640   -1.4980    3.2540 H   0  0  0  0  0  0  0  0  0  0  0  0
   -1.1030   -0.4470    2.9820 N   0  0  0  0  0  0  0  0  0  0  0  0
   -1.8880   -0.2710    3.5880 H   0  0  0  0  0  0  0  0  0  0  0  0
    0.1010    0.1240    3.4320 C   0  0  0  0  0  0  0  0  0  0  0  0
    1.3540   -0.2050    2.9090 C   0  0  0  0  0  3  0  0  0  0  0  0
    0.0490    1.1160    4.4260 C   0  0  0  0  0  3  0  0  0  0  0  0
    2.5180    0.4270    3.3580 C   0  0  0  0  0  3  0  0  0  0  0  0
    1.2090    1.7510    4.8800 C   0  0  0  0  0  3  0  0  0  0  0  0
    2.4450    1.4060    4.3430 C   0  0  0  0  0  3  0  0  0  0  0  0
  1  7  1  6  0  0  0
  1  6  1  0  0  0  0
  2  1  1  0  0  0  0
  3  2  1  0  0  0  0
  3  4  1  0  0  0  0
  4  5  1  0  0  0  0
  5  6  1  0  0  0  0
  5 10  1  0  0  0  0
  7  8  1  0  0  0  0
  8  9  1  0  0  0  0
 10 11  2  0  0  0  0
 11 13  1  0  0  0  0
 12 10  1  0  0  0  0
 12 14  2  0  0  0  0
 13 20  1  0  0  0  0
 14 15  1  0  0  0  0
 15 13  2  0  0  0  0
 15 17  1  0  0  0  0
 16 14  1  0  0  0  0
 16 18  2  0  0  0  0
 17 19  1  0  0  0  0
 18 17  1  0  0  0  0
 20 22  1  0  0  0  0
 20 21  1  0  0  0  0
 22 24  1  0  0  0  0
 23 25  1  0  0  0  0
 23 22  2  0  0  0  0
 24 26  2  0  0  0  0
 25 27  2  0  0  0  0
 27 26  1  0  0  0  0
M  END
>  <REMARK>
 SMILES OCC1CCCN(c2nc(Nc3ccccc3)c3[nH]cnc3n2)C1
 SMILES IDX 3 1 4 2 5 3 6 4 7 5 24 6 2 7 1 8 8 10 9 11 23 12 10 13 22 14
 SMILES IDX 18 15 21 16 19 17 20 18 11 20 12 22 13 23 17 24 14 25 16 26
 SMILES IDX 15 27
 H PARENT 1 9 19 19 11 21

>  <TORSDO>
F 5

$$$$
