/home/pchatterjee/Documents/git/vs_workflow/DiffDock/diffdock_run/pdbqt_scrubbed/Z2611810317.pdbqt
 OpenBabel10272516423D

 26 29  0  0  1  0  0  0  0  0999 V2000
   -0.2790   -2.8880    0.8070 C   0  0  2  0  0  3  0  0  0  0  0  0
   -1.1360   -3.3570    1.9830 C   0  0  0  0  0  2  0  0  0  0  0  0
   -1.2350   -2.0990    2.8420 C   0  0  0  0  0  2  0  0  0  0  0  0
   -1.3070   -1.0440    1.8500 N   0  0  0  0  0  0  0  0  0  0  0  0
   -0.7590   -1.4490    0.5620 C   0  0  0  0  0  2  0  0  0  0  0  0
   -0.4080   -3.7780   -0.4220 C   0  0  0  0  0  2  0  0  0  0  0  0
    0.3180   -3.2600   -1.5370 O   0  0  0  0  0  0  0  0  0  0  0  0
    1.7140   -3.5190   -1.4730 C   0  0  0  0  0  1  0  0  0  0  0  0
   -1.2720    0.2740    2.2410 C   0  0  0  0  0  0  0  0  0  0  0  0
   -1.0850    1.2050    1.2810 N   0  0  0  0  0  0  0  0  0  0  0  0
   -1.4450    0.5500    3.5350 N   0  0  0  0  0  0  0  0  0  0  0  0
   -1.0560    2.5270    1.5600 C   0  0  0  0  0  0  0  0  0  0  0  0
   -1.4180    1.8550    3.8310 C   0  0  0  0  0  0  0  0  0  0  0  0
   -1.2300    2.8500    2.8940 C   0  0  0  0  0  0  0  0  0  0  0  0
   -1.5670    2.3810    5.0890 N   0  0  0  0  0  0  0  0  0  0  0  0
   -1.2770    4.0120    3.6150 N   0  0  0  0  0  0  0  0  0  0  0  0
   -1.4800    3.6810    4.9260 C   0  0  0  0  0  3  0  0  0  0  0  0
   -1.1870    4.9500    3.2540 H   0  0  0  0  0  0  0  0  0  0  0  0
   -0.8420    3.5050    0.5810 N   0  0  0  0  0  0  0  0  0  0  0  0
   -0.7690    4.4450    0.9350 H   0  0  0  0  0  0  0  0  0  0  0  0
   -0.7170    3.4230   -0.8190 C   0  0  0  0  0  0  0  0  0  0  0  0
   -0.9400    2.2560   -1.5560 C   0  0  0  0  0  3  0  0  0  0  0  0
   -0.3140    4.5700   -1.5250 C   0  0  0  0  0  3  0  0  0  0  0  0
   -0.7780    2.2320   -2.9460 C   0  0  0  0  0  3  0  0  0  0  0  0
   -0.1510    4.5520   -2.9140 C   0  0  0  0  0  3  0  0  0  0  0  0
   -0.3840    3.3800   -3.6250 C   0  0  0  0  0  3  0  0  0  0  0  0
  1  6  1  6  0  0  0
  1  2  1  0  0  0  0
  2  3  1  0  0  0  0
  4  9  1  0  0  0  0
  4  3  1  0  0  0  0
  5  1  1  0  0  0  0
  5  4  1  0  0  0  0
  7  8  1  0  0  0  0
  7  6  1  0  0  0  0
  9 11  1  0  0  0  0
 10 12  1  0  0  0  0
 10  9  2  0  0  0  0
 11 13  2  0  0  0  0
 12 14  2  0  0  0  0
 13 15  1  0  0  0  0
 14 16  1  0  0  0  0
 14 13  1  0  0  0  0
 16 17  1  0  0  0  0
 17 15  2  0  0  0  0
 18 16  1  0  0  0  0
 19 20  1  0  0  0  0
 19 12  1  0  0  0  0
 21 19  1  0  0  0  0
 22 21  2  0  0  0  0
 23 21  1  0  0  0  0
 24 22  1  0  0  0  0
 25 23  2  0  0  0  0
 26 24  2  0  0  0  0
 26 25  1  0  0  0  0
M  END
>  <REMARK>
 SMILES COCC1CCN(c2nc(Nc3ccccc3)c3[nH]cnc3n2)C1
 SMILES IDX 4 1 5 2 6 3 7 4 24 5 3 6 2 7 1 8 8 9 9 10 23 11 10 12 22 13
 SMILES IDX 18 14 21 15 19 16 20 17 11 19 12 21 13 22 17 23 14 24 16 25
 SMILES IDX 15 26
 H PARENT 19 18 11 20

>  <TORSDO>
F 5

$$$$
