/home/pchatterjee/Documents/git/vs_workflow/DiffDock/diffdock_run/pdbqt_scrubbed/Z2611593143.pdbqt
 OpenBabel10272516423D

 29 32  0  0  1  0  0  0  0  0999 V2000
   -0.1190    0.7100   -1.1870 C   0  0  0  0  0  0  0  0  0  0  0  0
    0.7340   -0.1160   -0.5380 N   0  0  0  0  0  0  0  0  0  0  0  0
    1.8630   -0.5870   -1.1160 C   0  0  0  0  0  0  0  0  0  0  0  0
    2.0760   -0.1700   -2.4170 C   0  0  0  0  0  0  0  0  0  0  0  0
    3.0400   -0.3900   -3.3630 N   0  0  0  0  0  0  0  0  0  0  0  0
    2.6840    0.3020   -4.4880 C   0  0  0  0  0  2  0  0  0  0  0  0
    1.5530    0.9470   -4.3210 N   0  0  0  0  0  0  0  0  0  0  0  0
    1.1650    0.6580   -3.0370 C   0  0  0  0  0  0  0  0  0  0  0  0
    0.0530    1.1110   -2.4490 N   0  0  0  0  0  2  0  0  0  0  0  0
    3.8610   -0.9680   -3.2640 H   0  0  0  0  0  0  0  0  0  0  0  0
   -1.2650    1.1310   -0.4930 N   0  0  0  0  0  0  0  0  0  0  0  0
   -2.2740    1.8070    1.6970 C   0  0  1  0  0  3  0  0  0  0  0  0
   -3.5480    1.6870    0.8570 C   0  0  0  0  0  2  0  0  0  0  0  0
   -1.0620    1.2030    0.9640 C   0  0  0  0  0  2  0  0  0  0  0  0
   -3.3950    2.3390   -0.5190 C   0  0  0  0  0  2  0  0  0  0  0  0
   -1.9780    2.2530   -1.0970 C   0  0  0  0  0  2  0  0  0  0  0  0
   -2.0300    3.2520    2.1310 C   0  0  0  0  0  0  0  0  0  0  0  0
   -3.0090    3.7510    2.9680 N   0  0  0  0  0  0  0  0  0  0  0  0
   -2.8950    5.0710    3.5360 C   0  0  0  0  0  1  0  0  0  0  0  0
   -3.6690    3.1070    3.3850 H   0  0  0  0  0  0  0  0  0  0  0  0
   -1.0640    3.9190    1.7770 O   0  0  0  0  0  0  0  0  0  0  0  0
    2.7720   -1.4100   -0.4410 N   0  0  0  0  0  0  0  0  0  0  0  0
    3.6500   -1.5470   -0.9140 H   0  0  0  0  0  0  0  0  0  0  0  0
    2.6830   -2.0750    0.7950 C   0  0  0  0  0  0  0  0  0  0  0  0
    3.8600   -2.5760    1.3770 C   0  0  0  0  0  3  0  0  0  0  0  0
    1.4890   -2.2380    1.5040 C   0  0  0  0  0  3  0  0  0  0  0  0
    3.8400   -3.2260    2.6150 C   0  0  0  0  0  3  0  0  0  0  0  0
    1.4620   -2.8890    2.7420 C   0  0  0  0  0  3  0  0  0  0  0  0
    2.6380   -3.3830    3.2980 C   0  0  0  0  0  3  0  0  0  0  0  0
  1  2  2  0  0  0  0
  1 11  1  0  0  0  0
  3  2  1  0  0  0  0
  3 22  1  0  0  0  0
  4  3  2  0  0  0  0
  5 10  1  0  0  0  0
  5  4  1  0  0  0  0
  6  7  1  0  0  0  0
  6  5  1  0  0  0  0
  7  8  2  0  0  0  0
  8  9  1  0  0  0  0
  8  4  1  0  0  0  0
  9  1  1  0  0  0  0
 11 14  1  0  0  0  0
 12 17  1  6  0  0  0
 13 12  1  0  0  0  0
 14 12  1  0  0  0  0
 15 13  1  0  0  0  0
 16 15  1  0  0  0  0
 16 11  1  0  0  0  0
 17 18  1  0  0  0  0
 18 20  1  0  0  0  0
 18 19  1  0  0  0  0
 21 17  2  0  0  0  0
 22 24  1  0  0  0  0
 23 22  1  0  0  0  0
 24 25  2  0  0  0  0
 24 26  1  0  0  0  0
 25 27  1  0  0  0  0
 26 28  2  0  0  0  0
 27 29  2  0  0  0  0
 28 29  1  0  0  0  0
M  END
>  <REMARK>
 SMILES CNC(=O)C1CCCN(c2nc(Nc3ccccc3)c3[nH]cnc3n2)C1
 SMILES IDX 10 1 11 2 12 3 20 4 21 5 22 6 23 7 24 8 25 9 9 11 5 12 6 13
 SMILES IDX 26 14 7 15 8 16 3 17 2 18 1 19 4 21 13 22 14 24 15 25 19 26
 SMILES IDX 16 27 18 28 17 29
 H PARENT 21 10 2 20 13 23

>  <TORSDO>
F 4

$$$$
