/home/pchatterjee/Documents/git/vs_workflow/DiffDock/diffdock_run/pdbqt_scrubbed/Z2636563025.pdbqt
 OpenBabel10272516423D

 23 26  0  0  1  0  0  0  0  0999 V2000
   -0.9370   -0.9940   -0.7020 N   0  0  0  0  0  0  0  0  0  0  0  0
   -0.3020   -1.4670   -1.9270 C   0  0  0  0  0  2  0  0  0  0  0  0
    1.0040   -0.7350   -2.2370 C   0  0  0  0  0  2  0  0  0  0  0  0
    1.8130   -0.4820   -0.9630 C   0  0  0  0  0  2  0  0  0  0  0  0
    1.0120    0.3120    0.0910 C   0  0  2  0  0  3  0  0  0  0  0  0
   -0.4940    0.3110   -0.2180 C   0  0  0  0  0  2  0  0  0  0  0  0
   -2.0470   -1.7000   -0.2300 C   0  0  0  0  0  0  0  0  0  0  0  0
   -2.5640   -2.6060   -0.8870 O   0  0  0  0  0  0  0  0  0  0  0  0
   -2.6080   -1.3900    1.1120 C   0  0  0  0  0  0  0  0  0  0  0  0
   -1.7500   -1.0670    2.1210 N   0  0  0  0  0  0  0  0  0  0  0  0
   -3.9760   -1.5010    1.3720 C   0  0  0  0  0  0  0  0  0  0  0  0
   -2.2780   -0.8430    3.3370 C   0  0  0  0  0  3  0  0  0  0  0  0
   -5.1630   -1.8170    0.6510 C   0  0  0  0  0  3  0  0  0  0  0  0
   -4.3640   -1.2370    2.6760 C   0  0  0  0  0  0  0  0  0  0  0  0
   -3.5700   -0.9010    3.7030 N   0  0  0  0  0  0  0  0  0  0  0  0
   -6.2240   -1.7340    1.5290 C   0  0  0  0  0  3  0  0  0  0  0  0
   -5.7230   -1.3800    2.7560 N   0  0  0  0  0  0  0  0  0  0  0  0
   -6.2540   -1.2460    3.6050 H   0  0  0  0  0  0  0  0  0  0  0  0
    1.4460    1.6770    0.1140 O   0  0  0  0  0  0  0  0  0  0  0  0
    2.5920    1.8810    0.9410 C   0  0  0  0  0  2  0  0  0  0  0  0
    3.0810    3.2940    0.8310 C   0  0  0  0  0  3  0  0  0  0  0  0
    2.1330    4.4520    0.6420 C   0  0  0  0  0  2  0  0  0  0  0  0
    3.0510    4.0410   -0.4790 C   0  0  0  0  0  2  0  0  0  0  0  0
  1  7  1  0  0  0  0
  1  6  1  0  0  0  0
  2  1  1  0  0  0  0
  3  2  1  0  0  0  0
  3  4  1  0  0  0  0
  4  5  1  0  0  0  0
  5 19  1  6  0  0  0
  6  5  1  0  0  0  0
  7  9  1  0  0  0  0
  8  7  2  0  0  0  0
  9 11  2  0  0  0  0
  9 10  1  0  0  0  0
 10 12  2  0  0  0  0
 11 14  1  0  0  0  0
 12 15  1  0  0  0  0
 13 11  1  0  0  0  0
 13 16  2  0  0  0  0
 14 17  1  0  0  0  0
 14 15  2  0  0  0  0
 16 17  1  0  0  0  0
 17 18  1  0  0  0  0
 19 20  1  0  0  0  0
 21 20  1  0  0  0  0
 22 21  1  0  0  0  0
 23 22  1  0  0  0  0
 23 21  1  0  0  0  0
M  END
>  <REMARK>
 SMILES O=C(c1ncnc2[nH]ccc12)N1CCCC(OCC2CC2)C1
 SMILES IDX 12 1 13 2 14 3 15 4 16 5 22 6 2 7 1 8 3 9 4 10 11 11 5 12
 SMILES IDX 10 13 7 14 6 15 9 16 8 17 17 19 18 20 19 21 20 22 21 23
 H PARENT 8 18

>  <TORSDO>
F 5

$$$$
