/home/pchatterjee/Documents/git/vs_workflow/DiffDock/diffdock_run/pdbqt_scrubbed/Z2654643499.pdbqt
 OpenBabel10272516423D

 25 28  0  0  1  0  0  0  0  0999 V2000
   -0.5580    0.1080   -0.1870 C   0  0  1  0  0  3  0  0  0  0  0  0
    0.8460    0.0200    0.4370 C   0  0  0  0  0  2  0  0  0  0  0  0
    1.9440    0.4320   -0.5470 C   0  0  0  0  0  2  0  0  0  0  0  0
    1.7550    1.8500   -1.1050 C   0  0  1  0  0  3  0  0  0  0  0  0
    0.3310    1.9810   -1.6900 C   0  0  0  0  0  2  0  0  0  0  0  0
   -0.7780    1.5320   -0.7300 C   0  0  0  0  0  2  0  0  0  0  0  0
   -0.6860   -0.8300   -1.2930 N   0  0  0  0  0  0  0  0  0  0  0  0
   -1.3550   -0.5810   -2.0210 H   0  0  0  0  0  0  0  0  0  0  0  0
   -1.0940   -2.1180   -0.9520 C   0  0  0  0  0  0  0  0  0  0  0  0
   -3.2230   -6.5880   -1.1280 C   0  0  0  0  0  3  0  0  0  0  0  0
   -3.5510   -5.9310   -2.3090 C   0  0  0  0  0  3  0  0  0  0  0  0
   -2.4300   -5.9440   -0.1830 C   0  0  0  0  0  3  0  0  0  0  0  0
   -3.0840   -4.6320   -2.5390 C   0  0  0  0  0  3  0  0  0  0  0  0
   -1.9690   -4.6350   -0.4320 C   0  0  0  0  0  0  0  0  0  0  0  0
   -2.2910   -3.9650   -1.6130 C   0  0  0  0  0  0  0  0  0  0  0  0
   -1.1790   -3.9170    0.4480 C   0  0  0  0  0  3  0  0  0  0  0  0
   -1.8620   -2.7190   -1.8680 N   0  0  0  0  0  0  0  0  0  0  0  0
   -0.7370   -2.6660    0.2130 N   0  0  0  0  0  0  0  0  0  0  0  0
    1.9810    2.9440   -0.0360 N   0  0  0  0  0  4  0  0  0  0  0  0
    3.1510    2.7380    0.9050 C   0  0  0  0  0  2  0  0  0  0  0  0
    2.0000    4.3570   -0.6320 C   0  0  0  0  0  2  0  0  0  0  0  0
    4.4740    2.8750    0.1650 C   0  0  0  0  0  2  0  0  0  0  0  0
    3.3620    5.0350   -0.5080 C   0  0  0  0  0  2  0  0  0  0  0  0
    4.5030    4.0680   -0.7880 C   0  0  0  0  0  2  0  0  0  0  0  0
    1.1570    2.9140    0.5750 H   0  0  0  0  0  0  0  0  0  0  0  0
  1  7  1  6  0  0  0
  1  2  1  0  0  0  0
  3  2  1  0  0  0  0
  4  5  1  1  0  0  0
  4  3  1  0  0  0  0
  4 19  1  0  0  0  0
  5  6  1  0  0  0  0
  6  1  1  0  0  0  0
  7  9  1  0  0  0  0
  8  7  1  0  0  0  0
  9 18  1  0  0  0  0
 10 12  1  0  0  0  0
 11 10  2  0  0  0  0
 13 11  1  0  0  0  0
 13 15  2  0  0  0  0
 14 12  2  0  0  0  0
 14 16  1  0  0  0  0
 15 14  1  0  0  0  0
 17 15  1  0  0  0  0
 17  9  2  0  0  0  0
 18 16  2  0  0  0  0
 19 25  1  0  0  0  0
 19 20  1  0  0  0  0
 21 23  1  0  0  0  0
 21 19  1  0  0  0  0
 22 20  1  0  0  0  0
 24 23  1  0  0  0  0
 24 22  1  0  0  0  0
M  END
>  <REMARK>
 SMILES c1ccc2nc(NC3CCC([NH+]4CCCCC4)CC3)ncc2c1
 SMILES IDX 8 1 9 2 10 3 11 4 18 5 19 6 7 7 6 9 1 10 2 11 23 12 3 13
 SMILES IDX 22 14 4 15 21 16 5 17 20 18 12 19 13 20 17 21 14 22 16 23
 SMILES IDX 15 24
 H PARENT 7 8 12 25

>  <TORSDO>
F 3

$$$$
