/home/pchatterjee/Documents/git/vs_workflow/DiffDock/diffdock_run/pdbqt_scrubbed/Z2684222059.pdbqt
 OpenBabel10272516423D

 28 30  0  0  1  0  0  0  0  0999 V2000
    1.6180   -1.2150   -0.3150 C   0  0  2  0  0  3  0  0  0  0  0  0
    2.8640   -1.0050   -1.2270 C   0  0  0  0  0  2  0  0  0  0  0  0
    2.4760   -0.7170   -2.6320 N   0  0  0  0  0  4  0  0  0  0  0  0
    1.7230   -1.3270   -2.9700 H   0  0  0  0  0  0  0  0  0  0  0  0
    3.2680   -0.7670   -3.2790 H   0  0  0  0  0  0  0  0  0  0  0  0
    2.1170    0.2560   -2.6610 H   0  0  0  0  0  0  0  0  0  0  0  0
    0.4850   -0.3160   -0.5910 N   0  0  0  0  0  0  0  0  0  0  0  0
    0.5730    1.0080   -0.9490 C   0  0  0  0  0  0  0  0  0  0  0  0
   -0.4100   -0.5420   -0.1440 H   0  0  0  0  0  0  0  0  0  0  0  0
    1.5290    1.4940   -1.5360 O   0  0  0  0  0  0  0  0  0  0  0  0
   -0.6840    1.8260   -0.6600 C   0  0  0  0  0  0  0  0  0  0  0  0
   -1.7020    1.2460   -0.1090 N   0  0  0  0  0  0  0  0  0  0  0  0
   -0.6330    3.1400   -1.0260 N   0  0  0  0  0  0  0  0  0  0  0  0
   -2.8380    2.0500    0.1190 C   0  0  0  0  0  0  0  0  0  0  0  0
   -1.6960    3.9890   -0.8710 C   0  0  0  0  0  0  0  0  0  0  0  0
   -3.9680    1.4720    0.7040 C   0  0  0  0  0  3  0  0  0  0  0  0
   -2.8880    3.4040   -0.2310 C   0  0  0  0  0  0  0  0  0  0  0  0
   -5.1170    2.2350    0.9360 C   0  0  0  0  0  3  0  0  0  0  0  0
   -4.0290    4.1770    0.0020 C   0  0  0  0  0  3  0  0  0  0  0  0
   -5.1470    3.5850    0.5870 C   0  0  0  0  0  3  0  0  0  0  0  0
    0.2000    3.5320   -1.4450 H   0  0  0  0  0  0  0  0  0  0  0  0
   -1.6600    5.1480   -1.2650 O   0  0  0  0  0  0  0  0  0  0  0  0
    2.0060   -1.1680    1.1990 C   0  0  0  0  0  3  0  0  0  0  0  0
    3.1760   -2.1040    1.5680 C   0  0  0  0  0  2  0  0  0  0  0  0
    0.8210   -1.5030    2.1350 C   0  0  0  0  0  2  0  0  0  0  0  0
    2.7950   -3.5800    1.4550 C   0  0  0  0  0  2  0  0  0  0  0  0
    0.4030   -2.9690    2.0610 C   0  0  0  0  0  2  0  0  0  0  0  0
    1.5770   -3.9120    2.3150 C   0  0  0  0  0  2  0  0  0  0  0  0
  1  2  1  6  0  0  0
  1 23  1  0  0  0  0
  3  2  1  0  0  0  0
  4  3  1  0  0  0  0
  5  3  1  0  0  0  0
  6  3  1  0  0  0  0
  7  1  1  0  0  0  0
  7  9  1  0  0  0  0
  8 11  1  0  0  0  0
  8  7  1  0  0  0  0
 10  8  2  0  0  0  0
 11 12  2  0  0  0  0
 12 14  1  0  0  0  0
 13 15  1  0  0  0  0
 13 11  1  0  0  0  0
 14 16  1  0  0  0  0
 15 17  1  0  0  0  0
 16 18  2  0  0  0  0
 17 19  1  0  0  0  0
 17 14  2  0  0  0  0
 19 20  2  0  0  0  0
 20 18  1  0  0  0  0
 21 13  1  0  0  0  0
 22 15  2  0  0  0  0
 23 24  1  0  0  0  0
 23 25  1  0  0  0  0
 26 24  1  0  0  0  0
 26 28  1  0  0  0  0
 27 25  1  0  0  0  0
 27 28  1  0  0  0  0
M  END
>  <REMARK>
 SMILES [NH3+]CC(NC(=O)c1nc2ccccc2c(=O)[nH]1)C1CCCCC1
 SMILES IDX 3 1 2 2 1 3 4 7 5 8 6 10 7 11 8 12 17 13 9 14 15 15 10 16
 SMILES IDX 14 17 11 18 13 19 12 20 16 22 18 23 19 24 23 25 20 26 22 27
 SMILES IDX 21 28
 H PARENT 1 4 1 5 1 6 4 9 17 21

>  <TORSDO>
F 5

$$$$
