/home/pchatterjee/Documents/git/vs_workflow/DiffDock/diffdock_run/pdbqt_scrubbed/Z2792840666.pdbqt
 OpenBabel10272516423D

 32 36  0  0  1  0  0  0  0  0999 V2000
   -1.1950    1.7780   -0.8080 C   0  0  0  0  0  0  0  0  0  0  0  0
   -1.3760    0.5430   -0.2820 N   0  0  0  0  0  0  0  0  0  0  0  0
   -2.2250    0.3770    0.7660 C   0  0  0  0  0  0  0  0  0  0  0  0
   -2.8490    1.5170    1.2430 C   0  0  0  0  0  0  0  0  0  0  0  0
   -3.7350    1.8010    2.2480 N   0  0  0  0  0  0  0  0  0  0  0  0
   -3.9490    3.1520    2.2420 C   0  0  0  0  0  2  0  0  0  0  0  0
   -3.2430    3.7460    1.3050 N   0  0  0  0  0  0  0  0  0  0  0  0
   -2.5600    2.7450    0.6820 C   0  0  0  0  0  0  0  0  0  0  0  0
   -1.7110    2.9070   -0.3430 N   0  0  0  0  0  2  0  0  0  0  0  0
   -4.1470    1.1430    2.9030 H   0  0  0  0  0  0  0  0  0  0  0  0
   -0.3350    1.8030   -1.8990 N   0  0  0  0  0  0  0  0  0  0  0  0
    0.2770    1.2690   -4.0300 C   0  0  2  0  0  3  0  0  0  0  0  0
    0.5350    2.7750   -3.8730 C   0  0  0  0  0  2  0  0  0  0  0  0
   -0.8490    1.0300   -3.0220 C   0  0  0  0  0  2  0  0  0  0  0  0
    0.0510    3.1170   -2.4420 C   0  0  0  0  0  2  0  0  0  0  0  0
    1.5520    0.4190   -3.7190 N   0  0  0  0  0  4  0  0  0  0  0  0
    1.1710   -0.9090   -1.2020 N   0  0  0  0  0  4  0  0  0  0  0  0
    1.3510   -1.8180   -2.3950 C   0  0  0  0  0  2  0  0  0  0  0  0
    2.1580    0.2350   -1.1740 C   0  0  0  0  0  2  0  0  0  0  0  0
    1.2980   -1.0910   -3.7730 C   0  0  0  0  0  2  0  0  0  0  0  0
    2.4890    0.8140   -2.5740 C   0  0  0  0  0  2  0  0  0  0  0  0
    1.1880   -1.6920    0.0970 C   0  0  0  0  0  1  0  0  0  0  0  0
    0.2250   -0.4670   -1.1870 H   0  0  0  0  0  0  0  0  0  0  0  0
    2.1210    0.6140   -4.5590 H   0  0  0  0  0  0  0  0  0  0  0  0
   -2.4270   -0.9090    1.2830 N   0  0  0  0  0  0  0  0  0  0  0  0
   -3.4190   -1.0580    1.4660 H   0  0  0  0  0  0  0  0  0  0  0  0
   -1.7230   -1.4430    2.3960 C   0  0  0  0  0  0  0  0  0  0  0  0
   -2.0450   -2.7380    2.8230 C   0  0  0  0  0  3  0  0  0  0  0  0
   -0.6760   -0.7680    3.0380 C   0  0  0  0  0  3  0  0  0  0  0  0
   -1.3520   -3.3380    3.8760 C   0  0  0  0  0  3  0  0  0  0  0  0
    0.0170   -1.3720    4.0900 C   0  0  0  0  0  3  0  0  0  0  0  0
   -0.3210   -2.6560    4.5080 C   0  0  0  0  0  3  0  0  0  0  0  0
  1  9  1  0  0  0  0
  1  2  2  0  0  0  0
  2  3  1  0  0  0  0
  3  4  2  0  0  0  0
  3 25  1  0  0  0  0
  4  5  1  0  0  0  0
  5 10  1  0  0  0  0
  6  5  1  0  0  0  0
  7  6  1  0  0  0  0
  8  4  1  0  0  0  0
  8  7  2  0  0  0  0
  9  8  1  0  0  0  0
 11  1  1  0  0  0  0
 12 13  1  1  0  0  0
 12 16  1  0  0  0  0
 12 14  1  0  0  0  0
 13 15  1  0  0  0  0
 14 11  1  0  0  0  0
 15 11  1  0  0  0  0
 16 21  1  0  0  0  0
 17 23  1  0  0  0  0
 17 19  1  0  0  0  0
 17 22  1  0  0  0  0
 18 17  1  0  0  0  0
 20 16  1  0  0  0  0
 20 18  1  0  0  0  0
 21 19  1  0  0  0  0
 24 16  1  0  0  0  0
 25 26  1  0  0  0  0
 25 27  1  0  0  0  0
 27 28  2  0  0  0  0
 27 29  1  0  0  0  0
 28 30  1  0  0  0  0
 29 31  2  0  0  0  0
 30 32  2  0  0  0  0
 31 32  1  0  0  0  0
M  END
>  <REMARK>
 SMILES C[NH+]1CC[NH+](C2CCN(c3nc(Nc4ccccc4)c4[nH]cnc4n3)C2)CC1
 SMILES IDX 10 1 11 2 12 3 20 4 21 5 22 6 23 7 24 8 25 9 9 11 6 12 7 13
 SMILES IDX 26 14 8 15 5 16 2 17 3 18 28 19 4 20 27 21 1 22 13 25 14 27
 SMILES IDX 15 28 19 29 16 30 18 31 17 32
 H PARENT 21 10 2 23 5 24 13 26

>  <TORSDO>
F 4

$$$$
