/home/pchatterjee/Documents/git/vs_workflow/DiffDock/diffdock_run/pdbqt_scrubbed/Z2832196726.pdbqt
 OpenBabel10272516423D

 25 28  0  0  0  0  0  0  0  0999 V2000
    0.5680    2.3200   -0.4910 O   0  0  0  0  0  0  0  0  0  0  0  0
    0.5930    1.2980    0.5320 S   0  0  0  0  0  0  0  0  0  0  0  0
    0.1880    1.5620    1.8970 O   0  0  0  0  0  0  0  0  0  0  0  0
    2.2740    0.9090    0.6390 C   0  0  0  0  0  0  0  0  0  0  0  0
    2.9940    0.1800   -0.2920 C   0  0  0  0  0  3  0  0  0  0  0  0
    3.1610    1.2990    1.6760 C   0  0  0  0  0  0  0  0  0  0  0  0
    4.2880    0.1080    0.1540 N   0  0  0  0  0  0  0  0  0  0  0  0
    3.1050    2.0280    2.8630 C   0  0  0  0  0  3  0  0  0  0  0  0
    4.4030    0.7750    1.3440 C   0  0  0  0  0  0  0  0  0  0  0  0
    4.2260    2.1740    3.6100 N   0  0  0  0  0  0  0  0  0  0  0  0
    5.5420    0.8870    2.0420 N   0  0  0  0  0  0  0  0  0  0  0  0
    5.3630    1.6060    3.1640 C   0  0  0  0  0  3  0  0  0  0  0  0
    5.0620   -0.3490   -0.3080 H   0  0  0  0  0  0  0  0  0  0  0  0
   -0.2340   -0.1110   -0.0160 N   0  0  0  0  0  0  0  0  0  0  0  0
   -0.1870   -1.2590    0.9410 C   0  0  0  0  0  2  0  0  0  0  0  0
   -0.1150   -2.6340    0.2780 C   0  0  0  0  0  3  0  0  0  0  0  0
    0.7720   -2.8400   -0.9800 C   0  0  0  0  0  2  0  0  0  0  0  0
   -1.2920   -3.1950   -0.5660 C   0  0  0  0  0  2  0  0  0  0  0  0
   -0.2310   -3.9290   -1.4140 C   0  0  0  0  0  2  0  0  0  0  0  0
   -1.5270    0.2130   -0.5690 C   0  0  0  0  0  0  0  0  0  0  0  0
   -2.6280    0.5130    0.2390 C   0  0  0  0  0  3  0  0  0  0  0  0
   -1.6380    0.3110   -1.9580 C   0  0  0  0  0  3  0  0  0  0  0  0
   -3.8470    0.8620   -0.3460 C   0  0  0  0  0  3  0  0  0  0  0  0
   -2.8570    0.6600   -2.5400 C   0  0  0  0  0  3  0  0  0  0  0  0
   -3.9630    0.9300   -1.7340 C   0  0  0  0  0  3  0  0  0  0  0  0
  1  2  2  0  0  0  0
  2  4  1  0  0  0  0
  2  3  2  0  0  0  0
  4  6  1  0  0  0  0
  5  7  1  0  0  0  0
  5  4  2  0  0  0  0
  6  8  1  0  0  0  0
  7  9  1  0  0  0  0
  8 10  2  0  0  0  0
  9  6  2  0  0  0  0
  9 11  1  0  0  0  0
 11 12  2  0  0  0  0
 12 10  1  0  0  0  0
 13  7  1  0  0  0  0
 14  2  1  0  0  0  0
 14 15  1  0  0  0  0
 16 15  1  0  0  0  0
 17 16  1  0  0  0  0
 18 16  1  0  0  0  0
 19 17  1  0  0  0  0
 19 18  1  0  0  0  0
 20 14  1  0  0  0  0
 20 21  1  0  0  0  0
 22 20  2  0  0  0  0
 23 21  2  0  0  0  0
 24 22  1  0  0  0  0
 24 25  2  0  0  0  0
 25 23  1  0  0  0  0
M  END
>  <REMARK>
 SMILES O=S(=O)(c1c[nH]c2ncncc12)N(CC1CCC1)c1ccccc1
 SMILES IDX 1 1 2 2 3 3 4 4 5 5 12 6 6 7 11 8 7 9 10 10 8 11 9 12 13 14
 SMILES IDX 14 15 15 16 16 17 18 18 17 19 19 20 20 21 24 22 21 23 23 24
 SMILES IDX 22 25
 H PARENT 6 13

>  <TORSDO>
F 5

$$$$
