/home/pchatterjee/Documents/git/vs_workflow/DiffDock/diffdock_run/pdbqt_scrubbed/Z28498395.pdbqt
 OpenBabel10272516423D

 27 29  0  0  0  0  0  0  0  0999 V2000
   -1.2660    0.0630   -0.8060 N   0  0  0  0  0  0  0  0  0  0  0  0
   -2.2150   -0.1600    0.3020 C   0  0  0  0  0  2  0  0  0  0  0  0
   -3.6820    0.0480   -0.1070 C   0  0  0  0  0  2  0  0  0  0  0  0
   -3.9590    1.4480   -0.2290 O   0  0  0  0  0  0  0  0  0  0  0  0
   -5.3180    1.6760   -0.5990 C   0  0  0  0  0  1  0  0  0  0  0  0
   -1.0880    1.4350   -1.3140 C   0  0  0  0  0  2  0  0  0  0  0  0
   -0.7480    2.4590   -0.2360 C   0  0  0  0  0  0  0  0  0  0  0  0
    0.4820    2.7200    0.0720 N   0  0  0  0  0  0  0  0  0  0  0  0
   -1.8150    3.0620    0.3790 N   0  0  0  0  0  0  0  0  0  0  0  0
    0.7230    3.6760    1.0720 C   0  0  0  0  0  0  0  0  0  0  0  0
   -1.6890    3.9500    1.4140 C   0  0  0  0  0  0  0  0  0  0  0  0
    2.0430    4.0020    1.3880 C   0  0  0  0  0  3  0  0  0  0  0  0
   -0.3070    4.3140    1.7670 C   0  0  0  0  0  0  0  0  0  0  0  0
    2.3250    4.9460    2.3790 C   0  0  0  0  0  3  0  0  0  0  0  0
   -0.0390    5.2580    2.7630 C   0  0  0  0  0  3  0  0  0  0  0  0
    1.2850    5.5730    3.0670 C   0  0  0  0  0  3  0  0  0  0  0  0
   -2.7600    2.7500    0.1660 H   0  0  0  0  0  0  0  0  0  0  0  0
   -2.6550    4.3990    2.0180 O   0  0  0  0  0  0  0  0  0  0  0  0
   -0.7900   -0.9610   -1.6180 C   0  0  0  0  0  0  0  0  0  0  0  0
   -0.3370   -0.7430   -2.7400 O   0  0  0  0  0  0  0  0  0  0  0  0
   -0.8690   -2.3790   -1.0650 C   0  0  0  0  0  2  0  0  0  0  0  0
   -0.0270   -3.3870   -1.8550 C   0  0  0  0  0  2  0  0  0  0  0  0
    1.4850   -3.1810   -1.6920 C   0  0  0  0  0  3  0  0  0  0  0  0
    2.3110   -4.1830   -2.5050 C   0  0  0  0  0  2  0  0  0  0  0  0
    2.0020   -3.3820   -0.2680 C   0  0  0  0  0  2  0  0  0  0  0  0
    3.6360   -4.3350   -1.7560 C   0  0  0  0  0  2  0  0  0  0  0  0
    3.5020   -3.5250   -0.4730 C   0  0  0  0  0  2  0  0  0  0  0  0
  1  2  1  0  0  0  0
  3  2  1  0  0  0  0
  4  3  1  0  0  0  0
  5  4  1  0  0  0  0
  6  1  1  0  0  0  0
  6  7  1  0  0  0  0
  7  8  2  0  0  0  0
  7  9  1  0  0  0  0
  8 10  1  0  0  0  0
  9 11  1  0  0  0  0
 10 12  2  0  0  0  0
 10 13  1  0  0  0  0
 11 13  1  0  0  0  0
 11 18  2  0  0  0  0
 12 14  1  0  0  0  0
 13 15  2  0  0  0  0
 14 16  2  0  0  0  0
 15 16  1  0  0  0  0
 17  9  1  0  0  0  0
 19 21  1  0  0  0  0
 19  1  1  0  0  0  0
 20 19  2  0  0  0  0
 22 23  1  0  0  0  0
 22 21  1  0  0  0  0
 23 25  1  0  0  0  0
 24 26  1  0  0  0  0
 24 23  1  0  0  0  0
 26 27  1  0  0  0  0
 27 25  1  0  0  0  0
M  END
>  <REMARK>
 SMILES COCCN(Cc1nc2ccccc2c(=O)[nH]1)C(=O)CCC1CCCC1
 SMILES IDX 5 1 4 2 3 3 2 4 1 5 6 6 7 7 8 8 17 9 9 10 15 11 10 12 14 13
 SMILES IDX 11 14 13 15 12 16 16 18 18 19 19 20 20 21 21 22 22 23 23 24
 SMILES IDX 26 25 24 26 25 27
 H PARENT 17 17

>  <TORSDO>
F 9

$$$$
