/home/pchatterjee/Documents/git/vs_workflow/DiffDock/diffdock_run/pdbqt_scrubbed/Z28511349.pdbqt
 OpenBabel10272516423D

 26 29  0  0  1  0  0  0  0  0999 V2000
   -0.7500   -1.9400   -1.1130 N   0  0  0  0  0  0  0  0  0  0  0  0
    0.0490   -2.5180   -2.1140 C   0  0  0  0  0  0  0  0  0  0  0  0
    0.7160   -3.5310   -1.8320 O   0  0  0  0  0  0  0  0  0  0  0  0
    0.1520   -1.9670   -3.5420 C   0  0  0  0  0  3  0  0  0  0  0  0
    0.3500   -0.4740   -3.8720 C   0  0  0  0  0  2  0  0  0  0  0  0
   -1.0570   -1.9790   -4.5020 C   0  0  0  0  0  2  0  0  0  0  0  0
   -0.4930   -0.6960   -5.1440 C   0  0  0  0  0  2  0  0  0  0  0  0
   -1.7950   -0.9370   -1.3410 C   0  0  0  0  0  2  0  0  0  0  0  0
   -1.6130    0.3080   -0.4760 C   0  0  0  0  0  0  0  0  0  0  0  0
   -0.7260    1.2010   -0.7790 N   0  0  0  0  0  0  0  0  0  0  0  0
   -2.4290    0.4090    0.6220 N   0  0  0  0  0  0  0  0  0  0  0  0
   -0.5950    2.3180    0.0630 C   0  0  0  0  0  0  0  0  0  0  0  0
   -2.3830    1.4610    1.5010 C   0  0  0  0  0  0  0  0  0  0  0  0
    0.3660    3.2830   -0.2430 C   0  0  0  0  0  3  0  0  0  0  0  0
   -1.3860    2.5000    1.2000 C   0  0  0  0  0  0  0  0  0  0  0  0
    0.5290    4.4070    0.5740 C   0  0  0  0  0  3  0  0  0  0  0  0
   -1.2330    3.6180    2.0250 C   0  0  0  0  0  3  0  0  0  0  0  0
   -0.2700    4.5750    1.7060 C   0  0  0  0  0  3  0  0  0  0  0  0
   -3.1080   -0.3050    0.8430 H   0  0  0  0  0  0  0  0  0  0  0  0
   -3.1230    1.5230    2.4750 O   0  0  0  0  0  0  0  0  0  0  0  0
   -0.7500   -2.5990    0.2040 C   0  0  0  0  0  2  0  0  0  0  0  0
    0.5990   -2.6550    0.9530 C   0  0  1  0  0  3  0  0  0  0  0  0
    1.3420   -1.3290    1.0550 C   0  0  0  0  0  2  0  0  0  0  0  0
    0.3210   -3.0670    2.3160 O   0  0  0  0  0  0  0  0  0  0  0  0
    0.9010   -0.7880    2.3910 C   0  0  0  0  0  2  0  0  0  0  0  0
    0.7950   -2.0520    3.2100 C   0  0  0  0  0  2  0  0  0  0  0  0
  1 21  1  0  0  0  0
  2  3  2  0  0  0  0
  2  1  1  0  0  0  0
  4  2  1  0  0  0  0
  5  4  1  0  0  0  0
  6  4  1  0  0  0  0
  7  6  1  0  0  0  0
  7  5  1  0  0  0  0
  8  1  1  0  0  0  0
  8  9  1  0  0  0  0
  9 11  1  0  0  0  0
 10  9  2  0  0  0  0
 10 12  1  0  0  0  0
 11 19  1  0  0  0  0
 11 13  1  0  0  0  0
 12 15  1  0  0  0  0
 13 20  2  0  0  0  0
 14 12  2  0  0  0  0
 14 16  1  0  0  0  0
 15 13  1  0  0  0  0
 15 17  2  0  0  0  0
 16 18  2  0  0  0  0
 18 17  1  0  0  0  0
 22 21  1  6  0  0  0
 22 23  1  0  0  0  0
 22 24  1  0  0  0  0
 23 25  1  0  0  0  0
 24 26  1  0  0  0  0
 25 26  1  0  0  0  0
M  END
>  <REMARK>
 SMILES O=C(C1CCC1)N(Cc1nc2ccccc2c(=O)[nH]1)CC1CCCO1
 SMILES IDX 7 1 2 2 1 3 3 4 4 5 6 6 5 7 8 8 9 9 10 10 19 11 11 12 17 13
 SMILES IDX 12 14 16 15 13 16 15 17 14 18 18 20 20 21 21 22 22 23 25 24
 SMILES IDX 23 25 24 26
 H PARENT 19 19

>  <TORSDO>
F 6

$$$$
