/home/pchatterjee/Documents/git/vs_workflow/DiffDock/diffdock_run/pdbqt_scrubbed/Z2994634090.pdbqt
 OpenBabel10272516423D

 24 26  0  0  0  0  0  0  0  0999 V2000
    0.1170   -2.3470    0.8600 C   0  0  0  0  0  0  0  0  0  0  0  0
   -0.2020   -3.6690    1.1990 C   0  0  0  0  0  0  0  0  0  0  0  0
   -1.2080   -4.0850    2.5420 Cl  0  0  0  0  0  0  0  0  0  0  0  0
    0.3510   -4.7310    0.4710 C   0  0  0  0  0  3  0  0  0  0  0  0
    1.2280   -4.4830   -0.5850 C   0  0  0  0  0  3  0  0  0  0  0  0
    1.5540   -3.1720   -0.9220 C   0  0  0  0  0  3  0  0  0  0  0  0
    0.9840   -2.1060   -0.2180 C   0  0  0  0  0  0  0  0  0  0  0  0
   -0.4780   -1.2120    1.6090 C   0  0  0  0  0  0  0  0  0  0  0  0
    0.4370   -0.3030    2.0930 N   0  0  0  0  0  0  0  0  0  0  0  0
    1.4080   -0.4030    1.8090 H   0  0  0  0  0  0  0  0  0  0  0  0
   -1.6950   -1.1510    1.7280 O   0  0  0  0  0  0  0  0  0  0  0  0
    0.1740    0.8550    2.8560 C   0  0  0  0  0  0  0  0  0  0  0  0
    1.2530    1.7120    3.1330 C   0  0  0  0  0  0  0  0  0  0  0  0
    1.0380    2.8660    3.8830 C   0  0  0  0  0  3  0  0  0  0  0  0
   -0.2470    3.1280    4.3300 C   0  0  0  0  0  3  0  0  0  0  0  0
   -1.0740    1.2120    3.3530 C   0  0  0  0  0  3  0  0  0  0  0  0
   -1.3060    2.3320    4.0850 N   0  0  0  0  0  0  0  0  0  0  0  0
    2.4690    1.3200    2.6200 O   0  0  0  0  0  0  0  0  0  0  0  0
    3.5540    2.2280    2.7680 C   0  0  0  0  0  1  0  0  0  0  0  0
    1.3420   -0.8200   -0.5350 O   0  0  0  0  0  0  0  0  0  0  0  0
    0.8600   -0.4360   -1.8310 C   0  0  0  0  0  2  0  0  0  0  0  0
    1.0430    1.0390   -2.0550 C   0  0  0  0  0  3  0  0  0  0  0  0
    0.6140    2.0470   -1.0190 C   0  0  0  0  0  2  0  0  0  0  0  0
    2.0780    1.8500   -1.3120 C   0  0  0  0  0  2  0  0  0  0  0  0
  1  2  1  0  0  0  0
  1  8  1  0  0  0  0
  2  3  1  0  0  0  0
  4  2  2  0  0  0  0
  5  4  1  0  0  0  0
  6  5  2  0  0  0  0
  6  7  1  0  0  0  0
  7  1  2  0  0  0  0
  8 11  2  0  0  0  0
  8  9  1  0  0  0  0
  9 12  1  0  0  0  0
 10  9  1  0  0  0  0
 12 13  2  0  0  0  0
 12 16  1  0  0  0  0
 13 14  1  0  0  0  0
 14 15  2  0  0  0  0
 16 17  2  0  0  0  0
 17 15  1  0  0  0  0
 18 19  1  0  0  0  0
 18 13  1  0  0  0  0
 20  7  1  0  0  0  0
 21 20  1  0  0  0  0
 22 21  1  0  0  0  0
 22 24  1  0  0  0  0
 22 23  1  0  0  0  0
 24 23  1  0  0  0  0
M  END
>  <REMARK>
 SMILES COc1ccncc1NC(=O)c1c(Cl)cccc1OCC1CC1
 SMILES IDX 12 1 13 2 14 3 15 4 16 5 17 6 18 7 10 8 9 9 11 11 8 12 3 13
 SMILES IDX 4 14 5 15 7 16 6 17 2 18 1 19 19 20 20 21 21 22 22 23 23 24
 H PARENT 9 10

>  <TORSDO>
F 6

$$$$
