/home/pchatterjee/Documents/git/vs_workflow/DiffDock/diffdock_run/pdbqt_scrubbed/Z2992988213.pdbqt
 OpenBabel10272516423D

 25 24  0  0  1  0  0  0  0  0999 V2000
    0.9150   -1.6980   -0.6410 O   0  0  0  0  0  0  0  0  0  0  0  0
    1.0300   -0.9560    0.3240 C   0  0  0  0  0  0  0  0  0  0  0  0
    0.6060   -1.2380    1.6000 N   0  0  0  0  0  0  0  0  0  0  0  0
    0.8360   -0.5960    2.3500 H   0  0  0  0  0  0  0  0  0  0  0  0
    1.6510    0.3660    0.1610 C   0  0  0  0  0  0  0  0  0  0  0  0
    3.0350    0.5150    0.2860 C   0  0  0  0  0  0  0  0  0  0  0  0
    0.8510    1.4820   -0.1110 C   0  0  0  0  0  0  0  0  0  0  0  0
    3.6100    1.7840    0.1630 C   0  0  0  0  0  3  0  0  0  0  0  0
    1.4270    2.7510   -0.2030 C   0  0  0  0  0  3  0  0  0  0  0  0
    2.8070    2.9010   -0.0740 C   0  0  0  0  0  3  0  0  0  0  0  0
    4.0840   -0.8170    0.6140 Cl  0  0  0  0  0  0  0  0  0  0  0  0
   -0.5120    1.4140   -0.2350 O   0  0  0  0  0  0  0  0  0  0  0  0
   -0.8930    0.8680   -1.5080 C   0  0  0  0  0  2  0  0  0  0  0  0
   -2.0610    1.6560   -2.0180 C   0  0  0  0  0  3  0  0  0  0  0  0
   -3.4630    1.3500   -1.5530 C   0  0  0  0  0  2  0  0  0  0  0  0
   -3.0520    1.0280   -2.9650 C   0  0  0  0  0  2  0  0  0  0  0  0
    0.0750   -2.5460    1.9650 C   0  0  2  0  0  3  0  0  0  0  0  0
   -1.3000   -2.8450    1.3700 C   0  0  0  0  0  1  0  0  0  0  0  0
   -2.3370   -1.7310    1.5110 *   0  0  0  0  0  0  0  0  0  0  0  0
    0.1790   -2.7200    3.4920 C   0  0  0  0  0  0  0  0  0  0  0  0
   -0.8330   -2.3430    4.3220 N   0  0  0  0  0  0  0  0  0  0  0  0
    1.2430   -3.0530    4.0230 O   0  0  0  0  0  0  0  0  0  0  0  0
   -0.6020   -2.5290    5.2920 H   0  0  0  0  0  0  0  0  0  0  0  0
   -2.2240   -2.0720    4.0220 C   0  0  0  0  0  1  0  0  0  0  0  0
   -2.4190   -1.0810    2.8880 *   0  0  0  0  0  0  0  0  0  0  0  0
  1  2  2  0  0  0  0
  2  3  1  0  0  0  0
  3 17  1  0  0  0  0
  3  4  1  0  0  0  0
  5  6  1  0  0  0  0
  5  2  1  0  0  0  0
  6 11  1  0  0  0  0
  7  5  2  0  0  0  0
  8  6  2  0  0  0  0
  9  7  1  0  0  0  0
  9 10  2  0  0  0  0
 10  8  1  0  0  0  0
 12  7  1  0  0  0  0
 13 12  1  0  0  0  0
 14 15  1  0  0  0  0
 14 13  1  0  0  0  0
 16 14  1  0  0  0  0
 16 15  1  0  0  0  0
 17 18  1  1  0  0  0
 17 20  1  0  0  0  0
 20 22  2  0  0  0  0
 20 21  1  0  0  0  0
 21 23  1  0  0  0  0
 24 21  1  0  0  0  0
M  END
>  <REMARK>
 SMILES O=C(NC1CCCCNC1=O)c1c(Cl)cccc1OCC1CC1
 SMILES IDX 1 1 2 2 3 3 12 5 13 6 18 7 15 8 17 9 16 10 14 11 19 12 20 13
 SMILES IDX 21 14 22 15 23 16 4 17 5 18 6 19 10 21 9 22 11 23 8 25 7 26
 H PARENT 3 4 9 24
 Flexibility Score:   36.900

>  <TORSDO>
F 5

$$$$
