/home/pchatterjee/Documents/git/vs_workflow/DiffDock/diffdock_run/pdbqt_scrubbed/Z2996605995.pdbqt
 OpenBabel10272516423D

 24 26  0  0  0  0  0  0  0  0999 V2000
   -0.0600    0.9750   -2.0390 C   0  0  0  0  0  0  0  0  0  0  0  0
   -0.1430    0.9360   -3.4370 C   0  0  0  0  0  0  0  0  0  0  0  0
   -1.4470    0.1810   -4.2840 Cl  0  0  0  0  0  0  0  0  0  0  0  0
    0.8900    1.4760   -4.2140 C   0  0  0  0  0  3  0  0  0  0  0  0
    2.0110    2.0460   -3.6080 C   0  0  0  0  0  3  0  0  0  0  0  0
    2.1060    2.0810   -2.2190 C   0  0  0  0  0  3  0  0  0  0  0  0
    1.0680    1.5640   -1.4420 C   0  0  0  0  0  0  0  0  0  0  0  0
   -1.1580    0.4420   -1.1920 C   0  0  0  0  0  0  0  0  0  0  0  0
   -0.7450   -0.4000   -0.1790 N   0  0  0  0  0  0  0  0  0  0  0  0
    0.2430   -0.3360    0.0460 H   0  0  0  0  0  0  0  0  0  0  0  0
   -2.2950    0.8400   -1.3990 O   0  0  0  0  0  0  0  0  0  0  0  0
   -1.5440   -1.0610    0.7810 C   0  0  0  0  0  0  0  0  0  0  0  0
   -2.9030   -2.3390    2.8300 C   0  0  0  0  0  0  0  0  0  0  0  0
   -1.5860   -1.9670    3.0350 C   0  0  0  0  0  3  0  0  0  0  0  0
   -3.5350   -2.1270    1.6560 N   0  0  0  0  0  0  0  0  0  0  0  0
   -0.9060   -1.3330    2.0000 C   0  0  0  0  0  3  0  0  0  0  0  0
   -2.8630   -1.5110    0.6370 C   0  0  0  0  0  0  0  0  0  0  0  0
   -3.6810   -3.0120    3.9190 C   0  0  0  0  0  1  0  0  0  0  0  0
   -3.6480   -1.4520   -0.6380 C   0  0  0  0  0  1  0  0  0  0  0  0
    1.2120    1.5730   -0.0770 O   0  0  0  0  0  0  0  0  0  0  0  0
    0.8020    2.8380    0.4640 C   0  0  0  0  0  2  0  0  0  0  0  0
    0.5330    2.6420    1.9240 C   0  0  0  0  0  3  0  0  0  0  0  0
    1.6690    2.5180    2.9060 C   0  0  0  0  0  2  0  0  0  0  0  0
    0.8040    3.7490    2.9100 C   0  0  0  0  0  2  0  0  0  0  0  0
  1  7  1  0  0  0  0
  1  8  1  0  0  0  0
  2  1  2  0  0  0  0
  3  2  1  0  0  0  0
  4  5  2  0  0  0  0
  4  2  1  0  0  0  0
  5  6  1  0  0  0  0
  6  7  2  0  0  0  0
  7 20  1  0  0  0  0
  8  9  1  0  0  0  0
  9 10  1  0  0  0  0
  9 12  1  0  0  0  0
 11  8  2  0  0  0  0
 12 16  1  0  0  0  0
 13 14  1  0  0  0  0
 13 18  1  0  0  0  0
 15 13  2  0  0  0  0
 16 14  2  0  0  0  0
 17 12  2  0  0  0  0
 17 15  1  0  0  0  0
 19 17  1  0  0  0  0
 20 21  1  0  0  0  0
 21 22  1  0  0  0  0
 22 23  1  0  0  0  0
 22 24  1  0  0  0  0
 23 24  1  0  0  0  0
M  END
>  <REMARK>
 SMILES Cc1ccc(NC(=O)c2c(Cl)cccc2OCC2CC2)c(C)n1
 SMILES IDX 9 1 10 2 11 3 12 4 13 5 14 6 15 7 7 8 6 9 8 11 5 12 2 13
 SMILES IDX 3 14 23 15 4 16 21 17 1 18 22 19 16 20 17 21 18 22 19 23
 SMILES IDX 20 24
 H PARENT 6 10

>  <TORSDO>
F 5

$$$$
