/home/pchatterjee/Documents/git/vs_workflow/DiffDock/diffdock_run/pdbqt_scrubbed/Z3000762692.pdbqt
 OpenBabel10272516423D

 25 28  0  0  1  0  0  0  0  0999 V2000
   -2.0840   -0.8410    1.8200 C   0  0  0  0  0  0  0  0  0  0  0  0
   -2.9240   -1.5310    2.7140 C   0  0  0  0  0  3  0  0  0  0  0  0
   -2.9320   -1.2270    4.0750 C   0  0  0  0  0  3  0  0  0  0  0  0
   -2.1020   -0.2250    4.5630 C   0  0  0  0  0  3  0  0  0  0  0  0
   -1.2590    0.4700    3.6920 C   0  0  0  0  0  3  0  0  0  0  0  0
   -1.2300    0.1610    2.3230 C   0  0  0  0  0  0  0  0  0  0  0  0
   -2.1610   -1.2600    0.3790 C   0  0  0  0  0  0  0  0  0  0  0  0
   -1.4150   -0.5570   -0.5270 N   0  0  0  0  0  0  0  0  0  0  0  0
   -2.8790   -2.2020    0.0520 O   0  0  0  0  0  0  0  0  0  0  0  0
   -0.8290    0.2100   -0.2110 H   0  0  0  0  0  0  0  0  0  0  0  0
   -1.3410   -0.8870   -1.9420 C   0  0  1  0  0  3  0  0  0  0  0  0
   -1.1520    0.3670   -2.8000 C   0  0  0  0  0  0  0  0  0  0  0  0
   -0.3420    1.3460   -2.3250 N   0  0  0  0  0  0  0  0  0  0  0  0
   -1.7770    0.4180   -3.9970 N   0  0  0  0  0  0  0  0  0  0  0  0
   -0.1830    2.4280   -3.1080 C   0  0  0  0  0  3  0  0  0  0  0  0
   -1.5790    1.5250   -4.7340 C   0  0  0  0  0  3  0  0  0  0  0  0
   -0.7840    2.5720   -4.3350 C   0  0  0  0  0  3  0  0  0  0  0  0
   -0.1660   -1.8170   -2.1550 C   0  0  0  0  0  3  0  0  0  0  0  0
   -0.2950   -3.2990   -1.8890 C   0  0  0  0  0  2  0  0  0  0  0  0
   -0.1560   -2.8020   -3.3000 C   0  0  0  0  0  2  0  0  0  0  0  0
   -0.4280    0.8410    1.4430 O   0  0  0  0  0  0  0  0  0  0  0  0
    0.8180    1.3200    1.9510 C   0  0  0  0  0  2  0  0  0  0  0  0
    1.6840    1.6570    0.7750 C   0  0  0  0  0  3  0  0  0  0  0  0
    3.1850    1.5610    0.8650 C   0  0  0  0  0  2  0  0  0  0  0  0
    2.4180    0.5690    0.0340 C   0  0  0  0  0  2  0  0  0  0  0  0
  1  6  2  0  0  0  0
  1  2  1  0  0  0  0
  2  3  2  0  0  0  0
  3  4  1  0  0  0  0
  5  4  2  0  0  0  0
  6  5  1  0  0  0  0
  7  1  1  0  0  0  0
  8 10  1  0  0  0  0
  8  7  1  0  0  0  0
  9  7  2  0  0  0  0
 11  8  1  1  0  0  0
 12 13  2  0  0  0  0
 12 11  1  0  0  0  0
 14 12  1  0  0  0  0
 15 13  1  0  0  0  0
 16 17  1  0  0  0  0
 16 14  2  0  0  0  0
 17 15  2  0  0  0  0
 18 11  1  0  0  0  0
 18 19  1  0  0  0  0
 20 18  1  0  0  0  0
 20 19  1  0  0  0  0
 21 22  1  0  0  0  0
 21  6  1  0  0  0  0
 23 24  1  0  0  0  0
 23 22  1  0  0  0  0
 25 23  1  0  0  0  0
 25 24  1  0  0  0  0
M  END
>  <REMARK>
 SMILES O=C(NC(c1ncccn1)C1CC1)c1ccccc1OCC1CC1
 SMILES IDX 14 1 15 2 16 3 17 4 18 5 19 6 2 7 3 8 1 9 4 11 5 12 6 13
 SMILES IDX 10 14 7 15 9 16 8 17 11 18 12 19 13 20 20 21 21 22 22 23
 SMILES IDX 23 24 24 25
 H PARENT 3 10

>  <TORSDO>
F 7

$$$$
