/home/pchatterjee/Documents/git/vs_workflow/DiffDock/diffdock_run/pdbqt_scrubbed/Z3006954377.pdbqt
 OpenBabel10272516423D

 24 26  0  0  0  0  0  0  0  0999 V2000
   -0.0980   -0.6960    1.9620 C   0  0  0  0  0  0  0  0  0  0  0  0
   -0.4230   -1.8170    2.7390 C   0  0  0  0  0  0  0  0  0  0  0  0
   -1.6930   -2.9180    2.3320 Cl  0  0  0  0  0  0  0  0  0  0  0  0
    0.3370   -2.1280    3.8760 C   0  0  0  0  0  3  0  0  0  0  0  0
    1.4240   -1.3340    4.2420 C   0  0  0  0  0  3  0  0  0  0  0  0
    1.7620   -0.2270    3.4700 C   0  0  0  0  0  3  0  0  0  0  0  0
    0.9930    0.1020    2.3480 C   0  0  0  0  0  0  0  0  0  0  0  0
   -0.9110   -0.3330    0.7720 C   0  0  0  0  0  0  0  0  0  0  0  0
   -0.1860   -0.0050   -0.3620 N   0  0  0  0  0  0  0  0  0  0  0  0
    0.8240    0.0670   -0.3030 H   0  0  0  0  0  0  0  0  0  0  0  0
   -2.1370   -0.3110    0.8460 O   0  0  0  0  0  0  0  0  0  0  0  0
   -0.8010    0.3710   -1.5390 C   0  0  0  0  0  0  0  0  0  0  0  0
   -1.3760    1.0390   -3.5700 C   0  0  0  0  0  0  0  0  0  0  0  0
   -2.5330    0.7710   -2.9520 N   0  0  0  0  0  0  0  0  0  0  0  0
   -0.2510    0.8150   -2.7240 C   0  0  0  0  0  0  0  0  0  0  0  0
   -2.1580    0.3720   -1.7260 N   0  0  0  0  0  0  0  0  0  0  0  0
   -1.3840    1.5200   -4.9750 C   0  0  0  0  0  1  0  0  0  0  0  0
    1.1820    1.0170   -3.0390 C   0  0  0  0  0  1  0  0  0  0  0  0
   -2.8620    0.1150   -1.0380 H   0  0  0  0  0  0  0  0  0  0  0  0
    1.3760    1.1780    1.5890 O   0  0  0  0  0  0  0  0  0  0  0  0
    1.0480    2.4280    2.2170 C   0  0  0  0  0  2  0  0  0  0  0  0
   -0.0270    3.1010    1.4190 C   0  0  0  0  0  3  0  0  0  0  0  0
    0.2880    3.7480    0.0940 C   0  0  0  0  0  2  0  0  0  0  0  0
   -0.0660    4.6020    1.2810 C   0  0  0  0  0  2  0  0  0  0  0  0
  1  7  2  0  0  0  0
  1  2  1  0  0  0  0
  2  4  2  0  0  0  0
  3  2  1  0  0  0  0
  4  5  1  0  0  0  0
  6  5  2  0  0  0  0
  7  6  1  0  0  0  0
  8 11  2  0  0  0  0
  8  1  1  0  0  0  0
  9 10  1  0  0  0  0
  9  8  1  0  0  0  0
 12  9  1  0  0  0  0
 13 14  2  0  0  0  0
 13 15  1  0  0  0  0
 14 16  1  0  0  0  0
 15 12  2  0  0  0  0
 16 12  1  0  0  0  0
 16 19  1  0  0  0  0
 17 13  1  0  0  0  0
 18 15  1  0  0  0  0
 20 21  1  0  0  0  0
 20  7  1  0  0  0  0
 22 21  1  0  0  0  0
 23 24  1  0  0  0  0
 23 22  1  0  0  0  0
 24 22  1  0  0  0  0
M  END
>  <REMARK>
 SMILES Cc1n[nH]c(NC(=O)c2c(Cl)cccc2OCC2CC2)c1C
 SMILES IDX 9 1 10 2 11 3 12 4 13 5 14 6 15 7 7 8 6 9 8 11 5 12 2 13
 SMILES IDX 3 14 21 15 4 16 1 17 22 18 16 20 17 21 18 22 19 23 20 24
 H PARENT 6 10 4 19

>  <TORSDO>
F 5

$$$$
