/home/pchatterjee/Documents/git/vs_workflow/DiffDock/diffdock_run/pdbqt_scrubbed/Z30084948.pdbqt
 OpenBabel10272516423D

 24 26  0  0  0  0  0  0  0  0999 V2000
   -0.9180    2.3400   -0.4300 C   0  0  0  0  0  1  0  0  0  0  0  0
   -0.0260    1.2590   -0.8260 N   0  0  0  0  0  0  0  0  0  0  0  0
   -0.2780    0.6100   -2.1160 C   0  0  0  0  0  2  0  0  0  0  0  0
   -1.5920   -0.1660   -2.0860 C   0  0  0  0  0  0  0  0  0  0  0  0
   -1.6470   -1.3830   -1.6510 N   0  0  0  0  0  0  0  0  0  0  0  0
   -2.7020    0.5230   -2.5110 N   0  0  0  0  0  0  0  0  0  0  0  0
   -2.8950   -2.0260   -1.6270 C   0  0  0  0  0  0  0  0  0  0  0  0
   -3.9640   -0.0100   -2.5200 C   0  0  0  0  0  0  0  0  0  0  0  0
   -2.9680   -3.3420   -1.1680 C   0  0  0  0  0  3  0  0  0  0  0  0
   -4.0730   -1.3980   -2.0420 C   0  0  0  0  0  0  0  0  0  0  0  0
   -4.1940   -4.0140   -1.1260 C   0  0  0  0  0  3  0  0  0  0  0  0
   -5.3050   -2.0580   -2.0050 C   0  0  0  0  0  3  0  0  0  0  0  0
   -5.3610   -3.3730   -1.5450 C   0  0  0  0  0  3  0  0  0  0  0  0
   -2.6310    1.4710   -2.8510 H   0  0  0  0  0  0  0  0  0  0  0  0
   -4.9350    0.6340   -2.8990 O   0  0  0  0  0  0  0  0  0  0  0  0
    0.8620    0.6320    0.0480 C   0  0  0  0  0  0  0  0  0  0  0  0
    1.5680   -0.3130   -0.3020 O   0  0  0  0  0  0  0  0  0  0  0  0
    0.9430    1.1960    1.4620 C   0  0  0  0  0  2  0  0  0  0  0  0
    1.8400    0.3510    2.3720 C   0  0  0  0  0  2  0  0  0  0  0  0
    1.8310    0.8370    3.8330 C   0  0  0  0  0  3  0  0  0  0  0  0
    2.6420   -0.0920    4.7400 C   0  0  0  0  0  2  0  0  0  0  0  0
    2.5410    2.1740    4.0480 C   0  0  0  0  0  2  0  0  0  0  0  0
    4.0890    0.3680    4.5890 C   0  0  0  0  0  2  0  0  0  0  0  0
    4.0240    1.8240    4.1320 C   0  0  0  0  0  2  0  0  0  0  0  0
  2  1  1  0  0  0  0
  2 16  1  0  0  0  0
  3  4  1  0  0  0  0
  3  2  1  0  0  0  0
  4  5  2  0  0  0  0
  5  7  1  0  0  0  0
  6  4  1  0  0  0  0
  7  9  1  0  0  0  0
  8  6  1  0  0  0  0
  8 10  1  0  0  0  0
  9 11  2  0  0  0  0
 10 12  1  0  0  0  0
 10  7  2  0  0  0  0
 12 13  2  0  0  0  0
 13 11  1  0  0  0  0
 14  6  1  0  0  0  0
 15  8  2  0  0  0  0
 16 18  1  0  0  0  0
 17 16  2  0  0  0  0
 18 19  1  0  0  0  0
 19 20  1  0  0  0  0
 20 22  1  0  0  0  0
 20 21  1  0  0  0  0
 22 24  1  0  0  0  0
 23 21  1  0  0  0  0
 24 23  1  0  0  0  0
M  END
>  <REMARK>
 SMILES CN(Cc1nc2ccccc2c(=O)[nH]1)C(=O)CCC1CCCC1
 SMILES IDX 1 1 2 2 3 3 4 4 5 5 14 6 6 7 12 8 7 9 11 10 8 11 10 12 9 13
 SMILES IDX 13 15 15 16 16 17 17 18 18 19 19 20 20 21 23 22 21 23 22 24
 H PARENT 14 14

>  <TORSDO>
F 6

$$$$
