/home/pchatterjee/Documents/git/vs_workflow/DiffDock/diffdock_run/pdbqt_scrubbed/Z30167053.pdbqt
 OpenBabel10272516423D

 27 29  0  0  0  0  0  0  0  0999 V2000
   -4.2270   -2.0890   -0.2250 C   0  0  0  0  0  2  0  0  0  0  0  0
   -3.1160   -2.9670   -0.8140 C   0  0  0  0  0  0  0  0  0  0  0  0
   -2.4770   -3.7710    0.1130 N   0  0  0  0  0  0  0  0  0  0  0  0
   -2.8200   -2.9580   -2.0060 O   0  0  0  0  0  0  0  0  0  0  0  0
   -2.6460   -3.6120    1.0960 H   0  0  0  0  0  0  0  0  0  0  0  0
   -1.2720   -4.4900   -0.2360 C   0  0  0  0  0  2  0  0  0  0  0  0
   -0.0550   -3.6670    0.0890 C   0  0  0  0  0  0  0  0  0  0  0  0
    0.3910   -2.6820   -0.7990 C   0  0  0  0  0  3  0  0  0  0  0  0
    0.6290   -3.8290    1.2970 C   0  0  0  0  0  3  0  0  0  0  0  0
    1.4940   -1.9210   -0.4510 C   0  0  0  0  0  3  0  0  0  0  0  0
    1.7240   -3.0170    1.5550 C   0  0  0  0  0  3  0  0  0  0  0  0
    2.1710   -2.0660    0.7090 N   0  0  0  0  0  0  0  0  0  0  0  0
   -4.2320   -0.7500   -0.6940 O   0  0  0  0  0  0  0  0  0  0  0  0
   -3.2350    0.0820   -0.2690 C   0  0  0  0  0  0  0  0  0  0  0  0
   -3.1660    1.3010   -0.9440 C   0  0  0  0  0  3  0  0  0  0  0  0
   -2.3270   -0.1680    0.7560 C   0  0  0  0  0  3  0  0  0  0  0  0
   -2.1950    2.2510   -0.6090 C   0  0  0  0  0  3  0  0  0  0  0  0
   -1.3550    0.7860    1.0890 C   0  0  0  0  0  3  0  0  0  0  0  0
   -1.2750    2.0100    0.4180 C   0  0  0  0  0  0  0  0  0  0  0  0
   -0.2960    2.9770    0.6990 N   0  0  0  0  0  0  0  0  0  0  0  0
   -0.5450    3.9140    0.4040 H   0  0  0  0  0  0  0  0  0  0  0  0
    0.9910    2.8870    1.2590 C   0  0  0  0  0  0  0  0  0  0  0  0
    1.7430    1.7080    1.2680 C   0  0  0  0  0  3  0  0  0  0  0  0
    1.5360    4.0160    1.8900 C   0  0  0  0  0  3  0  0  0  0  0  0
    3.0030    1.6550    1.8710 C   0  0  0  0  0  3  0  0  0  0  0  0
    2.7950    3.9700    2.4960 C   0  0  0  0  0  3  0  0  0  0  0  0
    3.5290    2.7870    2.4860 C   0  0  0  0  0  3  0  0  0  0  0  0
  2  1  1  0  0  0  0
  2  3  1  0  0  0  0
  3  5  1  0  0  0  0
  4  2  2  0  0  0  0
  6  7  1  0  0  0  0
  6  3  1  0  0  0  0
  7  9  1  0  0  0  0
  8 10  1  0  0  0  0
  8  7  2  0  0  0  0
  9 11  2  0  0  0  0
 10 12  2  0  0  0  0
 12 11  1  0  0  0  0
 13 14  1  0  0  0  0
 13  1  1  0  0  0  0
 14 16  1  0  0  0  0
 15 17  1  0  0  0  0
 15 14  2  0  0  0  0
 16 18  2  0  0  0  0
 17 19  2  0  0  0  0
 19 20  1  0  0  0  0
 19 18  1  0  0  0  0
 20 22  1  0  0  0  0
 21 20  1  0  0  0  0
 22 23  2  0  0  0  0
 22 24  1  0  0  0  0
 23 25  1  0  0  0  0
 24 26  2  0  0  0  0
 25 27  2  0  0  0  0
 27 26  1  0  0  0  0
M  END
>  <REMARK>
 SMILES O=C(COc1ccc(Nc2ccccc2)cc1)NCc1ccncc1
 SMILES IDX 3 1 2 2 18 3 1 4 19 6 20 7 21 8 25 9 22 10 24 11 23 12 4 13
 SMILES IDX 5 14 6 15 17 16 7 17 16 18 8 19 9 20 10 22 11 23 15 24 12 25
 SMILES IDX 14 26 13 27
 H PARENT 18 5 9 21

>  <TORSDO>
F 7

$$$$
