/home/pchatterjee/Documents/git/vs_workflow/DiffDock/diffdock_run/pdbqt_scrubbed/Z3071600379.pdbqt
 OpenBabel10272516423D

 24 26  0  0  0  0  0  0  0  0999 V2000
   -2.3330    0.8840    1.6830 C   0  0  0  0  0  2  0  0  0  0  0  0
   -1.5220    1.1390    3.2550 S   0  0  0  0  0  0  0  0  0  0  0  0
   -1.5970   -0.0760    4.0360 O   0  0  0  0  0  0  0  0  0  0  0  0
   -2.0570    2.3770    3.7880 O   0  0  0  0  0  0  0  0  0  0  0  0
    0.0650    1.4980    2.8600 N   0  0  0  0  0  0  0  0  0  0  0  0
    0.1830    2.4650    2.5560 H   0  0  0  0  0  0  0  0  0  0  0  0
    0.9750    0.5320    2.3500 C   0  0  0  0  0  0  0  0  0  0  0  0
    3.4870    0.2890   -0.4500 C   0  0  0  0  0  0  0  0  0  0  0  0
    4.3450   -0.6980   -0.8650 N   0  0  0  0  0  0  0  0  0  0  0  0
    2.6700   -0.0370    0.7310 C   0  0  0  0  0  0  0  0  0  0  0  0
    4.4460   -1.9040   -0.2350 C   0  0  0  0  0  3  0  0  0  0  0  0
    1.7490    0.8820    1.2440 C   0  0  0  0  0  3  0  0  0  0  0  0
    2.8480   -1.2970    1.3090 C   0  0  0  0  0  0  0  0  0  0  0  0
    3.7570   -2.2400    0.8010 N   0  0  0  0  0  0  0  0  0  0  0  0
    2.0940   -1.6200    2.4360 C   0  0  0  0  0  3  0  0  0  0  0  0
    1.1710   -0.7080    2.9610 C   0  0  0  0  0  3  0  0  0  0  0  0
    3.4070    1.3690   -1.0220 O   0  0  0  0  0  0  0  0  0  0  0  0
    4.9140   -0.4860   -1.6720 H   0  0  0  0  0  0  0  0  0  0  0  0
   -2.0460   -0.4670    1.0600 C   0  0  0  0  0  2  0  0  0  0  0  0
   -1.0350   -0.3180    0.0610 O   0  0  0  0  0  0  0  0  0  0  0  0
   -0.6490   -1.5610   -0.5320 C   0  0  0  0  0  2  0  0  0  0  0  0
   -1.6430   -1.9720   -1.5710 C   0  0  0  0  0  3  0  0  0  0  0  0
   -1.5700   -3.3530   -2.1730 C   0  0  0  0  0  2  0  0  0  0  0  0
   -2.7150   -2.9890   -1.2700 C   0  0  0  0  0  2  0  0  0  0  0  0
  1  2  1  0  0  0  0
  2  4  2  0  0  0  0
  2  3  2  0  0  0  0
  5  2  1  0  0  0  0
  6  5  1  0  0  0  0
  7  5  1  0  0  0  0
  7 16  1  0  0  0  0
  8 10  1  0  0  0  0
  9  8  1  0  0  0  0
  9 11  1  0  0  0  0
 10 12  1  0  0  0  0
 10 13  2  0  0  0  0
 11 14  2  0  0  0  0
 12  7  2  0  0  0  0
 13 15  1  0  0  0  0
 14 13  1  0  0  0  0
 15 16  2  0  0  0  0
 17  8  2  0  0  0  0
 18  9  1  0  0  0  0
 19  1  1  0  0  0  0
 20 19  1  0  0  0  0
 21 20  1  0  0  0  0
 22 24  1  0  0  0  0
 22 21  1  0  0  0  0
 23 22  1  0  0  0  0
 23 24  1  0  0  0  0
M  END
>  <REMARK>
 SMILES O=c1[nH]cnc2ccc(NS(=O)(=O)CCOCC3CC3)cc12
 SMILES IDX 14 1 11 2 12 3 13 4 10 5 9 7 2 8 3 9 22 10 4 11 21 12 6 13
 SMILES IDX 5 14 7 15 8 16 1 17 15 19 16 20 17 21 18 22 19 23 20 24
 H PARENT 10 6 3 18

>  <TORSDO>
F 7

$$$$
