/home/pchatterjee/Documents/git/vs_workflow/DiffDock/diffdock_run/pdbqt_scrubbed/Z3071631534.pdbqt
 OpenBabel10272516423D

 24 26  0  0  1  0  0  0  0  0999 V2000
    0.5540   -0.0750    0.2230 N   0  0  0  0  0  0  0  0  0  0  0  0
    1.3060    0.5920    0.0470 H   0  0  0  0  0  0  0  0  0  0  0  0
   -0.3810   -0.2400   -0.8380 C   0  0  0  0  0  0  0  0  0  0  0  0
   -2.1900    1.8260   -3.4110 C   0  0  0  0  0  0  0  0  0  0  0  0
   -3.1530    1.5350   -4.3430 N   0  0  0  0  0  0  0  0  0  0  0  0
   -1.7400    0.6910   -2.5870 C   0  0  0  0  0  0  0  0  0  0  0  0
   -3.6470    0.2760   -4.5290 C   0  0  0  0  0  3  0  0  0  0  0  0
   -0.7820    0.8650   -1.5850 C   0  0  0  0  0  3  0  0  0  0  0  0
   -2.3120   -0.5600   -2.8480 C   0  0  0  0  0  0  0  0  0  0  0  0
   -3.2790   -0.7550   -3.8490 N   0  0  0  0  0  0  0  0  0  0  0  0
   -1.9040   -1.6520   -2.0820 C   0  0  0  0  0  3  0  0  0  0  0  0
   -0.9450   -1.4940   -1.0750 C   0  0  0  0  0  3  0  0  0  0  0  0
   -1.7260    2.9520   -3.2820 O   0  0  0  0  0  0  0  0  0  0  0  0
   -3.4690    2.3050   -4.9140 H   0  0  0  0  0  0  0  0  0  0  0  0
   -0.0580    0.1660    1.7720 S   0  0  0  0  0  0  0  0  0  0  0  0
   -1.4270    0.6300    1.6780 O   0  0  0  0  0  0  0  0  0  0  0  0
    0.9280    0.9740    2.4590 O   0  0  0  0  0  0  0  0  0  0  0  0
   -0.0760   -1.4560    2.5130 C   0  0  0  0  0  2  0  0  0  0  0  0
    1.2200   -2.2590    2.4920 C   0  0  2  0  0  3  0  0  0  0  0  0
    2.4470   -1.5970    3.1380 C   0  0  0  0  0  2  0  0  0  0  0  0
    1.4710   -2.7450    1.1680 O   0  0  0  0  0  0  0  0  0  0  0  0
    3.4790   -1.1550    2.1100 C   0  0  0  0  0  2  0  0  0  0  0  0
    2.7570   -3.3450    1.0420 C   0  0  0  0  0  2  0  0  0  0  0  0
    3.8490   -2.2890    1.1570 C   0  0  0  0  0  2  0  0  0  0  0  0
  1 15  1  0  0  0  0
  2  1  1  0  0  0  0
  3  1  1  0  0  0  0
  4 13  2  0  0  0  0
  4  6  1  0  0  0  0
  5  4  1  0  0  0  0
  6  8  1  0  0  0  0
  7  5  1  0  0  0  0
  7 10  2  0  0  0  0
  8  3  2  0  0  0  0
  9  6  2  0  0  0  0
  9 11  1  0  0  0  0
 10  9  1  0  0  0  0
 11 12  2  0  0  0  0
 12  3  1  0  0  0  0
 14  5  1  0  0  0  0
 15 17  2  0  0  0  0
 15 18  1  0  0  0  0
 16 15  2  0  0  0  0
 19 18  1  6  0  0  0
 19 20  1  0  0  0  0
 21 19  1  0  0  0  0
 22 20  1  0  0  0  0
 23 24  1  0  0  0  0
 23 21  1  0  0  0  0
 24 22  1  0  0  0  0
M  END
>  <REMARK>
 SMILES O=c1[nH]cnc2ccc(NS(=O)(=O)CC3CCCCO3)cc12
 SMILES IDX 10 1 9 3 2 4 3 5 22 6 4 7 21 8 6 9 5 10 7 11 8 12 1 13 11 15
 SMILES IDX 12 16 13 17 14 18 15 19 16 20 20 21 17 22 19 23 18 24
 H PARENT 10 2 3 14

>  <TORSDO>
F 4

$$$$
