/home/pchatterjee/Documents/git/vs_workflow/DiffDock/diffdock_run/pdbqt_scrubbed/Z3091154570.pdbqt
 OpenBabel10272516423D

 27 30  0  0  0  0  0  0  0  0999 V2000
    0.8870    1.7880    0.8470 C   0  0  0  0  0  0  0  0  0  0  0  0
   -0.3310    2.2540    1.1330 N   0  0  0  0  0  0  0  0  0  0  0  0
   -0.4810    3.5950    1.1950 C   0  0  0  0  0  3  0  0  0  0  0  0
    0.5440    4.4850    0.9720 C   0  0  0  0  0  0  0  0  0  0  0  0
    1.7610    3.9020    0.7090 C   0  0  0  0  0  3  0  0  0  0  0  0
    1.9620    2.5660    0.6360 N   0  0  0  0  0  0  0  0  0  0  0  0
    1.1580    0.4350    0.7620 N   0  0  0  0  0  0  0  0  0  0  0  0
    0.2460   -0.5870    0.8790 C   0  0  0  0  0  0  0  0  0  0  0  0
   -0.9620   -0.4450    1.0360 O   0  0  0  0  0  0  0  0  0  0  0  0
    2.1200    0.2470    0.5410 H   0  0  0  0  0  0  0  0  0  0  0  0
    0.8660   -1.9340    0.7780 C   0  0  0  0  0  0  0  0  0  0  0  0
    2.2380   -2.2980    0.9080 C   0  0  0  0  0  3  0  0  0  0  0  0
    0.1240   -3.0330    0.5460 N   0  0  0  0  0  0  0  0  0  0  0  0
    2.2810   -3.6620    0.7380 C   0  0  0  0  0  3  0  0  0  0  0  0
    0.9960   -4.0560    0.5170 N   0  0  0  0  0  0  0  0  0  0  0  0
    0.4790   -5.3920    0.3020 C   0  0  0  0  0  3  0  0  0  0  0  0
   -0.1590   -5.5770   -1.0810 C   0  0  0  0  0  2  0  0  0  0  0  0
    1.4870   -6.5400    0.3690 C   0  0  0  0  0  2  0  0  0  0  0  0
   -0.0740   -7.0750   -1.3840 C   0  0  0  0  0  2  0  0  0  0  0  0
    0.7130   -7.7000   -0.2380 C   0  0  0  0  0  2  0  0  0  0  0  0
    0.4760    5.8470    1.0440 O   0  0  0  0  0  0  0  0  0  0  0  0
   -0.7340    6.4360    0.7660 C   0  0  0  0  0  0  0  0  0  0  0  0
   -1.3210    6.3360   -0.4970 C   0  0  0  0  0  3  0  0  0  0  0  0
   -1.3290    7.2050    1.7660 C   0  0  0  0  0  3  0  0  0  0  0  0
   -2.5340    6.9770   -0.7450 C   0  0  0  0  0  3  0  0  0  0  0  0
   -2.5430    7.8450    1.5140 C   0  0  0  0  0  3  0  0  0  0  0  0
   -3.1460    7.7280    0.2610 C   0  0  0  0  0  3  0  0  0  0  0  0
  1  2  2  0  0  0  0
  2  3  1  0  0  0  0
  4 21  1  0  0  0  0
  4  3  2  0  0  0  0
  5  4  1  0  0  0  0
  6  5  2  0  0  0  0
  6  1  1  0  0  0  0
  7  1  1  0  0  0  0
  7  8  1  0  0  0  0
  8  9  2  0  0  0  0
 10  7  1  0  0  0  0
 11  8  1  0  0  0  0
 11 12  1  0  0  0  0
 13 11  2  0  0  0  0
 14 12  2  0  0  0  0
 15 13  1  0  0  0  0
 15 14  1  0  0  0  0
 16 18  1  0  0  0  0
 16 15  1  0  0  0  0
 17 16  1  0  0  0  0
 19 17  1  0  0  0  0
 19 20  1  0  0  0  0
 20 18  1  0  0  0  0
 22 21  1  0  0  0  0
 22 24  1  0  0  0  0
 23 22  2  0  0  0  0
 25 23  1  0  0  0  0
 25 27  2  0  0  0  0
 26 24  2  0  0  0  0
 27 26  1  0  0  0  0
M  END
>  <REMARK>
 SMILES O=C(Nc1ncc(Oc2ccccc2)cn1)c1ccn(C2CCCC2)n1
 SMILES IDX 4 1 5 2 6 3 7 4 15 5 16 6 3 7 2 8 1 9 17 11 18 12 26 13
 SMILES IDX 19 14 20 15 21 16 22 17 25 18 23 19 24 20 8 21 9 22 10 23
 SMILES IDX 14 24 11 25 13 26 12 27
 H PARENT 3 10

>  <TORSDO>
F 5

$$$$
