/home/pchatterjee/Documents/git/vs_workflow/DiffDock/diffdock_run/pdbqt_scrubbed/Z31409736.pdbqt
 OpenBabel10272516423D

 29 31  0  0  0  0  0  0  0  0999 V2000
    0.7140   -1.7190    1.1830 C   0  0  0  0  0  0  0  0  0  0  0  0
    1.8000   -0.8530    1.0060 C   0  0  0  0  0  3  0  0  0  0  0  0
    3.0590   -1.3430    0.6360 C   0  0  0  0  0  3  0  0  0  0  0  0
    3.2450   -2.7080    0.4330 C   0  0  0  0  0  0  0  0  0  0  0  0
    2.1670   -3.5740    0.6260 C   0  0  0  0  0  3  0  0  0  0  0  0
    0.9080   -3.0850    0.9940 C   0  0  0  0  0  3  0  0  0  0  0  0
   -0.5120   -1.1410    1.5550 N   0  0  0  0  0  0  0  0  0  0  0  0
   -1.7360   -1.7660    1.7210 C   0  0  0  0  0  0  0  0  0  0  0  0
   -1.9860   -2.9560    1.5490 O   0  0  0  0  0  0  0  0  0  0  0  0
   -0.5220   -0.1230    1.6510 H   0  0  0  0  0  0  0  0  0  0  0  0
   -2.8380   -0.7860    2.1370 C   0  0  0  0  0  2  0  0  0  0  0  0
   -3.2200    0.0710    1.0270 N   0  0  0  0  0  0  0  0  0  0  0  0
   -2.4740    1.1790    0.6930 C   0  0  0  0  0  0  0  0  0  0  0  0
   -3.8810   -0.3000    0.3570 H   0  0  0  0  0  0  0  0  0  0  0  0
   -1.4760    1.5010    1.3340 O   0  0  0  0  0  0  0  0  0  0  0  0
   -2.9730    1.9200   -0.5470 C   0  0  0  0  0  3  0  0  0  0  0  0
   -2.2790    3.2840   -0.7110 C   0  0  0  0  0  2  0  0  0  0  0  0
   -2.8130    1.0210   -1.7880 C   0  0  0  0  0  2  0  0  0  0  0  0
   -1.0250    3.1850   -1.5730 C   0  0  0  0  0  2  0  0  0  0  0  0
   -2.6000    1.8280   -3.0620 C   0  0  0  0  0  2  0  0  0  0  0  0
   -1.3390    2.6880   -2.9850 C   0  0  0  0  0  2  0  0  0  0  0  0
    4.4160   -3.3180    0.0830 O   0  0  0  0  0  0  0  0  0  0  0  0
    5.4590   -2.5100   -0.4680 C   0  0  0  0  0  2  0  0  0  0  0  0
    6.3910   -1.9340    0.5760 C   0  0  0  0  0  0  0  0  0  0  0  0
    7.0580   -0.7260    0.3250 C   0  0  0  0  0  3  0  0  0  0  0  0
    6.6520   -2.6120    1.7750 C   0  0  0  0  0  3  0  0  0  0  0  0
    7.9460   -0.1970    1.2620 C   0  0  0  0  0  3  0  0  0  0  0  0
    7.5410   -2.0820    2.7120 C   0  0  0  0  0  3  0  0  0  0  0  0
    8.1860   -0.8750    2.4550 C   0  0  0  0  0  3  0  0  0  0  0  0
  1  7  1  0  0  0  0
  2  1  1  0  0  0  0
  3  2  2  0  0  0  0
  4  5  2  0  0  0  0
  4  3  1  0  0  0  0
  5  6  1  0  0  0  0
  6  1  2  0  0  0  0
  7 10  1  0  0  0  0
  7  8  1  0  0  0  0
  8 11  1  0  0  0  0
  9  8  2  0  0  0  0
 12 11  1  0  0  0  0
 13 12  1  0  0  0  0
 13 15  2  0  0  0  0
 14 12  1  0  0  0  0
 16 13  1  0  0  0  0
 17 16  1  0  0  0  0
 18 16  1  0  0  0  0
 19 17  1  0  0  0  0
 20 21  1  0  0  0  0
 20 18  1  0  0  0  0
 21 19  1  0  0  0  0
 22  4  1  0  0  0  0
 23 22  1  0  0  0  0
 23 24  1  0  0  0  0
 24 26  1  0  0  0  0
 25 24  2  0  0  0  0
 25 27  1  0  0  0  0
 26 28  2  0  0  0  0
 27 29  2  0  0  0  0
 29 28  1  0  0  0  0
M  END
>  <REMARK>
 SMILES O=C(CNC(=O)C1CCCCC1)Nc1ccc(OCc2ccccc2)cc1
 SMILES IDX 14 1 15 2 16 3 17 4 26 5 27 6 13 7 2 8 1 9 3 11 4 12 5 13
 SMILES IDX 6 15 7 16 8 17 12 18 9 19 11 20 10 21 18 22 19 23 20 24
 SMILES IDX 21 25 25 26 22 27 24 28 23 29
 H PARENT 13 10 4 14

>  <TORSDO>
F 7

$$$$
