/home/pchatterjee/Documents/git/vs_workflow/DiffDock/diffdock_run/pdbqt_scrubbed/Z321281298.pdbqt
 OpenBabel10272516423D

 25 28  0  0  1  0  0  0  0  0999 V2000
    1.2960    0.6730   -2.7850 C   0  0  0  0  0  0  0  0  0  0  0  0
    0.8280    0.4340   -4.0830 C   0  0  0  0  0  3  0  0  0  0  0  0
   -0.2950   -0.3640   -4.3030 C   0  0  0  0  0  3  0  0  0  0  0  0
   -0.9630   -0.9470   -3.2250 C   0  0  0  0  0  3  0  0  0  0  0  0
   -0.5030   -0.7360   -1.9270 C   0  0  0  0  0  0  0  0  0  0  0  0
    0.6240    0.0690   -1.7170 C   0  0  0  0  0  3  0  0  0  0  0  0
    2.4410    1.4790   -2.6270 N   0  0  0  0  0  0  0  0  0  0  0  0
    3.2420    1.0760   -3.1080 H   0  0  0  0  0  0  0  0  0  0  0  0
    2.9240    2.1040   -1.4690 C   0  0  0  0  0  0  0  0  0  0  0  0
    1.8510    4.0720    1.2340 N   0  0  0  0  0  0  0  0  0  0  0  0
    0.6130    3.9850    0.6960 N   0  0  0  0  0  0  0  0  0  0  0  0
    2.8100    3.4170    0.5110 C   0  0  0  0  0  0  0  0  0  0  0  0
    0.8070    3.2380   -0.3970 C   0  0  0  0  0  3  0  0  0  0  0  0
    4.1270    3.3470    0.7770 N   0  0  0  0  0  0  0  0  0  0  0  0
    2.1520    2.8420   -0.5620 C   0  0  0  0  0  0  0  0  0  0  0  0
    4.7770    2.6450   -0.1650 C   0  0  0  0  0  3  0  0  0  0  0  0
    4.2630    2.0410   -1.2560 N   0  0  0  0  0  0  0  0  0  0  0  0
    2.0440    4.8250    2.4480 C   0  0  0  0  0  1  0  0  0  0  0  0
   -1.0520   -1.2510   -0.7850 O   0  0  0  0  0  0  0  0  0  0  0  0
   -2.1750   -2.1260   -0.9320 C   0  0  0  0  0  2  0  0  0  0  0  0
   -2.6440   -2.6160    0.4410 C   0  0  1  0  0  3  0  0  0  0  0  0
   -1.5510   -3.2050    1.3230 C   0  0  0  0  0  2  0  0  0  0  0  0
   -3.2390   -1.5360    1.1920 O   0  0  0  0  0  0  0  0  0  0  0  0
   -2.0940   -2.9420    2.7050 C   0  0  0  0  0  2  0  0  0  0  0  0
   -2.7280   -1.5800    2.5310 C   0  0  0  0  0  2  0  0  0  0  0  0
  1  7  1  0  0  0  0
  1  6  1  0  0  0  0
  2  1  2  0  0  0  0
  3  2  1  0  0  0  0
  3  4  2  0  0  0  0
  4  5  1  0  0  0  0
  5  6  2  0  0  0  0
  5 19  1  0  0  0  0
  7  9  1  0  0  0  0
  8  7  1  0  0  0  0
  9 17  2  0  0  0  0
  9 15  1  0  0  0  0
 10 18  1  0  0  0  0
 11 10  1  0  0  0  0
 12 14  1  0  0  0  0
 12 10  1  0  0  0  0
 13 11  2  0  0  0  0
 15 13  1  0  0  0  0
 15 12  2  0  0  0  0
 16 14  2  0  0  0  0
 17 16  1  0  0  0  0
 20 19  1  0  0  0  0
 21 20  1  6  0  0  0
 21 23  1  0  0  0  0
 21 22  1  0  0  0  0
 22 24  1  0  0  0  0
 23 25  1  0  0  0  0
 25 24  1  0  0  0  0
M  END
>  <REMARK>
 SMILES Cn1ncc2c(Nc3cccc(OCC4CCCO4)c3)ncnc21
 SMILES IDX 8 1 9 2 10 3 11 4 12 5 20 6 7 7 6 9 2 10 3 11 24 12 4 13
 SMILES IDX 23 14 5 15 22 16 21 17 1 18 13 19 14 20 15 21 16 22 19 23
 SMILES IDX 17 24 18 25
 H PARENT 7 8

>  <TORSDO>
F 5

$$$$
