/home/pchatterjee/Documents/git/vs_workflow/DiffDock/diffdock_run/pdbqt_scrubbed/Z321303522.pdbqt
 OpenBabel10272516423D

 27 30  0  0  1  0  0  0  0  0999 V2000
   -1.7150   -1.1160   -0.7550 C   0  0  0  0  0  0  0  0  0  0  0  0
   -2.5550   -2.2300   -0.7420 C   0  0  0  0  0  3  0  0  0  0  0  0
   -2.1480   -3.4250   -1.3380 C   0  0  0  0  0  3  0  0  0  0  0  0
   -0.8990   -3.5120   -1.9490 C   0  0  0  0  0  3  0  0  0  0  0  0
   -0.0450   -2.4090   -1.9740 C   0  0  0  0  0  0  0  0  0  0  0  0
   -0.4580   -1.2150   -1.3760 C   0  0  0  0  0  3  0  0  0  0  0  0
   -2.0450    0.1290   -0.1750 N   0  0  0  0  0  0  0  0  0  0  0  0
   -3.2050    0.4780    0.4880 C   0  0  0  0  0  0  0  0  0  0  0  0
   -4.1630   -0.2610    0.6850 O   0  0  0  0  0  0  0  0  0  0  0  0
   -1.3440    0.8500   -0.2580 H   0  0  0  0  0  0  0  0  0  0  0  0
   -3.2320    1.8500    0.9700 C   0  0  0  0  0  0  0  0  0  0  0  0
   -2.3250    2.8960    0.9070 C   0  0  0  0  0  3  0  0  0  0  0  0
   -4.3320    2.3360    1.6470 N   0  0  0  0  0  0  0  0  0  0  0  0
   -2.8940    4.0270    1.5580 C   0  0  0  0  0  0  0  0  0  0  0  0
   -4.1540    3.6470    2.0130 C   0  0  0  0  0  0  0  0  0  0  0  0
   -2.4520    5.3410    1.8030 C   0  0  0  0  0  3  0  0  0  0  0  0
   -5.0030    4.5170    2.7050 C   0  0  0  0  0  3  0  0  0  0  0  0
   -3.2890    6.2260    2.4940 C   0  0  0  0  0  3  0  0  0  0  0  0
   -4.5450    5.8170    2.9380 C   0  0  0  0  0  3  0  0  0  0  0  0
   -5.1560    1.7800    1.8400 H   0  0  0  0  0  0  0  0  0  0  0  0
    1.1480   -2.6360   -2.6000 O   0  0  0  0  0  0  0  0  0  0  0  0
    2.0820   -1.5620   -2.7120 C   0  0  0  0  0  2  0  0  0  0  0  0
    2.9650   -1.4350   -1.4630 C   0  0  1  0  0  3  0  0  0  0  0  0
    3.8650   -2.6440   -1.2340 C   0  0  0  0  0  2  0  0  0  0  0  0
    3.8330   -0.2950   -1.6210 O   0  0  0  0  0  0  0  0  0  0  0  0
    5.1510   -2.2330   -1.9080 C   0  0  0  0  0  2  0  0  0  0  0  0
    5.1930   -0.7500   -1.6190 C   0  0  0  0  0  2  0  0  0  0  0  0
  1  2  1  0  0  0  0
  1  7  1  0  0  0  0
  3  2  2  0  0  0  0
  4  3  1  0  0  0  0
  5  4  2  0  0  0  0
  5  6  1  0  0  0  0
  6  1  2  0  0  0  0
  7  8  1  0  0  0  0
  8  9  2  0  0  0  0
  8 11  1  0  0  0  0
 10  7  1  0  0  0  0
 11 13  1  0  0  0  0
 12 11  2  0  0  0  0
 12 14  1  0  0  0  0
 13 20  1  0  0  0  0
 13 15  1  0  0  0  0
 14 16  2  0  0  0  0
 14 15  1  0  0  0  0
 15 17  2  0  0  0  0
 16 18  1  0  0  0  0
 17 19  1  0  0  0  0
 18 19  2  0  0  0  0
 21  5  1  0  0  0  0
 22 21  1  0  0  0  0
 23 22  1  6  0  0  0
 23 24  1  0  0  0  0
 25 27  1  0  0  0  0
 25 23  1  0  0  0  0
 26 27  1  0  0  0  0
 26 24  1  0  0  0  0
M  END
>  <REMARK>
 SMILES O=C(Nc1cccc(OCC2CCCO2)c1)c1cc2ccccc2[nH]1
 SMILES IDX 4 1 5 2 6 3 7 4 8 5 16 6 3 7 2 8 1 9 17 11 18 12 25 13 19 14
 SMILES IDX 24 15 20 16 23 17 21 18 22 19 9 21 10 22 11 23 12 24 15 25
 SMILES IDX 13 26 14 27
 H PARENT 3 10 25 20

>  <TORSDO>
F 5

$$$$
