/home/pchatterjee/Documents/git/vs_workflow/DiffDock/diffdock_run/pdbqt_scrubbed/Z332934574.pdbqt
 OpenBabel10272516423D

 30 34  0  0  1  0  0  0  0  0999 V2000
   -0.9330    2.6390   -0.5410 C   0  0  0  0  0  0  0  0  0  0  0  0
   -0.4630    3.1320   -1.7570 C   0  0  0  0  0  3  0  0  0  0  0  0
    0.9040    3.3250   -1.9290 C   0  0  0  0  0  3  0  0  0  0  0  0
    1.7850    3.0290   -0.8830 C   0  0  0  0  0  3  0  0  0  0  0  0
    1.3240    2.5580    0.3580 C   0  0  0  0  0  0  0  0  0  0  0  0
   -0.0530    2.3760    0.5160 C   0  0  0  0  0  3  0  0  0  0  0  0
   -2.3800    2.4020   -0.3800 C   0  0  0  0  0  0  0  0  0  0  0  0
   -3.1320    3.3720   -0.4390 O   0  0  0  0  0  0  0  0  0  0  0  0
   -2.8170    1.1070   -0.1720 N   0  0  0  0  0  0  0  0  0  0  0  0
   -4.2220    0.8430    0.0700 C   0  0  0  0  0  2  0  0  0  0  0  0
   -2.0300   -0.1350   -0.1420 C   0  0  1  0  0  3  0  0  0  0  0  0
   -4.2280   -0.5050    0.7690 C   0  0  0  0  0  2  0  0  0  0  0  0
   -3.0770   -1.2380    0.0930 C   0  0  0  0  0  2  0  0  0  0  0  0
   -1.2970   -0.3670   -1.4190 C   0  0  0  0  0  0  0  0  0  0  0  0
   -1.7970   -0.2860   -2.6410 N   0  0  0  0  0  0  0  0  0  0  0  0
    0.0360   -0.7180   -1.5000 N   0  0  0  0  0  0  0  0  0  0  0  0
   -0.7960   -0.5620   -3.5420 N   0  0  0  0  0  0  0  0  0  0  0  0
    1.0050   -0.9540   -0.5240 C   0  0  0  0  0  3  0  0  0  0  0  0
    0.2980   -0.8120   -2.8610 C   0  0  0  0  0  0  0  0  0  0  0  0
    2.2550   -1.2740   -0.9010 C   0  0  0  0  0  3  0  0  0  0  0  0
    1.6210   -1.1500   -3.2590 C   0  0  0  0  0  3  0  0  0  0  0  0
    2.5610   -1.3720   -2.3200 C   0  0  0  0  0  3  0  0  0  0  0  0
    2.2630    2.2050    1.3320 N   0  0  0  0  0  0  0  0  0  0  0  0
    3.1750    2.6340    1.2640 H   0  0  0  0  0  0  0  0  0  0  0  0
    2.1800    1.4900    2.5220 C   0  0  0  0  0  0  0  0  0  0  0  0
    3.2830    1.5280    3.2880 N   0  0  0  0  0  0  0  0  0  0  0  0
    1.0840    0.7800    2.8440 N   0  0  0  0  0  0  0  0  0  0  0  0
    3.2550    0.8440    4.4480 C   0  0  0  0  0  3  0  0  0  0  0  0
    1.1030    0.1150    4.0150 C   0  0  0  0  0  3  0  0  0  0  0  0
    2.1750    0.1120    4.8690 C   0  0  0  0  0  3  0  0  0  0  0  0
  1  7  1  0  0  0  0
  1  6  1  0  0  0  0
  2  1  2  0  0  0  0
  3  2  1  0  0  0  0
  3  4  2  0  0  0  0
  4  5  1  0  0  0  0
  5  6  2  0  0  0  0
  5 23  1  0  0  0  0
  7  9  1  0  0  0  0
  8  7  2  0  0  0  0
  9 11  1  0  0  0  0
  9 10  1  0  0  0  0
 10 12  1  0  0  0  0
 11 14  1  6  0  0  0
 11 13  1  0  0  0  0
 13 12  1  0  0  0  0
 15 14  2  0  0  0  0
 16 14  1  0  0  0  0
 16 18  1  0  0  0  0
 17 19  2  0  0  0  0
 17 15  1  0  0  0  0
 19 16  1  0  0  0  0
 20 18  2  0  0  0  0
 21 19  1  0  0  0  0
 21 22  2  0  0  0  0
 22 20  1  0  0  0  0
 23 25  1  0  0  0  0
 24 23  1  0  0  0  0
 25 27  1  0  0  0  0
 25 26  2  0  0  0  0
 26 28  1  0  0  0  0
 27 29  2  0  0  0  0
 28 30  2  0  0  0  0
 29 30  1  0  0  0  0
M  END
>  <REMARK>
 SMILES O=C(c1cccc(Nc2ncccn2)c1)N1CCCC1c1nnc2ccccn12
 SMILES IDX 3 1 4 2 5 3 6 4 7 5 15 6 2 7 1 8 16 9 17 10 20 11 18 12
 SMILES IDX 19 13 21 14 22 15 29 16 23 17 28 18 24 19 27 20 25 21 26 22
 SMILES IDX 8 23 9 25 10 26 14 27 11 28 13 29 12 30
 H PARENT 8 24

>  <TORSDO>
F 5

$$$$
