/home/pchatterjee/Documents/git/vs_workflow/DiffDock/diffdock_run/pdbqt_scrubbed/Z352550402.pdbqt
 OpenBabel10272516423D

 26 28  0  0  0  0  0  0  0  0999 V2000
   -0.2340    3.8990   -1.9330 C   0  0  0  0  0  2  0  0  0  0  0  0
   -1.6210    3.3370   -1.5970 C   0  0  0  0  0  0  0  0  0  0  0  0
   -2.3680    4.1950   -0.8120 N   0  0  0  0  0  0  0  0  0  0  0  0
   -2.0260    2.2430   -1.9890 O   0  0  0  0  0  0  0  0  0  0  0  0
   -2.0210    5.0970   -0.5130 H   0  0  0  0  0  0  0  0  0  0  0  0
   -3.6320    3.8780   -0.3890 C   0  0  0  0  0  0  0  0  0  0  0  0
   -4.4060    4.6310    0.3580 N   0  0  0  0  0  0  0  0  0  0  0  0
   -4.2890    2.7140   -0.6830 N   0  0  0  0  0  0  0  0  0  0  0  0
   -5.5890    3.9500    0.5580 N   0  0  0  0  0  0  0  0  0  0  0  0
   -5.5000    2.8020   -0.0750 C   0  0  0  0  0  3  0  0  0  0  0  0
   -3.9130    1.9610   -1.2460 H   0  0  0  0  0  0  0  0  0  0  0  0
    0.6820    2.9730   -2.4910 O   0  0  0  0  0  0  0  0  0  0  0  0
    1.3190    2.1070   -1.6470 C   0  0  0  0  0  0  0  0  0  0  0  0
    2.2500    1.2740   -2.2680 C   0  0  0  0  0  3  0  0  0  0  0  0
    1.1230    1.9900   -0.2740 C   0  0  0  0  0  3  0  0  0  0  0  0
    2.9800    0.3390   -1.5270 C   0  0  0  0  0  3  0  0  0  0  0  0
    1.8550    1.0500    0.4660 C   0  0  0  0  0  3  0  0  0  0  0  0
    2.7980    0.2170   -0.1440 C   0  0  0  0  0  0  0  0  0  0  0  0
    3.5240   -0.7590    0.5570 N   0  0  0  0  0  0  0  0  0  0  0  0
    4.3980   -1.0220    0.1160 H   0  0  0  0  0  0  0  0  0  0  0  0
    3.2490   -1.4710    1.7370 C   0  0  0  0  0  0  0  0  0  0  0  0
    1.9510   -1.6850    2.2150 C   0  0  0  0  0  3  0  0  0  0  0  0
    4.3210   -1.9460    2.5070 C   0  0  0  0  0  3  0  0  0  0  0  0
    1.7270   -2.3650    3.4160 C   0  0  0  0  0  3  0  0  0  0  0  0
    4.1020   -2.6250    3.7100 C   0  0  0  0  0  3  0  0  0  0  0  0
    2.8040   -2.8340    4.1640 C   0  0  0  0  0  3  0  0  0  0  0  0
  1  2  1  0  0  0  0
  2  3  1  0  0  0  0
  3  5  1  0  0  0  0
  3  6  1  0  0  0  0
  4  2  2  0  0  0  0
  6  7  2  0  0  0  0
  7  9  1  0  0  0  0
  8  6  1  0  0  0  0
  8 10  1  0  0  0  0
 10  9  2  0  0  0  0
 11  8  1  0  0  0  0
 12  1  1  0  0  0  0
 12 13  1  0  0  0  0
 13 15  1  0  0  0  0
 14 13  2  0  0  0  0
 14 16  1  0  0  0  0
 15 17  2  0  0  0  0
 16 18  2  0  0  0  0
 18 17  1  0  0  0  0
 18 19  1  0  0  0  0
 19 21  1  0  0  0  0
 20 19  1  0  0  0  0
 21 22  2  0  0  0  0
 21 23  1  0  0  0  0
 22 24  1  0  0  0  0
 23 25  2  0  0  0  0
 24 26  2  0  0  0  0
 25 26  1  0  0  0  0
M  END
>  <REMARK>
 SMILES O=C(COc1ccc(Nc2ccccc2)cc1)Nc1nnc[nH]1
 SMILES IDX 3 1 2 2 18 3 1 4 19 6 20 7 23 8 21 9 22 10 4 12 5 13 6 14
 SMILES IDX 17 15 7 16 16 17 8 18 9 19 10 21 11 22 15 23 12 24 14 25
 SMILES IDX 13 26
 H PARENT 18 5 23 11 9 20

>  <TORSDO>
F 6

$$$$
