/home/pchatterjee/Documents/git/vs_workflow/DiffDock/diffdock_run/pdbqt_scrubbed/Z357964720.pdbqt
 OpenBabel10272516423D

 30 33  0  0  1  0  0  0  0  0999 V2000
    1.7790   -0.9500    3.9240 C   0  0  0  0  0  0  0  0  0  0  0  0
    1.6400    0.3560    4.3870 C   0  0  0  0  0  3  0  0  0  0  0  0
    1.2520    1.3610    3.4940 C   0  0  0  0  0  3  0  0  0  0  0  0
    1.0100    1.0860    2.1360 C   0  0  0  0  0  0  0  0  0  0  0  0
    1.1640   -0.2370    1.7010 C   0  0  0  0  0  3  0  0  0  0  0  0
    1.5530   -1.2530    2.5820 C   0  0  0  0  0  3  0  0  0  0  0  0
    2.2630   -2.2430    5.0350 S   0  0  0  0  0  0  0  0  0  0  0  0
    3.0810   -3.1870    4.3130 O   0  0  0  0  0  0  0  0  0  0  0  0
    2.6780   -1.6460    6.2840 O   0  0  0  0  0  0  0  0  0  0  0  0
    0.7820   -2.9760    5.3610 N   0  0  0  0  0  0  0  0  0  0  0  0
    0.5650   -2.8520    6.3510 H   0  0  0  0  0  0  0  0  0  0  0  0
    0.0280   -2.6440    4.7610 H   0  0  0  0  0  0  0  0  0  0  0  0
    0.5960    2.1350    1.3090 N   0  0  0  0  0  0  0  0  0  0  0  0
    0.6380    3.0680    1.6920 H   0  0  0  0  0  0  0  0  0  0  0  0
    0.2160    2.2190   -0.0270 C   0  0  0  0  0  0  0  0  0  0  0  0
    0.0880    1.1350   -0.7930 N   0  0  0  0  0  0  0  0  0  0  0  0
   -0.0210    3.4630   -0.4670 N   0  0  0  0  0  2  0  0  0  0  0  0
   -0.2860    1.3070   -2.0790 C   0  0  1  0  0  3  0  0  0  0  0  0
   -0.4080    3.6290   -1.7370 C   0  0  0  0  0  0  0  0  0  0  0  0
   -0.5700    2.5650   -2.6270 C   0  0  0  0  0  0  0  0  0  0  0  0
   -0.6640    4.9180   -2.1920 C   0  0  0  0  0  3  0  0  0  0  0  0
   -1.0050    2.8180   -3.9540 C   0  0  0  0  0  3  0  0  0  0  0  0
   -1.0830    5.1730   -3.5010 C   0  0  0  0  0  3  0  0  0  0  0  0
   -1.2570    4.1180   -4.3850 C   0  0  0  0  0  3  0  0  0  0  0  0
   -0.3640    0.0500   -2.8400 C   0  0  0  0  0  0  0  0  0  0  0  0
   -1.3260   -0.9200   -2.5160 C   0  0  0  0  0  3  0  0  0  0  0  0
    0.5310   -0.2250   -3.8870 C   0  0  0  0  0  3  0  0  0  0  0  0
   -1.4080   -2.1170   -3.2310 C   0  0  0  0  0  3  0  0  0  0  0  0
    0.4510   -1.4230   -4.6020 C   0  0  0  0  0  3  0  0  0  0  0  0
   -0.5210   -2.3660   -4.2760 C   0  0  0  0  0  3  0  0  0  0  0  0
  1  2  1  0  0  0  0
  1  7  1  0  0  0  0
  3  2  2  0  0  0  0
  4  3  1  0  0  0  0
  5  4  2  0  0  0  0
  5  6  1  0  0  0  0
  6  1  2  0  0  0  0
  7 10  1  0  0  0  0
  7  9  2  0  0  0  0
  8  7  2  0  0  0  0
 10 11  1  0  0  0  0
 12 10  1  0  0  0  0
 13 14  1  0  0  0  0
 13  4  1  0  0  0  0
 15 13  1  0  0  0  0
 16 15  2  0  0  0  0
 17 15  1  0  0  0  0
 18 25  1  6  0  0  0
 18 16  1  0  0  0  0
 19 17  1  0  0  0  0
 20 18  1  0  0  0  0
 20 19  2  0  0  0  0
 21 19  1  0  0  0  0
 22 20  1  0  0  0  0
 23 21  2  0  0  0  0
 24 22  2  0  0  0  0
 24 23  1  0  0  0  0
 25 26  1  0  0  0  0
 27 25  2  0  0  0  0
 28 26  2  0  0  0  0
 29 30  2  0  0  0  0
 29 27  1  0  0  0  0
 30 28  1  0  0  0  0
M  END
>  <REMARK>
 SMILES NS(=O)(=O)c1ccc(Nc2nc(-c3ccccc3)c3ccccc3n2)cc1
 SMILES IDX 5 1 6 2 7 3 8 4 26 5 27 6 2 7 3 8 4 9 1 10 9 13 10 15 11 16
 SMILES IDX 25 17 12 18 24 19 19 20 23 21 20 22 22 23 21 24 13 25 14 26
 SMILES IDX 18 27 15 28 17 29 16 30
 H PARENT 1 11 1 12 9 14

>  <TORSDO>
F 5

$$$$
