/home/pchatterjee/Documents/git/vs_workflow/DiffDock/diffdock_run/pdbqt_scrubbed/Z3590543759.pdbqt
 OpenBabel10272516423D

 25 28  0  0  0  0  0  0  0  0999 V2000
    2.2040   -0.1060   -0.8660 C   0  0  0  0  0  0  0  0  0  0  0  0
    3.5690    0.1710   -1.0440 C   0  0  0  0  0  0  0  0  0  0  0  0
    4.1640    1.6620   -1.6910 Cl  0  0  0  0  0  0  0  0  0  0  0  0
    4.5320   -0.7550   -0.6320 C   0  0  0  0  0  3  0  0  0  0  0  0
    4.1460   -1.9530   -0.0380 C   0  0  0  0  0  3  0  0  0  0  0  0
    2.7940   -2.2310    0.1600 C   0  0  0  0  0  3  0  0  0  0  0  0
    1.8140   -1.3180   -0.2490 C   0  0  0  0  0  0  0  0  0  0  0  0
    1.1740    0.8570   -1.3590 C   0  0  0  0  0  0  0  0  0  0  0  0
    0.1400    1.1210   -0.4740 N   0  0  0  0  0  0  0  0  0  0  0  0
    1.2860    1.3310   -2.4840 O   0  0  0  0  0  0  0  0  0  0  0  0
    0.1220    0.5370    0.3550 H   0  0  0  0  0  0  0  0  0  0  0  0
   -0.9240    1.9750   -0.6440 C   0  0  0  0  0  0  0  0  0  0  0  0
   -1.9470    1.9690    0.4080 C   0  0  0  0  0  3  0  0  0  0  0  0
   -1.0960    2.8110   -1.6860 C   0  0  0  0  0  3  0  0  0  0  0  0
   -3.0360    2.7620    0.3530 C   0  0  0  0  0  3  0  0  0  0  0  0
   -2.2240    3.6220   -1.7280 N   0  0  0  0  0  0  0  0  0  0  0  0
   -3.2050    3.6360   -0.7530 C   0  0  0  0  0  0  0  0  0  0  0  0
   -2.6340    4.5400   -2.6530 C   0  0  0  0  0  3  0  0  0  0  0  0
   -4.1370    4.5050   -1.0780 N   0  0  0  0  0  0  0  0  0  0  0  0
   -3.7750    5.0770   -2.2800 N   0  0  0  0  0  0  0  0  0  0  0  0
    0.4710   -1.5140   -0.0630 O   0  0  0  0  0  0  0  0  0  0  0  0
    0.0210   -2.8060    0.3420 C   0  0  0  0  0  2  0  0  0  0  0  0
   -1.4770   -2.7850    0.3240 C   0  0  0  0  0  3  0  0  0  0  0  0
   -2.2490   -2.1890    1.4730 C   0  0  0  0  0  2  0  0  0  0  0  0
   -2.2720   -3.6760    1.2430 C   0  0  0  0  0  2  0  0  0  0  0  0
  1  7  1  0  0  0  0
  2  1  2  0  0  0  0
  2  4  1  0  0  0  0
  3  2  1  0  0  0  0
  4  5  2  0  0  0  0
  5  6  1  0  0  0  0
  7 21  1  0  0  0  0
  7  6  2  0  0  0  0
  8  1  1  0  0  0  0
  8  9  1  0  0  0  0
  9 11  1  0  0  0  0
 10  8  2  0  0  0  0
 12  9  1  0  0  0  0
 12 13  1  0  0  0  0
 14 12  2  0  0  0  0
 15 13  2  0  0  0  0
 16 14  1  0  0  0  0
 16 17  1  0  0  0  0
 17 15  1  0  0  0  0
 18 20  2  0  0  0  0
 18 16  1  0  0  0  0
 19 17  2  0  0  0  0
 20 19  1  0  0  0  0
 21 22  1  0  0  0  0
 23 22  1  0  0  0  0
 23 25  1  0  0  0  0
 23 24  1  0  0  0  0
 25 24  1  0  0  0  0
M  END
>  <REMARK>
 SMILES O=C(Nc1ccc2nncn2c1)c1c(Cl)cccc1OCC1CC1
 SMILES IDX 13 1 14 2 15 3 16 4 17 5 18 6 19 7 2 8 3 9 1 10 4 12 5 13
 SMILES IDX 12 14 6 15 11 16 7 17 10 18 8 19 9 20 20 21 21 22 22 23
 SMILES IDX 23 24 24 25
 H PARENT 3 11

>  <TORSDO>
F 5

$$$$
