/home/pchatterjee/Documents/git/vs_workflow/DiffDock/diffdock_run/pdbqt_scrubbed/Z368851922.pdbqt
 OpenBabel10272516423D

 29 32  0  0  1  0  0  0  0  0999 V2000
   -1.0100   -1.9770   -0.7300 C   0  0  1  0  0  3  0  0  0  0  0  0
   -0.9160   -3.4930   -0.8950 C   0  0  0  0  0  2  0  0  0  0  0  0
   -1.8400   -4.0660    0.1680 C   0  0  0  0  0  2  0  0  0  0  0  0
   -2.9950   -3.0890    0.1960 C   0  0  0  0  0  2  0  0  0  0  0  0
   -2.3130   -1.7640    0.0840 N   0  0  0  0  0  4  0  0  0  0  0  0
   -1.9470   -1.5120    1.0250 H   0  0  0  0  0  0  0  0  0  0  0  0
    0.1710   -1.3930    0.0670 C   0  0  0  0  0  0  0  0  0  0  0  0
    1.3460   -1.2740   -0.6400 N   0  0  0  0  0  0  0  0  0  0  0  0
   -0.0480   -1.0850    1.2410 O   0  0  0  0  0  0  0  0  0  0  0  0
    1.3640   -1.5830   -1.6050 H   0  0  0  0  0  0  0  0  0  0  0  0
    2.5520   -0.6940   -0.1880 C   0  0  0  0  0  0  0  0  0  0  0  0
    2.7310   -0.1490    1.0850 C   0  0  0  0  0  3  0  0  0  0  0  0
    3.6220   -0.6620   -1.0930 C   0  0  0  0  0  3  0  0  0  0  0  0
    3.9570    0.4180    1.4470 C   0  0  0  0  0  3  0  0  0  0  0  0
    4.8470   -0.0960   -0.7300 C   0  0  0  0  0  3  0  0  0  0  0  0
    5.0140    0.4440    0.5410 C   0  0  0  0  0  3  0  0  0  0  0  0
   -3.1750   -0.6080   -0.3700 C   0  0  0  0  0  2  0  0  0  0  0  0
   -2.4300    0.7230   -0.2680 C   0  0  0  0  0  0  0  0  0  0  0  0
   -1.4680    0.9750   -1.0970 N   0  0  0  0  0  0  0  0  0  0  0  0
   -2.7870    1.5600    0.7520 N   0  0  0  0  0  0  0  0  0  0  0  0
   -0.7540    2.1790   -0.9300 C   0  0  0  0  0  0  0  0  0  0  0  0
   -2.1610    2.7590    0.9910 C   0  0  0  0  0  0  0  0  0  0  0  0
    0.2990    2.4670   -1.7990 C   0  0  0  0  0  3  0  0  0  0  0  0
   -1.0500    3.0920    0.0870 C   0  0  0  0  0  0  0  0  0  0  0  0
    1.0400    3.6440   -1.6500 C   0  0  0  0  0  3  0  0  0  0  0  0
   -0.3200    4.2730    0.2440 C   0  0  0  0  0  3  0  0  0  0  0  0
    0.7300    4.5450   -0.6300 C   0  0  0  0  0  3  0  0  0  0  0  0
   -3.5480    1.3680    1.3910 H   0  0  0  0  0  0  0  0  0  0  0  0
   -2.5190    3.4890    1.9050 O   0  0  0  0  0  0  0  0  0  0  0  0
  1  7  1  1  0  0  0
  1  5  1  0  0  0  0
  2  1  1  0  0  0  0
  2  3  1  0  0  0  0
  3  4  1  0  0  0  0
  5  4  1  0  0  0  0
  5  6  1  0  0  0  0
  7  9  2  0  0  0  0
  8 11  1  0  0  0  0
  8  7  1  0  0  0  0
 10  8  1  0  0  0  0
 11 12  1  0  0  0  0
 12 14  2  0  0  0  0
 13 15  1  0  0  0  0
 13 11  2  0  0  0  0
 15 16  2  0  0  0  0
 16 14  1  0  0  0  0
 17 18  1  0  0  0  0
 17  5  1  0  0  0  0
 18 20  1  0  0  0  0
 19 21  1  0  0  0  0
 19 18  2  0  0  0  0
 20 22  1  0  0  0  0
 20 28  1  0  0  0  0
 21 24  1  0  0  0  0
 22 29  2  0  0  0  0
 23 25  1  0  0  0  0
 23 21  2  0  0  0  0
 24 26  2  0  0  0  0
 24 22  1  0  0  0  0
 25 27  2  0  0  0  0
 27 26  1  0  0  0  0
M  END
>  <REMARK>
 SMILES O=C(Nc1ccccc1)C1CCC[NH+]1Cc1nc2ccccc2c(=O)[nH]1
 SMILES IDX 10 1 11 2 12 3 13 4 14 5 2 7 3 8 1 9 4 11 5 12 9 13 6 14
 SMILES IDX 8 15 7 16 15 17 16 18 17 19 26 20 18 21 24 22 19 23 23 24
 SMILES IDX 20 25 22 26 21 27 25 29
 H PARENT 14 6 3 10 26 28

>  <TORSDO>
F 4

$$$$
