/home/pchatterjee/Documents/git/vs_workflow/DiffDock/diffdock_run/pdbqt_scrubbed/Z373005086.pdbqt
 OpenBabel10272516423D

 26 29  0  0  1  0  0  0  0  0999 V2000
    0.3790    1.9110    0.1090 C   0  0  0  0  0  2  0  0  0  0  0  0
    0.0350    0.5070    0.7330 C   0  0  1  0  0  3  0  0  0  0  0  0
    0.1310    0.5860    2.2350 C   0  0  0  0  0  0  0  0  0  0  0  0
    0.1120    0.9580    4.4480 C   0  0  0  0  0  3  0  0  0  0  0  0
    0.6840   -0.2630    4.1830 C   0  0  0  0  0  3  0  0  0  0  0  0
   -0.2540    1.5070    3.1930 C   0  0  0  0  0  3  0  0  0  0  0  0
    0.6860   -0.5020    2.8480 O   0  0  0  0  0  0  0  0  0  0  0  0
   -1.3670    0.0220    0.2540 N   0  0  0  0  0  4  0  0  0  0  0  0
   -1.9840   -1.0890    1.0870 C   0  0  0  0  0  2  0  0  0  0  0  0
   -1.4230   -0.3410   -1.2180 C   0  0  0  0  0  2  0  0  0  0  0  0
   -1.2850   -2.4180    0.8440 C   0  0  0  0  0  2  0  0  0  0  0  0
   -0.7510   -1.6800   -1.4970 C   0  0  0  0  0  2  0  0  0  0  0  0
   -1.3180   -2.7970   -0.6310 C   0  0  0  0  0  2  0  0  0  0  0  0
   -1.9850    0.8290    0.3880 H   0  0  0  0  0  0  0  0  0  0  0  0
    1.8180    2.1860    0.1010 N   0  0  0  0  0  0  0  0  0  0  0  0
    2.0680    3.1660    0.2080 H   0  0  0  0  0  0  0  0  0  0  0  0
    2.5400    1.5810   -0.9260 C   0  0  0  0  0  0  0  0  0  0  0  0
    1.9820    0.6140   -1.6910 N   0  0  0  0  0  0  0  0  0  0  0  0
    3.8500    1.9190   -1.2160 C   0  0  0  0  0  0  0  0  0  0  0  0
    2.7220    0.0700   -2.6870 C   0  0  0  0  0  3  0  0  0  0  0  0
    4.7700    2.7800   -0.6780 N   0  0  0  0  0  0  0  0  0  0  0  0
    4.5250    1.3050   -2.2560 C   0  0  0  0  0  0  0  0  0  0  0  0
    3.9760    0.3600   -3.0350 N   0  0  0  0  0  0  0  0  0  0  0  0
    5.9220    2.6670   -1.4080 C   0  0  0  0  0  3  0  0  0  0  0  0
    5.7980    1.7850   -2.3730 N   0  0  0  0  0  0  0  0  0  0  0  0
    4.6410    3.3730    0.1290 H   0  0  0  0  0  0  0  0  0  0  0  0
  2  1  1  6  0  0  0
  2  3  1  0  0  0  0
  3  7  1  0  0  0  0
  3  6  2  0  0  0  0
  5  4  2  0  0  0  0
  6  4  1  0  0  0  0
  7  5  1  0  0  0  0
  8 14  1  0  0  0  0
  8  2  1  0  0  0  0
  8  9  1  0  0  0  0
 10  8  1  0  0  0  0
 11  9  1  0  0  0  0
 12 10  1  0  0  0  0
 12 13  1  0  0  0  0
 13 11  1  0  0  0  0
 15  1  1  0  0  0  0
 15 16  1  0  0  0  0
 17 15  1  0  0  0  0
 18 17  1  0  0  0  0
 19 17  2  0  0  0  0
 19 21  1  0  0  0  0
 20 18  2  0  0  0  0
 21 26  1  0  0  0  0
 22 19  1  0  0  0  0
 23 20  1  0  0  0  0
 23 22  2  0  0  0  0
 24 21  1  0  0  0  0
 25 22  1  0  0  0  0
 25 24  2  0  0  0  0
M  END
>  <REMARK>
 SMILES c1coc(C(CNc2ncnc3nc[nH]c23)[NH+]2CCCCC2)c1
 SMILES IDX 6 1 5 2 4 3 1 4 2 5 23 6 3 7 17 8 18 9 22 10 19 11 21 12
 SMILES IDX 20 13 7 15 8 17 9 18 16 19 10 20 15 21 12 22 11 23 14 24
 SMILES IDX 13 25
 H PARENT 17 14 7 16 15 26

>  <TORSDO>
F 5

$$$$
