/home/pchatterjee/Documents/git/vs_workflow/DiffDock/diffdock_run/pdbqt_scrubbed/Z373007178.pdbqt
 OpenBabel10272516423D

 27 30  0  0  1  0  0  0  0  0999 V2000
   -1.3040    1.1420   -1.1070 C   0  0  0  0  0  2  0  0  0  0  0  0
   -1.3260    0.8730    0.4070 C   0  0  2  0  0  3  0  0  0  0  0  0
    0.1950    1.0720    2.4380 N   0  0  0  0  0  4  0  0  0  0  0  0
   -0.9360    0.2400    3.0150 C   0  0  0  0  0  2  0  0  0  0  0  0
   -0.2180    1.6940    1.1020 C   0  0  0  0  0  2  0  0  0  0  0  0
   -1.3510   -0.8700    2.0340 C   0  0  0  0  0  2  0  0  0  0  0  0
   -1.1290   -0.5310    0.6550 O   0  0  0  0  0  0  0  0  0  0  0  0
    0.3710    1.8370    3.0990 H   0  0  0  0  0  0  0  0  0  0  0  0
    1.5110    0.3200    2.3290 C   0  0  0  0  0  2  0  0  0  0  0  0
    2.0340   -0.1560    3.6560 C   0  0  0  0  0  0  0  0  0  0  0  0
    2.9590   -1.0400    6.1520 C   0  0  0  0  0  3  0  0  0  0  0  0
    2.9750    0.3180    5.8450 C   0  0  0  0  0  3  0  0  0  0  0  0
    2.4910   -1.9600    5.2170 C   0  0  0  0  0  3  0  0  0  0  0  0
    2.5170    0.7610    4.6040 C   0  0  0  0  0  3  0  0  0  0  0  0
    2.0320   -1.5230    3.9740 C   0  0  0  0  0  3  0  0  0  0  0  0
   -2.4560    0.4990   -1.7370 N   0  0  0  0  0  0  0  0  0  0  0  0
   -2.5020   -0.5010   -1.5590 H   0  0  0  0  0  0  0  0  0  0  0  0
   -2.5750    0.7700   -3.1040 C   0  0  0  0  0  0  0  0  0  0  0  0
   -1.8890    1.7820   -3.6780 N   0  0  0  0  0  0  0  0  0  0  0  0
   -3.4000    0.0380   -3.9400 C   0  0  0  0  0  0  0  0  0  0  0  0
   -2.0320    2.0000   -5.0050 C   0  0  0  0  0  3  0  0  0  0  0  0
   -4.2720   -1.0030   -3.7680 N   0  0  0  0  0  0  0  0  0  0  0  0
   -3.4790    0.3310   -5.2900 C   0  0  0  0  0  0  0  0  0  0  0  0
   -2.7870    1.3230   -5.8730 N   0  0  0  0  0  0  0  0  0  0  0  0
   -4.8100   -1.3030   -4.9890 C   0  0  0  0  0  3  0  0  0  0  0  0
   -4.3430   -0.5140   -5.9300 N   0  0  0  0  0  0  0  0  0  0  0  0
   -4.5010   -1.4550   -2.8950 H   0  0  0  0  0  0  0  0  0  0  0  0
  2  1  1  6  0  0  0
  2  7  1  0  0  0  0
  2  5  1  0  0  0  0
  3  4  1  0  0  0  0
  3  8  1  0  0  0  0
  5  3  1  0  0  0  0
  6  4  1  0  0  0  0
  7  6  1  0  0  0  0
  9  3  1  0  0  0  0
  9 10  1  0  0  0  0
 10 15  2  0  0  0  0
 10 14  1  0  0  0  0
 12 11  1  0  0  0  0
 13 11  2  0  0  0  0
 14 12  2  0  0  0  0
 15 13  1  0  0  0  0
 16 17  1  0  0  0  0
 16  1  1  0  0  0  0
 18 16  1  0  0  0  0
 19 18  1  0  0  0  0
 20 22  1  0  0  0  0
 20 18  2  0  0  0  0
 21 19  2  0  0  0  0
 22 27  1  0  0  0  0
 23 20  1  0  0  0  0
 24 23  2  0  0  0  0
 24 21  1  0  0  0  0
 25 22  1  0  0  0  0
 26 23  1  0  0  0  0
 26 25  2  0  0  0  0
M  END
>  <REMARK>
 SMILES c1ccc(C[NH+]2CCOC(CNc3ncnc4nc[nH]c34)C2)cc1
 SMILES IDX 11 1 10 2 6 3 7 4 22 5 8 6 9 7 5 9 4 10 1 11 2 12 24 13 3 14
 SMILES IDX 23 15 12 16 13 18 14 19 21 20 15 21 20 22 17 23 16 24 19 25
 SMILES IDX 18 26
 H PARENT 6 8 12 17 20 27

>  <TORSDO>
F 5

$$$$
