/home/pchatterjee/Documents/git/vs_workflow/DiffDock/diffdock_run/pdbqt_scrubbed/Z3807133138.pdbqt
 OpenBabel10272516423D

 26 29  0  0  1  0  0  0  0  0999 V2000
    1.1210   -0.7380    1.2750 N   0  0  0  0  0  0  0  0  0  0  0  0
    1.2780   -1.5240    2.4840 C   0  0  0  0  0  2  0  0  0  0  0  0
    0.3910   -2.7370    2.2630 C   0  0  0  0  0  2  0  0  0  0  0  0
   -0.7820   -2.1590    1.4640 C   0  0  1  0  0  3  0  0  0  0  0  0
   -0.0880   -1.1300    0.5530 C   0  0  0  0  0  2  0  0  0  0  0  0
    1.8340    0.4330    1.1050 C   0  0  0  0  0  0  0  0  0  0  0  0
    2.6660    0.8440    1.9070 O   0  0  0  0  0  0  0  0  0  0  0  0
    1.5760    1.2200   -0.1110 C   0  0  0  0  0  0  0  0  0  0  0  0
    1.0410    2.5120   -0.0170 C   0  0  0  0  0  3  0  0  0  0  0  0
    1.8760    0.7280   -1.3840 C   0  0  0  0  0  0  0  0  0  0  0  0
    0.7780    3.2570   -1.1680 C   0  0  0  0  0  3  0  0  0  0  0  0
    2.4550   -0.4330   -1.8310 N   0  0  0  0  0  0  0  0  0  0  0  0
    1.6190    1.4530   -2.5420 C   0  0  0  0  0  0  0  0  0  0  0  0
    1.0540    2.7350   -2.4400 C   0  0  0  0  0  3  0  0  0  0  0  0
    2.4930   -0.3830   -3.1960 C   0  0  0  0  0  3  0  0  0  0  0  0
    1.9900    0.7400   -3.6550 N   0  0  0  0  0  0  0  0  0  0  0  0
    2.8000   -1.1840   -1.2500 H   0  0  0  0  0  0  0  0  0  0  0  0
   -1.4710   -3.2180    0.7450 N   0  0  0  0  0  0  0  0  0  0  0  0
   -0.9010   -3.8330    0.1750 H   0  0  0  0  0  0  0  0  0  0  0  0
   -2.5350   -2.8180   -0.0440 C   0  0  0  0  0  0  0  0  0  0  0  0
   -2.7430   -3.5510   -1.1460 N   0  0  0  0  0  0  0  0  0  0  0  0
   -3.2630   -1.7420    0.2880 N   0  0  0  0  0  0  0  0  0  0  0  0
   -3.7740   -3.1820   -1.9410 C   0  0  0  0  0  3  0  0  0  0  0  0
   -4.2830   -1.4130   -0.5370 C   0  0  0  0  0  3  0  0  0  0  0  0
   -4.5890   -2.1080   -1.6800 C   0  0  0  0  0  0  0  0  0  0  0  0
   -5.8820   -1.6680   -2.7040 Cl  0  0  0  0  0  0  0  0  0  0  0  0
  1  2  1  0  0  0  0
  3  2  1  0  0  0  0
  4 18  1  6  0  0  0
  4  3  1  0  0  0  0
  5  1  1  0  0  0  0
  5  4  1  0  0  0  0
  6  1  1  0  0  0  0
  6  7  2  0  0  0  0
  8  9  1  0  0  0  0
  8  6  1  0  0  0  0
 10  8  2  0  0  0  0
 11  9  2  0  0  0  0
 12 10  1  0  0  0  0
 12 17  1  0  0  0  0
 13 14  2  0  0  0  0
 13 10  1  0  0  0  0
 14 11  1  0  0  0  0
 15 12  1  0  0  0  0
 16 15  2  0  0  0  0
 16 13  1  0  0  0  0
 19 18  1  0  0  0  0
 20 22  1  0  0  0  0
 20 18  1  0  0  0  0
 21 20  2  0  0  0  0
 23 25  2  0  0  0  0
 23 21  1  0  0  0  0
 24 22  2  0  0  0  0
 25 24  1  0  0  0  0
 26 25  1  0  0  0  0
M  END
>  <REMARK>
 SMILES O=C(c1cccc2nc[nH]c12)N1CC[C@H](Nc2ncc(Cl)cn2)C1
 SMILES IDX 12 1 13 2 14 3 15 4 24 5 2 6 1 7 3 8 4 9 11 10 5 11 10 12
 SMILES IDX 7 13 6 14 9 15 8 16 16 18 17 20 18 21 23 22 19 23 22 24
 SMILES IDX 20 25 21 26
 H PARENT 10 17 16 19

>  <TORSDO>
F 4

$$$$
