/home/pchatterjee/Documents/git/vs_workflow/DiffDock/diffdock_run/pdbqt_scrubbed/Z3950664500.pdbqt
 OpenBabel10272516423D

 28 31  0  0  1  0  0  0  0  0999 V2000
    3.0100   -0.3230   -0.7240 C   0  0  0  0  0  0  0  0  0  0  0  0
    2.6700   -1.5840   -0.2390 C   0  0  0  0  0  3  0  0  0  0  0  0
    1.3470   -1.8680    0.1290 C   0  0  0  0  0  3  0  0  0  0  0  0
    0.3300   -0.9130   -0.0020 C   0  0  0  0  0  0  0  0  0  0  0  0
    0.6920    0.3590   -0.4530 C   0  0  0  0  0  3  0  0  0  0  0  0
    2.0110    0.6480   -0.8240 C   0  0  0  0  0  3  0  0  0  0  0  0
    4.3080    0.0430   -1.1140 N   0  0  0  0  0  0  0  0  0  0  0  0
    5.4470   -0.7110   -1.0940 C   0  0  0  0  0  0  0  0  0  0  0  0
    5.5780   -1.8680   -0.7270 O   0  0  0  0  0  0  0  0  0  0  0  0
    4.4540    0.9820   -1.4550 H   0  0  0  0  0  0  0  0  0  0  0  0
    6.4660    0.0630   -1.5590 O   0  0  0  0  0  0  0  0  0  0  0  0
    7.7580   -0.5610   -1.6060 C   0  0  0  0  0  2  0  0  0  0  0  0
    8.4550   -0.4240   -0.2650 C   0  0  0  0  0  1  0  0  0  0  0  0
   -0.9700   -1.2300    0.4470 N   0  0  0  0  0  0  0  0  0  0  0  0
   -1.0940   -2.2330    0.5370 H   0  0  0  0  0  0  0  0  0  0  0  0
   -2.2110   -0.6510    0.0620 C   0  0  1  0  0  3  0  0  0  0  0  0
   -2.2610    0.1460   -1.0200 N   0  0  0  0  0  0  0  0  0  0  0  0
   -3.3560   -0.9370    0.8260 C   0  0  0  0  0  0  0  0  0  0  0  0
   -3.4450    0.6680   -1.3800 C   0  0  0  0  0  0  0  0  0  0  0  0
   -3.3860   -1.7370    1.9990 C   0  0  0  0  0  3  0  0  0  0  0  0
   -4.5400   -0.3580    0.3610 C   0  0  0  0  0  0  0  0  0  0  0  0
   -4.5890    0.4240   -0.7190 N   0  0  0  0  0  2  0  0  0  0  0  0
   -4.5800   -1.9670    2.6790 C   0  0  0  0  0  3  0  0  0  0  0  0
   -5.7200   -0.6030    1.0550 C   0  0  0  0  0  3  0  0  0  0  0  0
   -5.7530   -1.4010    2.2020 C   0  0  0  0  0  3  0  0  0  0  0  0
   -3.4980    1.5610   -2.5950 C   0  0  0  0  0  3  0  0  0  0  0  0
   -2.5240    2.7080   -2.7450 C   0  0  0  0  0  2  0  0  0  0  0  0
   -3.9680    2.9920   -2.4600 C   0  0  0  0  0  2  0  0  0  0  0  0
  1  2  1  0  0  0  0
  2  3  2  0  0  0  0
  4  3  1  0  0  0  0
  4 14  1  0  0  0  0
  5  4  2  0  0  0  0
  6  1  2  0  0  0  0
  6  5  1  0  0  0  0
  7  8  1  0  0  0  0
  7  1  1  0  0  0  0
  8  9  2  0  0  0  0
 10  7  1  0  0  0  0
 11  8  1  0  0  0  0
 12 11  1  0  0  0  0
 12 13  1  0  0  0  0
 14 15  1  0  0  0  0
 16 14  1  6  0  0  0
 16 18  1  0  0  0  0
 17 16  1  0  0  0  0
 18 20  1  0  0  0  0
 19 17  2  0  0  0  0
 19 22  1  0  0  0  0
 20 23  2  0  0  0  0
 21 18  2  0  0  0  0
 21 24  1  0  0  0  0
 22 21  1  0  0  0  0
 24 25  2  0  0  0  0
 25 23  1  0  0  0  0
 26 28  1  0  0  0  0
 26 19  1  0  0  0  0
 27 26  1  0  0  0  0
 27 28  1  0  0  0  0
M  END
>  <REMARK>
 SMILES CCOC(=O)Nc1ccc(Nc2nc(C3CC3)nc3ccccc23)cc1
 SMILES IDX 7 1 8 2 9 3 10 4 25 5 26 6 6 7 4 8 5 9 3 11 2 12 1 13 11 14
 SMILES IDX 12 16 13 17 24 18 14 19 23 20 19 21 18 22 22 23 20 24 21 25
 SMILES IDX 15 26 16 27 17 28
 H PARENT 6 10 11 15

>  <TORSDO>
F 6

$$$$
