/home/pchatterjee/Documents/git/vs_workflow/DiffDock/diffdock_run/pdbqt_scrubbed/Z407410718.pdbqt
 OpenBabel10272516423D

 31 34  0  0  1  0  0  0  0  0999 V2000
   -2.7630    1.7870    0.1230 C   0  0  0  0  0  2  0  0  0  0  0  0
   -1.8180    1.0520   -0.8130 C   0  0  0  0  0  0  0  0  0  0  0  0
   -0.5550    1.5970   -0.8450 N   0  0  0  0  0  0  0  0  0  0  0  0
   -2.1670    0.0690   -1.4660 O   0  0  0  0  0  0  0  0  0  0  0  0
   -0.3710    2.4460   -0.3200 H   0  0  0  0  0  0  0  0  0  0  0  0
    0.5370    1.0560   -1.6580 C   0  0  1  0  0  3  0  0  0  0  0  0
    1.0840    2.1970   -2.5090 C   0  0  0  0  0  0  0  0  0  0  0  0
    0.8580    2.1920   -3.8990 C   0  0  0  0  0  3  0  0  0  0  0  0
    1.7870    3.2800   -1.9430 C   0  0  0  0  0  3  0  0  0  0  0  0
    1.3300    3.2320   -4.7040 C   0  0  0  0  0  3  0  0  0  0  0  0
    2.2560    4.3200   -2.7510 C   0  0  0  0  0  3  0  0  0  0  0  0
    2.0270    4.2950   -4.1300 C   0  0  0  0  0  3  0  0  0  0  0  0
    1.6130    0.3620   -0.7600 C   0  0  0  0  0  3  0  0  0  0  0  0
    1.0430   -0.8430    0.0240 C   0  0  0  0  0  2  0  0  0  0  0  0
    2.8580   -0.1080   -1.5490 C   0  0  0  0  0  2  0  0  0  0  0  0
    0.7550   -2.0570   -0.8650 C   0  0  0  0  0  2  0  0  0  0  0  0
    2.5630   -1.2950   -2.4670 C   0  0  0  0  0  2  0  0  0  0  0  0
    1.9840   -2.4670   -1.6790 C   0  0  0  0  0  2  0  0  0  0  0  0
   -3.8400    0.8540    0.6670 C   0  0  0  0  0  2  0  0  0  0  0  0
   -3.1950   -0.2390    1.4890 C   0  0  0  0  0  0  0  0  0  0  0  0
   -2.8430   -0.0140    2.7160 N   0  0  0  0  0  0  0  0  0  0  0  0
   -2.9770   -1.4270    0.8430 N   0  0  0  0  0  0  0  0  0  0  0  0
   -2.2080   -1.0550    3.4150 C   0  0  0  0  0  0  0  0  0  0  0  0
   -2.3490   -2.4970    1.4270 C   0  0  0  0  0  0  0  0  0  0  0  0
   -1.8250   -0.8420    4.7450 C   0  0  0  0  0  3  0  0  0  0  0  0
   -1.9280   -2.2960    2.8270 C   0  0  0  0  0  0  0  0  0  0  0  0
   -1.1830   -1.8500    5.4730 C   0  0  0  0  0  3  0  0  0  0  0  0
   -1.2810   -3.3100    3.5430 C   0  0  0  0  0  3  0  0  0  0  0  0
   -0.9090   -3.0820    4.8730 C   0  0  0  0  0  3  0  0  0  0  0  0
   -3.1370   -1.5030   -0.1580 H   0  0  0  0  0  0  0  0  0  0  0  0
   -2.1560   -3.5540    0.8320 O   0  0  0  0  0  0  0  0  0  0  0  0
  1 19  1  0  0  0  0
  2  1  1  0  0  0  0
  3  2  1  0  0  0  0
  3  5  1  0  0  0  0
  4  2  2  0  0  0  0
  6  3  1  1  0  0  0
  6 13  1  0  0  0  0
  7  9  1  0  0  0  0
  7  6  1  0  0  0  0
  8  7  2  0  0  0  0
 10 12  2  0  0  0  0
 10  8  1  0  0  0  0
 11  9  2  0  0  0  0
 12 11  1  0  0  0  0
 13 14  1  0  0  0  0
 15 13  1  0  0  0  0
 16 14  1  0  0  0  0
 17 18  1  0  0  0  0
 17 15  1  0  0  0  0
 18 16  1  0  0  0  0
 19 20  1  0  0  0  0
 20 21  2  0  0  0  0
 21 23  1  0  0  0  0
 22 24  1  0  0  0  0
 22 20  1  0  0  0  0
 23 25  1  0  0  0  0
 24 26  1  0  0  0  0
 25 27  2  0  0  0  0
 26 23  2  0  0  0  0
 26 28  1  0  0  0  0
 28 29  2  0  0  0  0
 29 27  1  0  0  0  0
 30 22  1  0  0  0  0
 31 24  2  0  0  0  0
M  END
>  <REMARK>
 SMILES O=C(CCc1nc2ccccc2c(=O)[nH]1)NC(c1ccccc1)C1CCCCC1
 SMILES IDX 3 1 2 2 16 3 1 4 17 6 18 7 19 8 23 9 20 10 22 11 21 12 24 13
 SMILES IDX 25 14 29 15 26 16 28 17 27 18 4 19 5 20 6 21 15 22 7 23
 SMILES IDX 13 24 8 25 12 26 9 27 11 28 10 29 14 31
 H PARENT 16 5 15 30

>  <TORSDO>
F 6

$$$$
