/home/pchatterjee/Documents/git/vs_workflow/DiffDock/diffdock_run/pdbqt_scrubbed/Z4122330572.pdbqt
 OpenBabel10272516423D

 30 33  0  0  1  0  0  0  0  0999 V2000
    1.6260    0.0230   -5.3690 C   0  0  0  0  0  3  0  0  0  0  0  0
    1.0200   -1.1560   -5.0090 C   0  0  0  0  0  3  0  0  0  0  0  0
    0.6910   -1.2860   -3.6790 C   0  0  0  0  0  0  0  0  0  0  0  0
    0.9440   -0.3100   -2.7960 N   0  0  0  0  0  0  0  0  0  0  0  0
    1.5380    0.8150   -3.2270 C   0  0  0  0  0  0  0  0  0  0  0  0
    1.8990    1.0110   -4.5000 N   0  0  0  0  0  0  0  0  0  0  0  0
    0.1230   -2.5020   -3.2350 N   0  0  0  0  0  0  0  0  0  0  0  0
   -0.6940   -2.6850   -3.8170 H   0  0  0  0  0  0  0  0  0  0  0  0
   -0.1430   -2.5650   -1.7940 C   0  0  0  0  0  3  0  0  0  0  0  0
    1.1790   -2.7100   -1.0080 C   0  0  0  0  0  2  0  0  0  0  0  0
   -1.0720   -3.7430   -1.4950 C   0  0  0  0  0  2  0  0  0  0  0  0
    1.0580   -3.5760    0.2310 C   0  0  0  0  0  2  0  0  0  0  0  0
   -1.4250   -3.8050   -0.0130 C   0  0  0  0  0  2  0  0  0  0  0  0
   -0.2810   -3.3710    0.8460 N   0  0  0  0  0  4  0  0  0  0  0  0
   -0.3230   -3.8700    1.7470 H   0  0  0  0  0  0  0  0  0  0  0  0
   -0.3800   -2.3740    1.0950 H   0  0  0  0  0  0  0  0  0  0  0  0
    1.8710    1.8280   -2.3330 N   0  0  0  0  0  0  0  0  0  0  0  0
    2.4180    2.5370   -2.8020 H   0  0  0  0  0  0  0  0  0  0  0  0
    1.5150    2.0620   -1.0010 C   0  0  0  0  0  0  0  0  0  0  0  0
    0.4150    1.4500   -0.3860 C   0  0  0  0  0  3  0  0  0  0  0  0
    2.3410    2.8740   -0.2090 C   0  0  0  0  0  3  0  0  0  0  0  0
    0.1340    1.6560    0.9670 C   0  0  0  0  0  3  0  0  0  0  0  0
    2.0700    3.0810    1.1480 C   0  0  0  0  0  3  0  0  0  0  0  0
    0.9540    2.4850    1.7240 C   0  0  0  0  0  0  0  0  0  0  0  0
    0.6700    2.6110    3.0540 O   0  0  0  0  0  0  0  0  0  0  0  0
    0.2960    3.9520    3.4220 C   0  0  2  0  0  3  0  0  0  0  0  0
    0.4030    4.0570    4.9280 C   0  0  0  0  0  2  0  0  0  0  0  0
   -1.1990    4.1790    3.2200 C   0  0  0  0  0  2  0  0  0  0  0  0
   -0.8810    3.3960    5.3880 C   0  0  0  0  0  2  0  0  0  0  0  0
   -1.8670    3.6330    4.3730 O   0  0  0  0  0  0  0  0  0  0  0  0
  1  2  1  0  0  0  0
  1  6  2  0  0  0  0
  2  3  2  0  0  0  0
  3  7  1  0  0  0  0
  3  4  1  0  0  0  0
  5  4  2  0  0  0  0
  5 17  1  0  0  0  0
  6  5  1  0  0  0  0
  7  9  1  0  0  0  0
  8  7  1  0  0  0  0
  9 11  1  0  0  0  0
  9 10  1  0  0  0  0
 10 12  1  0  0  0  0
 11 13  1  0  0  0  0
 12 14  1  0  0  0  0
 13 14  1  0  0  0  0
 14 16  1  0  0  0  0
 14 15  1  0  0  0  0
 17 19  1  0  0  0  0
 18 17  1  0  0  0  0
 19 20  2  0  0  0  0
 19 21  1  0  0  0  0
 20 22  1  0  0  0  0
 21 23  2  0  0  0  0
 22 24  2  0  0  0  0
 23 24  1  0  0  0  0
 24 25  1  0  0  0  0
 26 25  1  1  0  0  0
 26 27  1  0  0  0  0
 27 29  1  0  0  0  0
 28 26  1  0  0  0  0
 28 30  1  0  0  0  0
 30 29  1  0  0  0  0
M  END
>  <REMARK>
 SMILES c1cc(NC2CC[NH2+]CC2)nc(Nc2ccc(OC3CCOC3)cc2)n1
 SMILES IDX 1 1 2 2 3 3 11 4 12 5 26 6 4 7 5 9 6 10 10 11 7 12 9 13 8 14
 SMILES IDX 13 17 14 19 15 20 25 21 16 22 24 23 17 24 18 25 19 26 20 27
 SMILES IDX 23 28 21 29 22 30
 H PARENT 4 8 8 15 8 16 13 18

>  <TORSDO>
F 6

$$$$
