/home/pchatterjee/Documents/git/vs_workflow/DiffDock/diffdock_run/pdbqt_scrubbed/Z415073346.pdbqt
 OpenBabel10272516423D

 30 30  0  0  1  0  0  0  0  0999 V2000
    1.8950    0.4630    1.7940 C   0  0  0  0  0  2  0  0  0  0  0  0
    0.3920    0.7260    1.5260 C   0  0  2  0  0  3  0  0  0  0  0  0
   -0.3140    0.8900   -1.3480 N   0  0  0  0  0  4  0  0  0  0  0  0
    0.0700   -0.4410   -0.7440 C   0  0  0  0  0  2  0  0  0  0  0  0
    0.3930    2.0410   -0.7040 C   0  0  0  0  0  2  0  0  0  0  0  0
   -0.2550   -0.4330    0.7440 C   0  0  0  0  0  2  0  0  0  0  0  0
    0.1110    2.0550    0.8020 C   0  0  0  0  0  2  0  0  0  0  0  0
   -1.3380    0.9940   -1.1820 H   0  0  0  0  0  0  0  0  0  0  0  0
   -0.2810    0.8150   -2.9050 C   0  0  2  0  0  3  0  0  0  0  0  0
   -0.2360    2.1950   -3.5500 C   0  0  0  0  0  1  0  0  0  0  0  0
   -1.5580    0.0990   -3.3810 C   0  0  0  0  0  0  0  0  0  0  0  0
   -2.5700    0.0680   -2.5680 N   0  0  0  0  0  0  0  0  0  0  0  0
   -1.5610   -0.4570   -4.6250 N   0  0  0  0  0  0  0  0  0  0  0  0
   -3.7420   -0.5770   -3.0170 C   0  0  0  0  0  0  0  0  0  0  0  0
   -2.6450   -1.1250   -5.1420 C   0  0  0  0  0  0  0  0  0  0  0  0
   -4.8560   -0.6160   -2.1780 C   0  0  0  0  0  3  0  0  0  0  0  0
   -3.8320   -1.1840   -4.2760 C   0  0  0  0  0  0  0  0  0  0  0  0
   -6.0320   -1.2490   -2.5910 C   0  0  0  0  0  3  0  0  0  0  0  0
   -5.0010   -1.8200   -4.7000 C   0  0  0  0  0  3  0  0  0  0  0  0
   -6.1050   -1.8500   -3.8490 C   0  0  0  0  0  3  0  0  0  0  0  0
   -0.7730   -0.4210   -5.2600 H   0  0  0  0  0  0  0  0  0  0  0  0
   -2.5970   -1.6400   -6.2490 O   0  0  0  0  0  0  0  0  0  0  0  0
    2.4710    1.3420    2.8970 N   0  0  0  0  0  4  0  0  0  0  0  0
    2.2570    2.3100    2.6260 H   0  0  0  0  0  0  0  0  0  0  0  0
    3.9940    1.3450    2.9140 C   0  0  0  0  0  1  0  0  0  0  0  0
    4.6580    0.5040    3.9950 *   0  0  0  0  0  0  0  0  0  0  0  0
    1.8340    1.2350    4.2760 C   0  0  0  0  0  2  0  0  0  0  0  0
    1.6650   -0.1970    4.7690 C   0  0  0  0  0  2  0  0  0  0  0  0
    2.9410   -0.9010    5.2140 C   0  0  0  0  0  1  0  0  0  0  0  0
    4.0890   -0.8900    4.2100 *   0  0  0  0  0  0  0  0  0  0  0  0
  1 23  1  0  0  0  0
  2  1  1  6  0  0  0
  3  8  1  0  0  0  0
  3  4  1  0  0  0  0
  3  5  1  0  0  0  0
  4  6  1  0  0  0  0
  5  7  1  0  0  0  0
  6  2  1  0  0  0  0
  7  2  1  0  0  0  0
  9 10  1  6  0  0  0
  9  3  1  0  0  0  0
 11  9  1  0  0  0  0
 11 12  2  0  0  0  0
 13 11  1  0  0  0  0
 14 12  1  0  0  0  0
 14 16  1  0  0  0  0
 15 13  1  0  0  0  0
 15 17  1  0  0  0  0
 17 14  2  0  0  0  0
 18 16  2  0  0  0  0
 19 17  1  0  0  0  0
 19 20  2  0  0  0  0
 20 18  1  0  0  0  0
 21 13  1  0  0  0  0
 22 15  2  0  0  0  0
 23 25  1  0  0  0  0
 23 27  1  0  0  0  0
 24 23  1  0  0  0  0
 27 28  1  0  0  0  0
 28 29  1  0  0  0  0
M  END
>  <REMARK>
 SMILES CC(c1nc2ccccc2c(=O)[nH]1)[NH+]1CCC(C[NH+]2CCCCCC2)CC1
 SMILES IDX 18 1 17 2 14 3 15 4 27 5 16 6 26 7 2 9 1 10 3 11 4 12 13 13
 SMILES IDX 5 14 11 15 6 16 10 17 7 18 9 19 8 20 12 22 19 23 20 25 21 26
 SMILES IDX 25 28 24 29 23 30 22 31
 H PARENT 14 8 13 21 19 24
 Flexibility Score:   85.900

>  <TORSDO>
F 4

$$$$
