/home/pchatterjee/Documents/git/vs_workflow/DiffDock/diffdock_run/pdbqt_scrubbed/Z442860920.pdbqt
 OpenBabel10272516423D

 29 32  0  0  0  0  0  0  0  0999 V2000
   -0.6400    0.4200    3.0990 O   0  0  0  0  0  0  0  0  0  0  0  0
    0.2610   -0.2000    2.5230 C   0  0  0  0  0  0  0  0  0  0  0  0
    1.7260    0.0750    2.8710 C   0  0  0  0  0  2  0  0  0  0  0  0
    2.3840    0.7140    1.7860 O   0  0  0  0  0  0  0  0  0  0  0  0
    3.7290    1.0600    2.1100 C   0  0  0  0  0  2  0  0  0  0  0  0
    4.4050    1.7100    0.9420 C   0  0  0  0  0  3  0  0  0  0  0  0
    3.6690    2.6780    0.0500 C   0  0  0  0  0  2  0  0  0  0  0  0
    4.0870    1.3340   -0.4840 C   0  0  0  0  0  2  0  0  0  0  0  0
   -0.0300   -1.1550    1.5510 N   0  0  0  0  0  0  0  0  0  0  0  0
    0.9710   -1.6390    0.5920 C   0  0  0  0  0  2  0  0  0  0  0  0
    0.8040   -3.0960    0.2310 C   0  0  0  0  0  0  0  0  0  0  0  0
    0.4310   -3.4700   -1.0670 C   0  0  0  0  0  3  0  0  0  0  0  0
    1.0230   -4.0950    1.1910 C   0  0  0  0  0  3  0  0  0  0  0  0
    0.2830   -4.8180   -1.3980 C   0  0  0  0  0  3  0  0  0  0  0  0
    0.8720   -5.4420    0.8580 C   0  0  0  0  0  3  0  0  0  0  0  0
    0.5040   -5.8030   -0.4370 C   0  0  0  0  0  3  0  0  0  0  0  0
   -1.4430   -1.3040    1.1780 C   0  0  0  0  0  2  0  0  0  0  0  0
   -1.8230   -0.2480    0.1480 C   0  0  0  0  0  0  0  0  0  0  0  0
   -1.9810   -0.5600   -1.0990 N   0  0  0  0  0  0  0  0  0  0  0  0
   -1.9550    1.0300    0.6280 N   0  0  0  0  0  0  0  0  0  0  0  0
   -2.3120    0.4730   -1.9940 C   0  0  0  0  0  0  0  0  0  0  0  0
   -2.2220    2.1120   -0.1690 C   0  0  0  0  0  0  0  0  0  0  0  0
   -2.5130    0.1590   -3.3390 C   0  0  0  0  0  3  0  0  0  0  0  0
   -2.4390    1.8060   -1.5930 C   0  0  0  0  0  0  0  0  0  0  0  0
   -2.8340    1.1580   -4.2630 C   0  0  0  0  0  3  0  0  0  0  0  0
   -2.7570    2.8140   -2.5090 C   0  0  0  0  0  3  0  0  0  0  0  0
   -2.9550    2.4850   -3.8480 C   0  0  0  0  0  3  0  0  0  0  0  0
   -1.7520    1.2210    1.6070 H   0  0  0  0  0  0  0  0  0  0  0  0
   -2.2700    3.2570    0.2610 O   0  0  0  0  0  0  0  0  0  0  0  0
  2  3  1  0  0  0  0
  2  1  2  0  0  0  0
  4  5  1  0  0  0  0
  4  3  1  0  0  0  0
  6  5  1  0  0  0  0
  7  6  1  0  0  0  0
  8  7  1  0  0  0  0
  8  6  1  0  0  0  0
  9  2  1  0  0  0  0
 10  9  1  0  0  0  0
 11 10  1  0  0  0  0
 11 13  1  0  0  0  0
 12 11  2  0  0  0  0
 14 12  1  0  0  0  0
 14 16  2  0  0  0  0
 15 13  2  0  0  0  0
 16 15  1  0  0  0  0
 17  9  1  0  0  0  0
 18 20  1  0  0  0  0
 18 17  1  0  0  0  0
 19 18  2  0  0  0  0
 20 28  1  0  0  0  0
 21 24  1  0  0  0  0
 21 19  1  0  0  0  0
 22 29  2  0  0  0  0
 22 20  1  0  0  0  0
 23 21  2  0  0  0  0
 24 22  1  0  0  0  0
 25 27  2  0  0  0  0
 25 23  1  0  0  0  0
 26 24  2  0  0  0  0
 27 26  1  0  0  0  0
M  END
>  <REMARK>
 SMILES O=C(COCC1CC1)N(Cc1ccccc1)Cc1nc2ccccc2c(=O)[nH]1
 SMILES IDX 1 1 2 2 3 3 4 4 5 5 6 6 7 7 8 8 9 9 10 10 11 11 12 12 16 13
 SMILES IDX 13 14 15 15 14 16 17 17 18 18 19 19 28 20 20 21 26 22 21 23
 SMILES IDX 25 24 22 25 24 26 23 27 27 29
 H PARENT 28 28

>  <TORSDO>
F 9

$$$$
