/home/pchatterjee/Documents/git/vs_workflow/DiffDock/diffdock_run/pdbqt_scrubbed/Z442313918.pdbqt
 OpenBabel10272516423D

 26 28  0  0  0  0  0  0  0  0999 V2000
   -0.8610    1.9110    0.3230 C   0  0  0  0  0  0  0  0  0  0  0  0
   -0.6210    0.5740    0.5490 N   0  0  0  0  0  0  0  0  0  0  0  0
   -1.4340   -0.1150    1.2830 C   0  0  0  0  0  0  0  0  0  0  0  0
   -1.3110   -1.4460    1.5840 N   0  0  0  0  0  0  0  0  0  0  0  0
   -2.5380    0.4890    1.8250 N   0  0  0  0  0  0  0  0  0  0  0  0
   -2.8540    1.8040    1.6370 C   0  0  0  0  0  0  0  0  0  0  0  0
   -3.8620    2.2850    2.1460 O   0  0  0  0  0  0  0  0  0  0  0  0
   -1.9250    2.5820    0.8000 C   0  0  0  0  0  0  0  0  0  0  0  0
   -2.0400   -1.8610    2.1440 H   0  0  0  0  0  0  0  0  0  0  0  0
   -3.1830   -0.0270    2.4010 H   0  0  0  0  0  0  0  0  0  0  0  0
    0.1430    2.5800   -0.5380 C   0  0  0  0  0  0  0  0  0  0  0  0
    2.0550    3.8000   -2.2100 C   0  0  0  0  0  0  0  0  0  0  0  0
    1.9170    4.1980   -0.8780 C   0  0  0  0  0  3  0  0  0  0  0  0
    1.2420    2.7800   -2.7020 C   0  0  0  0  0  3  0  0  0  0  0  0
    0.9730    3.5930   -0.0430 C   0  0  0  0  0  3  0  0  0  0  0  0
    0.2950    2.1710   -1.8700 C   0  0  0  0  0  3  0  0  0  0  0  0
    3.0160    4.4740   -2.9110 O   0  0  0  0  0  0  0  0  0  0  0  0
    3.1680    4.1320   -4.2830 C   0  0  0  0  0  1  0  0  0  0  0  0
   -2.2110    3.9470    0.5430 C   0  0  0  0  0  0  0  0  0  0  0  0
   -2.4250    5.0680    0.3280 N   0  0  0  0  0  0  0  0  0  0  0  0
   -0.2890   -2.3580    1.2510 C   0  0  0  0  0  0  0  0  0  0  0  0
    0.8930   -2.0140    0.5870 C   0  0  0  0  0  3  0  0  0  0  0  0
   -0.4730   -3.7120    1.5860 C   0  0  0  0  0  3  0  0  0  0  0  0
    1.8590   -2.9780    0.2760 C   0  0  0  0  0  3  0  0  0  0  0  0
    0.4890   -4.6790    1.2770 C   0  0  0  0  0  3  0  0  0  0  0  0
    1.6580   -4.3100    0.6210 C   0  0  0  0  0  3  0  0  0  0  0  0
  1  2  1  0  0  0  0
  1  8  2  0  0  0  0
  2  3  2  0  0  0  0
  3  4  1  0  0  0  0
  3  5  1  0  0  0  0
  4  9  1  0  0  0  0
  5 10  1  0  0  0  0
  6  5  1  0  0  0  0
  6  7  2  0  0  0  0
  8  6  1  0  0  0  0
 11 15  1  0  0  0  0
 11  1  1  0  0  0  0
 12 13  1  0  0  0  0
 13 15  2  0  0  0  0
 14 12  2  0  0  0  0
 14 16  1  0  0  0  0
 16 11  2  0  0  0  0
 17 12  1  0  0  0  0
 18 17  1  0  0  0  0
 19  8  1  0  0  0  0
 20 19  3  0  0  0  0
 21  4  1  0  0  0  0
 21 23  1  0  0  0  0
 22 21  2  0  0  0  0
 24 22  1  0  0  0  0
 24 26  2  0  0  0  0
 25 23  2  0  0  0  0
 26 25  1  0  0  0  0
M  END
>  <REMARK>
 SMILES COc1ccc(-c2nc(Nc3ccccc3)[nH]c(=O)c2C#N)cc1
 SMILES IDX 7 1 8 2 9 3 10 4 17 5 18 6 19 7 20 8 6 11 3 12 4 13 24 14
 SMILES IDX 5 15 23 16 2 17 1 18 21 19 22 20 11 21 12 22 16 23 13 24
 SMILES IDX 15 25 14 26
 H PARENT 10 9 17 10

>  <TORSDO>
F 4

$$$$
