/home/pchatterjee/Documents/git/vs_workflow/DiffDock/diffdock_run/pdbqt_scrubbed/Z4464308327.pdbqt
 OpenBabel10272516423D

 29 32  0  0  1  0  0  0  0  0999 V2000
   -2.5480   -0.8680    0.3950 N   0  0  0  0  0  0  0  0  0  0  0  0
   -3.6650   -0.8860    1.2940 C   0  0  0  0  0  2  0  0  0  0  0  0
   -2.6470   -0.5940    2.3990 C   0  0  1  0  0  3  0  0  0  0  0  0
   -1.7750   -0.0380    1.2710 C   0  0  0  0  0  2  0  0  0  0  0  0
   -2.6430   -0.6890   -0.9900 C   0  0  0  0  0  0  0  0  0  0  0  0
   -1.6830    0.0650   -2.9590 C   0  0  0  0  0  0  0  0  0  0  0  0
   -2.7960   -0.3530   -3.6620 C   0  0  0  0  0  3  0  0  0  0  0  0
   -1.6070   -0.1180   -1.6290 N   0  0  0  0  0  0  0  0  0  0  0  0
   -3.8060   -0.9330   -2.9370 C   0  0  0  0  0  3  0  0  0  0  0  0
   -3.7580   -1.1060   -1.6090 N   0  0  0  0  0  0  0  0  0  0  0  0
   -0.6050    0.6620   -3.6460 N   0  0  0  0  0  0  0  0  0  0  0  0
    1.8300    1.1020   -3.7450 C   0  0  0  0  0  0  0  0  0  0  0  0
    1.4540    1.9590   -4.9820 C   0  0  0  0  0  2  0  0  0  0  0  0
    0.6010    0.8460   -2.8290 C   0  0  0  0  0  2  0  0  0  0  0  0
    0.1770    2.7550   -4.7420 C   0  0  0  0  0  2  0  0  0  0  0  0
   -1.0030    1.8200   -4.4640 C   0  0  0  0  0  2  0  0  0  0  0  0
    2.4170   -0.2380   -4.2260 C   0  0  0  0  0  1  0  0  0  0  0  0
    2.9070    1.8300   -2.9180 C   0  0  0  0  0  1  0  0  0  0  0  0
   -3.1800    0.5850    3.6030 S   0  0  0  0  0  0  0  0  0  0  0  0
   -4.0720   -0.0620    4.5460 O   0  0  0  0  0  0  0  0  0  0  0  0
   -3.6240    1.8040    2.9550 O   0  0  0  0  0  0  0  0  0  0  0  0
   -1.8000    1.0660    4.4970 N   0  0  0  0  0  0  0  0  0  0  0  0
   -2.0990    1.8240    5.1170 H   0  0  0  0  0  0  0  0  0  0  0  0
   -1.1120    0.0260    5.1950 C   0  0  0  0  0  0  0  0  0  0  0  0
   -1.6020   -0.4750    6.4000 C   0  0  0  0  0  3  0  0  0  0  0  0
    0.0380   -0.5170    4.6230 C   0  0  0  0  0  3  0  0  0  0  0  0
   -0.9320   -1.5200    7.0390 C   0  0  0  0  0  3  0  0  0  0  0  0
    0.7070   -1.5600    5.2640 C   0  0  0  0  0  3  0  0  0  0  0  0
    0.2210   -2.0610    6.4710 C   0  0  0  0  0  3  0  0  0  0  0  0
  1  4  1  0  0  0  0
  1  2  1  0  0  0  0
  2  3  1  0  0  0  0
  3 19  1  1  0  0  0
  4  3  1  0  0  0  0
  5  1  1  0  0  0  0
  6  8  1  0  0  0  0
  7  6  2  0  0  0  0
  7  9  1  0  0  0  0
  8  5  2  0  0  0  0
  9 10  2  0  0  0  0
 10  5  1  0  0  0  0
 11  6  1  0  0  0  0
 11 14  1  0  0  0  0
 12 18  1  0  0  0  0
 12 14  1  0  0  0  0
 13 15  1  0  0  0  0
 13 12  1  0  0  0  0
 15 16  1  0  0  0  0
 16 11  1  0  0  0  0
 17 12  1  0  0  0  0
 19 22  1  0  0  0  0
 19 20  2  0  0  0  0
 21 19  2  0  0  0  0
 22 23  1  0  0  0  0
 22 24  1  0  0  0  0
 24 25  1  0  0  0  0
 25 27  2  0  0  0  0
 26 24  2  0  0  0  0
 26 28  1  0  0  0  0
 28 29  2  0  0  0  0
 29 27  1  0  0  0  0
M  END
>  <REMARK>
 SMILES CC1(C)CCCN(c2ccnc(N3CC(S(=O)(=O)Nc4ccccc4)C3)n2)C1
 SMILES IDX 13 1 14 2 15 3 26 4 12 5 8 6 9 7 27 8 10 9 11 10 7 11 2 12
 SMILES IDX 4 13 28 14 5 15 6 16 1 17 3 18 16 19 17 20 18 21 19 22 20 24
 SMILES IDX 21 25 25 26 22 27 24 28 23 29
 H PARENT 19 23

>  <TORSDO>
F 5

$$$$
