/home/pchatterjee/Documents/git/vs_workflow/DiffDock/diffdock_run/pdbqt_scrubbed/Z4521998795.pdbqt
 OpenBabel10272516423D

 26 29  0  0  1  0  0  0  0  0999 V2000
    1.6170    1.5030   -0.5120 C   0  0  0  0  0  0  0  0  0  0  0  0
    1.5680    2.0990   -1.5810 O   0  0  0  0  0  0  0  0  0  0  0  0
    0.7370    0.5340   -0.0990 N   0  0  0  0  0  0  0  0  0  0  0  0
    0.8620    0.2260    0.8540 H   0  0  0  0  0  0  0  0  0  0  0  0
    2.7240    1.8840    0.4210 C   0  0  1  0  0  3  0  0  0  0  0  0
    2.4190    2.6590    1.6880 C   0  0  2  0  0  3  0  0  0  0  0  0
    3.1380    1.3280    1.7710 C   0  0  1  0  0  3  0  0  0  0  0  0
    1.0230    2.9040    2.1520 C   0  0  0  0  0  1  0  0  0  0  0  0
    2.5800    0.0670    2.3760 C   0  0  0  0  0  0  0  0  0  0  0  0
    2.7740   -1.1750    1.7430 C   0  0  0  0  0  3  0  0  0  0  0  0
    1.9050    0.0590    3.6070 C   0  0  0  0  0  3  0  0  0  0  0  0
    2.2670   -2.3590    2.2830 C   0  0  0  0  0  3  0  0  0  0  0  0
    1.3970   -1.1230    4.1540 C   0  0  0  0  0  3  0  0  0  0  0  0
    1.5710   -2.3310    3.4870 C   0  0  0  0  0  3  0  0  0  0  0  0
   -0.3710   -0.0600   -0.7560 C   0  0  0  0  0  0  0  0  0  0  0  0
   -1.1120   -0.9450    0.0570 C   0  0  0  0  0  3  0  0  0  0  0  0
   -0.7810    0.1310   -2.0910 C   0  0  0  0  0  0  0  0  0  0  0  0
   -2.2320   -1.6240   -0.4240 C   0  0  0  0  0  3  0  0  0  0  0  0
   -0.0960    0.9140   -3.0240 N   0  0  0  0  0  0  0  0  0  0  0  0
   -1.9080   -0.5740   -2.5640 C   0  0  0  0  0  0  0  0  0  0  0  0
   -2.6330   -1.4400   -1.7390 C   0  0  0  0  0  3  0  0  0  0  0  0
   -0.5990    1.0800   -4.2730 C   0  0  0  0  0  3  0  0  0  0  0  0
   -2.3190   -0.3840   -3.9880 C   0  0  0  0  0  0  0  0  0  0  0  0
   -1.6280    0.5010   -4.7860 N   0  0  0  0  0  0  0  0  0  0  0  0
    0.6170    1.5540   -2.6700 H   0  0  0  0  0  0  0  0  0  0  0  0
   -3.2790   -1.0260   -4.4040 O   0  0  0  0  0  0  0  0  0  0  0  0
  1  3  1  0  0  0  0
  2  1  2  0  0  0  0
  3  4  1  0  0  0  0
  5  1  1  1  0  0  0
  5  6  1  0  0  0  0
  5  7  1  0  0  0  0
  6  7  1  0  0  0  0
  6  8  1  1  0  0  0
  7  9  1  1  0  0  0
  9 11  1  0  0  0  0
 10 12  1  0  0  0  0
 10  9  2  0  0  0  0
 11 13  2  0  0  0  0
 12 14  2  0  0  0  0
 14 13  1  0  0  0  0
 15  3  1  0  0  0  0
 15 16  1  0  0  0  0
 17 15  2  0  0  0  0
 18 16  2  0  0  0  0
 19 25  1  0  0  0  0
 19 17  1  0  0  0  0
 20 17  1  0  0  0  0
 20 21  2  0  0  0  0
 21 18  1  0  0  0  0
 22 19  1  0  0  0  0
 23 20  1  0  0  0  0
 24 22  2  0  0  0  0
 24 23  1  0  0  0  0
 26 23  2  0  0  0  0
M  END
>  <REMARK>
 SMILES CC1C(C(=O)Nc2cccc3c(=O)nc[nH]c23)C1c1ccccc1
 SMILES IDX 4 1 5 2 6 3 3 5 2 6 18 7 1 8 19 9 20 10 24 11 21 12 23 13
 SMILES IDX 22 14 7 15 8 16 17 17 9 18 16 19 11 20 10 21 15 22 12 23
 SMILES IDX 14 24 13 26
 H PARENT 6 4 16 25

>  <TORSDO>
F 3

$$$$
