/home/pchatterjee/Documents/git/vs_workflow/DiffDock/diffdock_run/pdbqt_scrubbed/Z46401918.pdbqt
 OpenBabel10272516423D

 28 31  0  0  1  0  0  0  0  0999 V2000
    0.5080    2.9520    2.2120 C   0  0  0  0  0  0  0  0  0  0  0  0
    0.9070    3.7960    3.2300 C   0  0  0  0  0  3  0  0  0  0  0  0
   -0.4160    4.7480    3.7550 S   0  0  0  0  0  0  0  0  0  0  0  0
   -1.4520    3.9440    2.6330 C   0  0  0  0  0  0  0  0  0  0  0  0
   -0.8310    3.0620    1.8750 N   0  0  0  0  0  0  0  0  0  0  0  0
    1.3640    1.9850    1.4490 C   0  0  0  0  0  2  0  0  0  0  0  0
    0.8830    1.7420    0.0280 N   0  0  0  0  0  4  0  0  0  0  0  0
    0.6070   -2.3950   -1.0220 C   0  0  0  0  0  0  0  0  0  0  0  0
    0.7670   -1.0150   -0.9120 N   0  0  0  0  0  0  0  0  0  0  0  0
   -0.4090   -0.1570   -1.0780 C   0  0  0  0  0  2  0  0  0  0  0  0
    2.0630   -0.3400   -0.7850 C   0  0  0  0  0  2  0  0  0  0  0  0
   -0.4380    0.9610   -0.0290 C   0  0  0  0  0  2  0  0  0  0  0  0
    1.9580    1.1910   -0.8850 C   0  0  0  0  0  2  0  0  0  0  0  0
   -0.5050   -2.8710   -1.2570 O   0  0  0  0  0  0  0  0  0  0  0  0
    0.6350    2.6790   -0.3130 H   0  0  0  0  0  0  0  0  0  0  0  0
    1.8420   -3.2930   -0.7520 C   0  0  1  0  0  3  0  0  0  0  0  0
    1.5380   -4.7770   -0.9330 C   0  0  0  0  0  2  0  0  0  0  0  0
    2.9390   -2.9980   -1.6310 O   0  0  0  0  0  0  0  0  0  0  0  0
    1.9230   -5.0050   -2.3710 C   0  0  0  0  0  2  0  0  0  0  0  0
    3.1460   -4.1210   -2.5010 C   0  0  0  0  0  2  0  0  0  0  0  0
   -2.7600    4.2840    2.5730 N   0  0  0  0  0  0  0  0  0  0  0  0
   -3.0670    5.0580    3.1550 H   0  0  0  0  0  0  0  0  0  0  0  0
   -3.8300    3.5410    2.0360 C   0  0  0  0  0  0  0  0  0  0  0  0
   -3.7370    2.1880    1.6860 C   0  0  0  0  0  3  0  0  0  0  0  0
   -5.0400    4.2040    1.7720 C   0  0  0  0  0  3  0  0  0  0  0  0
   -4.8220    1.5090    1.1240 C   0  0  0  0  0  3  0  0  0  0  0  0
   -6.1270    3.5290    1.2100 C   0  0  0  0  0  3  0  0  0  0  0  0
   -6.0190    2.1790    0.8920 C   0  0  0  0  0  3  0  0  0  0  0  0
  1  2  2  0  0  0  0
  2  3  1  0  0  0  0
  4  3  1  0  0  0  0
  5  1  1  0  0  0  0
  5  4  2  0  0  0  0
  6  1  1  0  0  0  0
  7  6  1  0  0  0  0
  8  9  1  0  0  0  0
  9 11  1  0  0  0  0
 10  9  1  0  0  0  0
 10 12  1  0  0  0  0
 12  7  1  0  0  0  0
 13 11  1  0  0  0  0
 13  7  1  0  0  0  0
 14  8  2  0  0  0  0
 15  7  1  0  0  0  0
 16  8  1  6  0  0  0
 17 16  1  0  0  0  0
 18 16  1  0  0  0  0
 19 17  1  0  0  0  0
 20 19  1  0  0  0  0
 20 18  1  0  0  0  0
 21  4  1  0  0  0  0
 21 22  1  0  0  0  0
 23 21  1  0  0  0  0
 24 23  2  0  0  0  0
 25 23  1  0  0  0  0
 26 24  1  0  0  0  0
 27 25  2  0  0  0  0
 28 26  2  0  0  0  0
 28 27  1  0  0  0  0
M  END
>  <REMARK>
 SMILES O=C(C1CCCO1)N1CC[NH+](Cc2csc(Nc3ccccc3)n2)CC1
 SMILES IDX 13 1 14 2 15 3 16 4 24 5 12 6 11 7 2 8 8 9 9 10 26 11 10 12
 SMILES IDX 25 13 1 14 3 16 4 17 7 18 5 19 6 20 17 21 18 23 19 24 23 25
 SMILES IDX 20 26 22 27 21 28
 H PARENT 11 15 17 22

>  <TORSDO>
F 5

$$$$
