/home/pchatterjee/Documents/git/vs_workflow/DiffDock/diffdock_run/pdbqt_scrubbed/Z48858335.pdbqt
 OpenBabel10272516423D

 24 26  0  0  0  0  0  0  0  0999 V2000
   -2.1400   -1.0700    1.5340 C   0  0  0  0  0  1  0  0  0  0  0  0
   -1.1820   -0.3320    0.6670 C   0  0  0  0  0  0  0  0  0  0  0  0
   -1.7030    0.4830   -0.3260 N   0  0  0  0  0  0  0  0  0  0  0  0
   -0.7550    1.0650   -1.0110 C   0  0  0  0  0  0  0  0  0  0  0  0
    0.8370    0.6660   -0.4910 S   0  0  0  0  0  0  0  0  0  0  0  0
    0.2020   -0.3580    0.7320 C   0  0  0  0  0  0  0  0  0  0  0  0
    1.0490   -1.1070    1.6550 C   0  0  0  0  0  0  0  0  0  0  0  0
    2.4090   -0.8970    1.4870 N   0  0  0  0  0  0  0  0  0  0  0  0
    0.5680   -1.8540    2.5010 O   0  0  0  0  0  0  0  0  0  0  0  0
    2.6600   -0.2480    0.7520 H   0  0  0  0  0  0  0  0  0  0  0  0
    3.4800   -1.4640    2.2060 C   0  0  0  0  0  0  0  0  0  0  0  0
    4.7740   -1.0730    1.8320 C   0  0  0  0  0  3  0  0  0  0  0  0
    3.3310   -2.3760    3.2510 C   0  0  0  0  0  3  0  0  0  0  0  0
    5.8940   -1.5850    2.4900 C   0  0  0  0  0  3  0  0  0  0  0  0
    4.4530   -2.8890    3.9110 C   0  0  0  0  0  3  0  0  0  0  0  0
    5.7330   -2.4950    3.5310 C   0  0  0  0  0  3  0  0  0  0  0  0
   -0.9110    1.9210   -2.0420 N   0  0  0  0  0  0  0  0  0  0  0  0
   -0.0720    2.1340   -2.5700 H   0  0  0  0  0  0  0  0  0  0  0  0
   -2.1500    2.1130   -2.7900 C   0  0  0  0  0  3  0  0  0  0  0  0
   -2.5520    0.8850   -3.6160 C   0  0  0  0  0  2  0  0  0  0  0  0
   -3.2800    2.7610   -1.9790 C   0  0  0  0  0  2  0  0  0  0  0  0
   -3.5650   -0.0360   -2.9450 C   0  0  0  0  0  2  0  0  0  0  0  0
   -4.3250    1.8070   -1.4050 C   0  0  0  0  0  2  0  0  0  0  0  0
   -4.7570    0.7410   -2.4020 C   0  0  0  0  0  2  0  0  0  0  0  0
  2  6  2  0  0  0  0
  2  1  1  0  0  0  0
  3  2  1  0  0  0  0
  4  5  1  0  0  0  0
  4  3  2  0  0  0  0
  5  6  1  0  0  0  0
  6  7  1  0  0  0  0
  7  9  2  0  0  0  0
  8  7  1  0  0  0  0
  8 11  1  0  0  0  0
 10  8  1  0  0  0  0
 11 13  1  0  0  0  0
 12 11  2  0  0  0  0
 12 14  1  0  0  0  0
 13 15  2  0  0  0  0
 14 16  2  0  0  0  0
 16 15  1  0  0  0  0
 17  4  1  0  0  0  0
 18 17  1  0  0  0  0
 19 17  1  0  0  0  0
 19 21  1  0  0  0  0
 20 22  1  0  0  0  0
 20 19  1  0  0  0  0
 21 23  1  0  0  0  0
 22 24  1  0  0  0  0
 24 23  1  0  0  0  0
M  END
>  <REMARK>
 SMILES Cc1nc(NC2CCCCC2)sc1C(=O)Nc1ccccc1
 SMILES IDX 1 1 2 2 3 3 4 4 12 5 13 6 14 7 16 8 15 9 17 11 18 12 22 13
 SMILES IDX 19 14 21 15 20 16 5 17 6 19 7 20 11 21 8 22 10 23 9 24
 H PARENT 16 10 5 18

>  <TORSDO>
F 4

$$$$
