/home/pchatterjee/Documents/git/vs_workflow/DiffDock/diffdock_run/pdbqt_scrubbed/Z48861625.pdbqt
 OpenBabel10272516423D

 27 29  0  0  0  0  0  0  0  0999 V2000
   -0.0870    4.0370   -2.6850 C   0  0  0  0  0  0  0  0  0  0  0  0
   -1.4090    3.8830   -3.1020 C   0  0  0  0  0  3  0  0  0  0  0  0
   -2.2560    2.9700   -2.4670 C   0  0  0  0  0  3  0  0  0  0  0  0
   -1.8040    2.1840   -1.3990 C   0  0  0  0  0  0  0  0  0  0  0  0
   -0.4740    2.3400   -0.9950 C   0  0  0  0  0  3  0  0  0  0  0  0
    0.3780    3.2580   -1.6290 C   0  0  0  0  0  3  0  0  0  0  0  0
    0.6280    4.9590   -3.3940 O   0  0  0  0  0  0  0  0  0  0  0  0
    1.9450    5.2930   -2.9590 C   0  0  0  0  0  2  0  0  0  0  0  0
    2.9740    4.3790   -3.6010 C   0  0  0  0  0  1  0  0  0  0  0  0
   -2.7020    1.2630   -0.8270 N   0  0  0  0  0  0  0  0  0  0  0  0
   -3.6200    1.6680   -0.6750 H   0  0  0  0  0  0  0  0  0  0  0  0
   -2.4590    0.1690   -0.0700 C   0  0  0  0  0  0  0  0  0  0  0  0
   -3.3100   -0.2220    0.8510 N   0  0  0  0  0  0  0  0  0  0  0  0
   -1.1310   -0.9060   -0.2930 S   0  0  0  0  0  0  0  0  0  0  0  0
   -2.8850   -1.3900    1.4680 C   0  0  0  0  0  0  0  0  0  0  0  0
   -1.7020   -1.9150    0.9720 C   0  0  0  0  0  0  0  0  0  0  0  0
   -3.7260   -1.9480    2.5620 C   0  0  0  0  0  1  0  0  0  0  0  0
   -0.9990   -3.1210    1.3970 C   0  0  0  0  0  0  0  0  0  0  0  0
    0.1350   -3.4170    0.6570 N   0  0  0  0  0  0  0  0  0  0  0  0
   -1.4050   -3.7990    2.3360 O   0  0  0  0  0  0  0  0  0  0  0  0
    0.3420   -2.7740   -0.0970 H   0  0  0  0  0  0  0  0  0  0  0  0
    1.0280   -4.4960    0.8130 C   0  0  0  0  0  0  0  0  0  0  0  0
    0.9080   -5.4810    1.7950 C   0  0  0  0  0  3  0  0  0  0  0  0
    2.1020   -4.5660   -0.0860 C   0  0  0  0  0  3  0  0  0  0  0  0
    1.8440   -6.5180    1.8760 C   0  0  0  0  0  3  0  0  0  0  0  0
    3.0360   -5.6020   -0.0040 C   0  0  0  0  0  3  0  0  0  0  0  0
    2.9070   -6.5790    0.9790 C   0  0  0  0  0  3  0  0  0  0  0  0
  1  6  1  0  0  0  0
  2  1  2  0  0  0  0
  2  3  1  0  0  0  0
  3  4  2  0  0  0  0
  4  5  1  0  0  0  0
  4 10  1  0  0  0  0
  6  5  2  0  0  0  0
  7  8  1  0  0  0  0
  7  1  1  0  0  0  0
  9  8  1  0  0  0  0
 10 11  1  0  0  0  0
 10 12  1  0  0  0  0
 12 13  2  0  0  0  0
 13 15  1  0  0  0  0
 14 12  1  0  0  0  0
 14 16  1  0  0  0  0
 15 17  1  0  0  0  0
 16 18  1  0  0  0  0
 16 15  2  0  0  0  0
 18 20  2  0  0  0  0
 19 22  1  0  0  0  0
 19 18  1  0  0  0  0
 21 19  1  0  0  0  0
 22 23  1  0  0  0  0
 23 25  2  0  0  0  0
 24 26  1  0  0  0  0
 24 22  2  0  0  0  0
 26 27  2  0  0  0  0
 27 25  1  0  0  0  0
M  END
>  <REMARK>
 SMILES CCOc1ccc(Nc2nc(C)c(C(=O)Nc3ccccc3)s2)cc1
 SMILES IDX 4 1 5 2 6 3 7 4 24 5 25 6 3 7 2 8 1 9 8 10 9 12 10 13 23 14
 SMILES IDX 11 15 13 16 12 17 14 18 16 19 15 20 17 22 18 23 22 24 19 25
 SMILES IDX 21 26 20 27
 H PARENT 8 11 16 21

>  <TORSDO>
F 6

$$$$
