/home/pchatterjee/Documents/git/vs_workflow/DiffDock/diffdock_run/pdbqt_scrubbed/Z48852930.pdbqt
 OpenBabel10272516423D

 24 26  0  0  1  0  0  0  0  0999 V2000
    0.8230   -2.0090   -1.0560 C   0  0  0  0  0  1  0  0  0  0  0  0
    0.0850   -0.9510   -0.3150 C   0  0  0  0  0  0  0  0  0  0  0  0
   -0.7970   -1.3580    0.6740 N   0  0  0  0  0  0  0  0  0  0  0  0
   -1.3250   -0.3260    1.2890 C   0  0  0  0  0  0  0  0  0  0  0  0
   -0.8020    1.2000    0.6950 S   0  0  0  0  0  0  0  0  0  0  0  0
    0.1770    0.4210   -0.4750 C   0  0  0  0  0  0  0  0  0  0  0  0
    0.9480    1.2220   -1.4090 C   0  0  0  0  0  0  0  0  0  0  0  0
    0.9140    0.7270   -2.7040 N   0  0  0  0  0  0  0  0  0  0  0  0
    1.5370    2.2410   -1.0650 O   0  0  0  0  0  0  0  0  0  0  0  0
    0.2730   -0.0360   -2.8750 H   0  0  0  0  0  0  0  0  0  0  0  0
    1.5900    1.2200   -3.8390 C   0  0  0  0  0  0  0  0  0  0  0  0
    1.3210    0.5920   -5.0630 C   0  0  0  0  0  3  0  0  0  0  0  0
    2.5090    2.2700   -3.8100 C   0  0  0  0  0  3  0  0  0  0  0  0
    1.9540    1.0120   -6.2360 C   0  0  0  0  0  3  0  0  0  0  0  0
    3.1430    2.6910   -4.9850 C   0  0  0  0  0  3  0  0  0  0  0  0
    2.8650    2.0630   -6.1970 C   0  0  0  0  0  3  0  0  0  0  0  0
   -2.2200   -0.5050    2.2890 N   0  0  0  0  0  0  0  0  0  0  0  0
   -2.3270   -1.4800    2.5520 H   0  0  0  0  0  0  0  0  0  0  0  0
   -2.3340    0.4260    3.4040 C   0  0  0  0  0  2  0  0  0  0  0  0
   -1.1330    0.3750    4.3590 C   0  0  2  0  0  3  0  0  0  0  0  0
   -0.8920   -0.9910    4.9850 C   0  0  0  0  0  2  0  0  0  0  0  0
   -1.3420    1.2770    5.4660 O   0  0  0  0  0  0  0  0  0  0  0  0
   -0.1420   -0.6180    6.2400 C   0  0  0  0  0  2  0  0  0  0  0  0
   -0.8440    0.6550    6.6600 C   0  0  0  0  0  2  0  0  0  0  0  0
  1  2  1  0  0  0  0
  2  3  1  0  0  0  0
  3  4  2  0  0  0  0
  4 17  1  0  0  0  0
  5  4  1  0  0  0  0
  6  2  2  0  0  0  0
  6  5  1  0  0  0  0
  7  9  2  0  0  0  0
  7  6  1  0  0  0  0
  8  7  1  0  0  0  0
 10  8  1  0  0  0  0
 11 13  1  0  0  0  0
 11  8  1  0  0  0  0
 12 11  2  0  0  0  0
 14 16  2  0  0  0  0
 14 12  1  0  0  0  0
 15 13  2  0  0  0  0
 16 15  1  0  0  0  0
 17 18  1  0  0  0  0
 17 19  1  0  0  0  0
 20 19  1  6  0  0  0
 20 21  1  0  0  0  0
 20 22  1  0  0  0  0
 21 23  1  0  0  0  0
 22 24  1  0  0  0  0
 23 24  1  0  0  0  0
M  END
>  <REMARK>
 SMILES Cc1nc(NCC2CCCO2)sc1C(=O)Nc1ccccc1
 SMILES IDX 1 1 2 2 3 3 4 4 12 5 13 6 14 7 16 8 15 9 17 11 18 12 22 13
 SMILES IDX 19 14 21 15 20 16 5 17 6 19 7 20 8 21 11 22 9 23 10 24
 H PARENT 16 10 5 18

>  <TORSDO>
F 5

$$$$
