/home/pchatterjee/Documents/git/vs_workflow/DiffDock/diffdock_run/pdbqt_scrubbed/Z51119793.pdbqt
 OpenBabel10272516423D

 28 30  0  0  0  0  0  0  0  0999 V2000
    1.9420    1.5580   -0.2530 C   0  0  0  0  0  2  0  0  0  0  0  0
    0.9730    1.3890   -1.4020 C   0  0  0  0  0  0  0  0  0  0  0  0
   -0.6650    0.2050   -2.4080 C   0  0  0  0  0  0  0  0  0  0  0  0
   -0.7860    1.1220   -3.3640 N   0  0  0  0  0  4  0  0  0  0  0  0
    0.2070    0.2970   -1.4110 N   0  0  0  0  0  0  0  0  0  0  0  0
    0.0380    2.1540   -3.2850 C   0  0  0  0  0  0  0  0  0  0  0  0
    0.9260    2.3480   -2.3270 N   0  0  0  0  0  2  0  0  0  0  0  0
   -1.5510   -0.8670   -2.5060 N   0  0  0  0  0  0  0  0  0  0  0  0
   -2.1300   -0.7440   -3.3240 H   0  0  0  0  0  0  0  0  0  0  0  0
   -1.7320   -2.0500   -1.7820 C   0  0  0  0  0  0  0  0  0  0  0  0
   -2.2530   -4.4470   -0.3510 C   0  0  0  0  0  0  0  0  0  0  0  0
   -1.1500   -3.6500   -0.0350 C   0  0  0  0  0  3  0  0  0  0  0  0
   -3.1100   -4.0290   -1.3690 C   0  0  0  0  0  3  0  0  0  0  0  0
   -0.8960   -2.4690   -0.7440 C   0  0  0  0  0  3  0  0  0  0  0  0
   -2.8490   -2.8480   -2.0740 C   0  0  0  0  0  3  0  0  0  0  0  0
   -2.5430   -5.6930    0.4300 C   0  0  0  0  0  1  0  0  0  0  0  0
   -0.0630    3.1290   -4.2560 N   0  0  0  0  0  0  0  0  0  0  0  0
   -0.9880    3.1340   -4.6610 H   0  0  0  0  0  0  0  0  0  0  0  0
    0.2920    4.0080   -3.9050 H   0  0  0  0  0  0  0  0  0  0  0  0
    1.5670    2.6110    0.6440 O   0  0  0  0  0  0  0  0  0  0  0  0
    0.5650    2.4050    1.5540 C   0  0  0  0  0  0  0  0  0  0  0  0
   -0.0570    1.1760    1.8010 C   0  0  0  0  0  3  0  0  0  0  0  0
    0.1560    3.5310    2.2900 C   0  0  0  0  0  0  0  0  0  0  0  0
   -1.0750    1.0730    2.7550 C   0  0  0  0  0  3  0  0  0  0  0  0
   -0.8630    3.4200    3.2480 C   0  0  0  0  0  3  0  0  0  0  0  0
   -1.4790    2.1920    3.4780 C   0  0  0  0  0  3  0  0  0  0  0  0
    0.7610    4.8160    2.0790 C   0  0  0  0  0  0  0  0  0  0  0  0
    1.2220    5.8730    1.9380 N   0  0  0  0  0  0  0  0  0  0  0  0
  1 20  1  0  0  0  0
  2  1  1  0  0  0  0
  3  5  1  0  0  0  0
  4  6  2  0  0  0  0
  4  3  2  0  0  0  0
  5  2  2  0  0  0  0
  6  7  1  0  0  0  0
  7  2  1  0  0  0  0
  8  3  1  0  0  0  0
  8 10  1  0  0  0  0
  9  8  1  0  0  0  0
 10 14  1  0  0  0  0
 11 12  1  0  0  0  0
 11 16  1  0  0  0  0
 13 11  2  0  0  0  0
 14 12  2  0  0  0  0
 15 10  2  0  0  0  0
 15 13  1  0  0  0  0
 17 19  1  0  0  0  0
 17  6  1  0  0  0  0
 18 17  1  0  0  0  0
 20 21  1  0  0  0  0
 21 22  2  0  0  0  0
 21 23  1  0  0  0  0
 22 24  1  0  0  0  0
 23 25  2  0  0  0  0
 24 26  2  0  0  0  0
 25 26  1  0  0  0  0
 27 23  1  0  0  0  0
 28 27  3  0  0  0  0
M  END
>  <REMARK>
 SMILES Cc1ccc(Nc2nc(N)nc(COc3ccccc3C#N)n2)cc1
 SMILES IDX 13 1 12 2 7 3 8 4 23 5 9 6 11 7 6 8 5 10 2 11 3 12 25 13
 SMILES IDX 4 14 24 15 1 16 10 17 14 20 15 21 16 22 20 23 17 24 19 25
 SMILES IDX 18 26 21 27 22 28
 H PARENT 6 9 10 18 10 19

>  <TORSDO>
F 7

$$$$
