/home/pchatterjee/Documents/git/vs_workflow/DiffDock/diffdock_run/pdbqt_scrubbed/Z52659738.pdbqt
 OpenBabel10272516423D

 29 32  0  0  0  0  0  0  0  0999 V2000
   -1.5110    2.0020   -2.4310 C   0  0  0  0  0  0  0  0  0  0  0  0
   -2.2830    3.0780   -2.5750 N   0  0  0  0  0  4  0  0  0  0  0  0
   -1.7460    4.2300   -2.2060 C   0  0  0  0  0  0  0  0  0  0  0  0
   -0.5160    4.3900   -1.7530 N   0  0  0  0  0  0  0  0  0  0  0  0
    0.1870    3.2610   -1.6340 C   0  0  0  0  0  0  0  0  0  0  0  0
   -0.2630    2.0520   -1.9840 N   0  0  0  0  0  2  0  0  0  0  0  0
   -2.1040    0.8020   -2.8200 N   0  0  0  0  0  0  0  0  0  0  0  0
   -3.0600    0.9840   -3.0900 H   0  0  0  0  0  0  0  0  0  0  0  0
   -1.7280   -0.5420   -2.7270 C   0  0  0  0  0  0  0  0  0  0  0  0
   -1.0570   -3.3010   -2.6660 C   0  0  0  0  0  0  0  0  0  0  0  0
   -2.2460   -2.8740   -3.2600 C   0  0  0  0  0  3  0  0  0  0  0  0
   -0.1940   -2.3430   -2.1290 C   0  0  0  0  0  3  0  0  0  0  0  0
   -2.5740   -1.5130   -3.2870 C   0  0  0  0  0  3  0  0  0  0  0  0
   -0.5290   -0.9830   -2.1610 C   0  0  0  0  0  3  0  0  0  0  0  0
   -0.6880   -4.7540   -2.6620 C   0  0  0  0  0  1  0  0  0  0  0  0
   -2.5180    5.3650   -2.3520 N   0  0  0  0  0  0  0  0  0  0  0  0
   -1.9350    6.1870   -2.4220 H   0  0  0  0  0  0  0  0  0  0  0  0
   -3.2280    5.2270   -3.0570 H   0  0  0  0  0  0  0  0  0  0  0  0
    1.6060    3.3590   -1.0960 C   0  0  0  0  0  2  0  0  0  0  0  0
    1.7560    2.7420    0.2330 N   0  0  0  0  0  0  0  0  0  0  0  0
    2.4190    1.4400    0.2750 C   0  0  0  0  0  2  0  0  0  0  0  0
    1.5450    3.4340    1.4200 C   0  0  0  0  0  0  0  0  0  0  0  0
    1.9410    0.6280    1.4640 C   0  0  0  0  0  2  0  0  0  0  0  0
    1.0640    4.7540    1.4530 C   0  0  0  0  0  3  0  0  0  0  0  0
    1.7850    2.8150    2.6680 C   0  0  0  0  0  0  0  0  0  0  0  0
    2.2630    1.3850    2.7420 C   0  0  0  0  0  2  0  0  0  0  0  0
    0.8780    5.4490    2.6560 C   0  0  0  0  0  3  0  0  0  0  0  0
    1.6140    3.5200    3.8740 C   0  0  0  0  0  3  0  0  0  0  0  0
    1.1620    4.8340    3.8670 C   0  0  0  0  0  3  0  0  0  0  0  0
  1  6  1  0  0  0  0
  2  1  2  0  0  0  0
  2  3  2  0  0  0  0
  3  4  1  0  0  0  0
  4  5  2  0  0  0  0
  5 19  1  0  0  0  0
  6  5  1  0  0  0  0
  7  9  1  0  0  0  0
  7  1  1  0  0  0  0
  8  7  1  0  0  0  0
  9 14  1  0  0  0  0
 10 15  1  0  0  0  0
 10 12  1  0  0  0  0
 11 10  2  0  0  0  0
 13 11  1  0  0  0  0
 13  9  2  0  0  0  0
 14 12  2  0  0  0  0
 16  3  1  0  0  0  0
 17 16  1  0  0  0  0
 18 16  1  0  0  0  0
 19 20  1  0  0  0  0
 20 21  1  0  0  0  0
 20 22  1  0  0  0  0
 21 23  1  0  0  0  0
 22 24  2  0  0  0  0
 22 25  1  0  0  0  0
 23 26  1  0  0  0  0
 24 27  1  0  0  0  0
 25 26  1  0  0  0  0
 25 28  2  0  0  0  0
 27 29  2  0  0  0  0
 29 28  1  0  0  0  0
M  END
>  <REMARK>
 SMILES Cc1ccc(Nc2nc(N)nc(CN3CCCc4ccccc43)n2)cc1
 SMILES IDX 7 1 8 2 9 3 11 4 12 5 24 6 6 7 5 9 2 10 3 11 26 12 4 13
 SMILES IDX 25 14 1 15 10 16 13 19 14 20 15 21 23 22 16 23 22 24 18 25
 SMILES IDX 17 26 21 27 19 28 20 29
 H PARENT 6 8 10 17 10 18

>  <TORSDO>
F 5

$$$$
