/home/pchatterjee/Documents/git/vs_workflow/DiffDock/diffdock_run/pdbqt_scrubbed/Z56854611.pdbqt
 OpenBabel10272516423D

 25 28  0  0  1  0  0  0  0  0999 V2000
    2.3410    0.5860    0.3630 N   0  0  0  0  0  0  0  0  0  0  0  0
    3.2460    0.2630    0.6730 H   0  0  0  0  0  0  0  0  0  0  0  0
    2.2250    1.9490    0.0750 C   0  0  0  0  0  0  0  0  0  0  0  0
    2.1300    4.7080   -0.5890 C   0  0  0  0  0  0  0  0  0  0  0  0
    3.3530    4.0750   -0.3610 C   0  0  0  0  0  3  0  0  0  0  0  0
    0.9560    3.9600   -0.4690 C   0  0  0  0  0  3  0  0  0  0  0  0
    3.3960    2.7130   -0.0430 C   0  0  0  0  0  3  0  0  0  0  0  0
    1.0080    2.5970   -0.1500 C   0  0  0  0  0  3  0  0  0  0  0  0
    2.0730    6.1740   -0.8980 C   0  0  0  0  0  1  0  0  0  0  0  0
    1.4400   -0.4720    0.4380 C   0  0  0  0  0  0  0  0  0  0  0  0
    0.1630   -0.3460    0.0580 N   0  0  0  0  0  0  0  0  0  0  0  0
    1.9680   -1.6170    0.8910 N   0  0  0  0  0  2  0  0  0  0  0  0
   -0.6390   -1.4240    0.1430 C   0  0  2  0  0  3  0  0  0  0  0  0
    1.1700   -2.6840    0.9970 C   0  0  0  0  0  0  0  0  0  0  0  0
   -0.1780   -2.6560    0.6370 C   0  0  0  0  0  0  0  0  0  0  0  0
    1.7030   -3.8710    1.4870 C   0  0  0  0  0  3  0  0  0  0  0  0
   -0.9700   -3.8210    0.8020 C   0  0  0  0  0  3  0  0  0  0  0  0
    0.9280   -5.0250    1.6380 C   0  0  0  0  0  3  0  0  0  0  0  0
   -0.4170   -4.9990    1.2980 C   0  0  0  0  0  3  0  0  0  0  0  0
   -1.9790   -1.3110   -0.3180 N   0  0  0  0  0  0  0  0  0  0  0  0
   -2.0430   -1.7660   -1.7330 C   0  0  0  0  0  2  0  0  0  0  0  0
   -2.5460    0.0480   -0.1300 C   0  0  0  0  0  2  0  0  0  0  0  0
   -3.2830   -1.1780   -2.4250 C   0  0  0  0  0  2  0  0  0  0  0  0
   -2.5100    0.8630   -1.4310 C   0  0  0  0  0  2  0  0  0  0  0  0
   -3.2710    0.2570   -2.4910 O   0  0  0  0  0  0  0  0  0  0  0  0
  1 10  1  0  0  0  0
  1  2  1  0  0  0  0
  3  1  1  0  0  0  0
  4  6  2  0  0  0  0
  4  5  1  0  0  0  0
  5  7  2  0  0  0  0
  6  8  1  0  0  0  0
  7  3  1  0  0  0  0
  8  3  2  0  0  0  0
  9  4  1  0  0  0  0
 10 12  1  0  0  0  0
 11 13  1  0  0  0  0
 11 10  2  0  0  0  0
 12 14  1  0  0  0  0
 13 20  1  6  0  0  0
 13 15  1  0  0  0  0
 14 16  1  0  0  0  0
 15 17  1  0  0  0  0
 15 14  2  0  0  0  0
 16 18  2  0  0  0  0
 17 19  2  0  0  0  0
 19 18  1  0  0  0  0
 20 22  1  0  0  0  0
 21 20  1  0  0  0  0
 23 21  1  0  0  0  0
 24 22  1  0  0  0  0
 25 23  1  0  0  0  0
 25 24  1  0  0  0  0
M  END
>  <REMARK>
 SMILES Cc1ccc(Nc2nc(N3CCOCC3)c3ccccc3n2)cc1
 SMILES IDX 6 1 5 3 2 4 3 5 24 6 4 7 23 8 1 9 7 10 8 11 22 12 9 13 21 14
 SMILES IDX 16 15 20 16 17 17 19 18 18 19 10 20 11 21 15 22 12 23 14 24
 SMILES IDX 13 25
 H PARENT 6 2

>  <TORSDO>
F 3

$$$$
