/home/pchatterjee/Documents/git/vs_workflow/DiffDock/diffdock_run/pdbqt_scrubbed/Z56890527.pdbqt
 OpenBabel10272516423D

 25 28  0  0  1  0  0  0  0  0999 V2000
   -1.8760   -1.1700   -0.6480 N   0  0  0  0  0  0  0  0  0  0  0  0
   -1.3250    0.0370   -0.3610 C   0  0  0  0  0  0  0  0  0  0  0  0
   -1.4640    1.0120   -1.2120 N   0  0  0  0  0  0  0  0  0  0  0  0
   -0.9020    2.2300   -0.9100 C   0  0  0  0  0  0  0  0  0  0  0  0
   -0.2120    2.4890    0.2140 C   0  0  0  0  0  0  0  0  0  0  0  0
   -0.0480    1.3800    1.1760 C   0  0  0  0  0  0  0  0  0  0  0  0
    0.5740    1.5080    2.2250 O   0  0  0  0  0  0  0  0  0  0  0  0
   -0.6370    0.2100    0.8070 N   0  0  0  0  0  0  0  0  0  0  0  0
    0.3880    3.8180    0.5610 C   0  0  0  0  0  2  0  0  0  0  0  0
   -0.1170    4.9500   -0.3360 C   0  0  0  0  0  2  0  0  0  0  0  0
   -0.1780    4.5070   -1.7930 C   0  0  0  0  0  2  0  0  0  0  0  0
   -1.1010    3.2980   -1.9610 C   0  0  0  0  0  2  0  0  0  0  0  0
   -2.3750   -1.2580   -1.5180 H   0  0  0  0  0  0  0  0  0  0  0  0
   -0.5510   -0.5790    1.4360 H   0  0  0  0  0  0  0  0  0  0  0  0
   -1.8610   -2.3420    0.0870 C   0  0  0  0  0  0  0  0  0  0  0  0
   -1.2480   -3.5600    1.9500 C   0  0  2  0  0  3  0  0  0  0  0  0
   -1.2330   -2.3900    1.2730 N   0  0  0  0  0  0  0  0  0  0  0  0
   -1.8870   -4.7050    1.4630 C   0  0  0  0  0  0  0  0  0  0  0  0
   -1.9400   -5.9590    2.1200 C   0  0  0  0  0  3  0  0  0  0  0  0
   -2.5090   -4.5440    0.2190 C   0  0  0  0  0  0  0  0  0  0  0  0
   -2.4970   -3.3880   -0.4560 N   0  0  0  0  0  2  0  0  0  0  0  0
   -2.6070   -7.0360    1.5410 C   0  0  0  0  0  3  0  0  0  0  0  0
   -3.1670   -5.6340   -0.3370 C   0  0  0  0  0  3  0  0  0  0  0  0
   -3.2220   -6.8730    0.3070 C   0  0  0  0  0  3  0  0  0  0  0  0
   -0.5300   -3.5520    3.2700 C   0  0  0  0  0  1  0  0  0  0  0  0
  1  2  1  0  0  0  0
  1 15  1  0  0  0  0
  2  8  1  0  0  0  0
  3  4  1  0  0  0  0
  3  2  2  0  0  0  0
  4  5  2  0  0  0  0
  5  9  1  0  0  0  0
  5  6  1  0  0  0  0
  6  7  2  0  0  0  0
  8  6  1  0  0  0  0
  8 14  1  0  0  0  0
 10  9  1  0  0  0  0
 11 10  1  0  0  0  0
 12 11  1  0  0  0  0
 12  4  1  0  0  0  0
 13  1  1  0  0  0  0
 15 17  2  0  0  0  0
 16 25  1  1  0  0  0
 17 16  1  0  0  0  0
 18 16  1  0  0  0  0
 18 19  1  0  0  0  0
 20 18  2  0  0  0  0
 21 15  1  0  0  0  0
 21 20  1  0  0  0  0
 22 19  2  0  0  0  0
 23 20  1  0  0  0  0
 23 24  2  0  0  0  0
 24 22  1  0  0  0  0
M  END
>  <REMARK>
 SMILES Cc1nc(Nc2nc3c(c(=O)[nH]2)CCCC3)nc2ccccc12
 SMILES IDX 5 1 6 2 7 3 8 4 9 5 10 6 11 7 12 8 13 9 14 10 15 11 16 12
 SMILES IDX 4 15 2 16 3 17 23 18 22 19 18 20 17 21 21 22 19 23 20 24
 SMILES IDX 1 25
 H PARENT 5 13 12 14

>  <TORSDO>
F 1

$$$$
