/home/pchatterjee/Documents/git/vs_workflow/DiffDock/diffdock_run/pdbqt_scrubbed/Z56840013.pdbqt
 OpenBabel10272516423D

 27 27  0  0  0  0  0  0  0  0999 V2000
   -0.8020   -0.2010   -1.9590 C   0  0  0  0  0  0  0  0  0  0  0  0
   -1.3400   -0.3800   -3.1510 N   0  0  0  0  0  0  0  0  0  0  0  0
   -0.3510   -0.3030   -4.0910 N   0  0  0  0  0  0  0  0  0  0  0  0
    0.7960   -0.1380   -3.4680 C   0  0  0  0  0  0  0  0  0  0  0  0
    0.5650   -0.1340   -2.1090 N   0  0  0  0  0  0  0  0  0  0  0  0
   -1.6830   -0.1200   -0.6710 C   0  0  0  0  0  0  0  0  0  0  0  0
   -3.0470   -0.5110   -0.5820 C   0  0  0  0  0  0  0  0  0  0  0  0
   -3.5430   -0.3370    0.6400 N   0  0  0  0  0  0  0  0  0  0  0  0
   -2.5070    0.1610    1.3300 N   0  0  0  0  0  0  0  0  0  0  0  0
   -1.3650    0.3470    0.5890 C   0  0  0  0  0  0  0  0  0  0  0  0
   -2.6540    0.4230    2.2970 H   0  0  0  0  0  0  0  0  0  0  0  0
   -3.7640   -1.0180   -1.5950 N   0  0  0  0  0  0  0  0  0  0  0  0
   -4.7720   -0.9890   -1.5110 H   0  0  0  0  0  0  0  0  0  0  0  0
   -3.4190   -0.8900   -2.5460 H   0  0  0  0  0  0  0  0  0  0  0  0
   -0.2990    1.0170    1.0930 N   0  0  0  0  0  0  0  0  0  0  0  0
    0.1500    1.7120    0.5010 H   0  0  0  0  0  0  0  0  0  0  0  0
    0.1160    1.0770    2.4400 C   0  0  0  0  0  0  0  0  0  0  0  0
    0.7270    2.2460    2.9150 C   0  0  0  0  0  3  0  0  0  0  0  0
   -0.0920    0.0240    3.3410 C   0  0  0  0  0  3  0  0  0  0  0  0
    1.1210    2.3590    4.2510 C   0  0  0  0  0  3  0  0  0  0  0  0
    0.3020    0.1330    4.6770 C   0  0  0  0  0  3  0  0  0  0  0  0
    0.9070    1.3020    5.1320 C   0  0  0  0  0  3  0  0  0  0  0  0
    1.5550   -0.2230   -1.0560 C   0  0  0  0  0  2  0  0  0  0  0  0
    2.8640   -0.9100   -1.4380 C   0  0  0  0  0  1  0  0  0  0  0  0
    3.8090   -0.0210   -2.2450 *   0  0  0  0  0  0  0  0  0  0  0  0
    2.1160   -0.0210   -4.1510 C   0  0  0  0  0  1  0  0  0  0  0  0
    3.1510    0.7790   -3.3690 *   0  0  0  0  0  0  0  0  0  0  0  0
  1  6  1  0  0  0  0
  2  1  2  0  0  0  0
  3  4  2  0  0  0  0
  3  2  1  0  0  0  0
  4  5  1  0  0  0  0
  5  1  1  0  0  0  0
  5 23  1  0  0  0  0
  6  7  1  0  0  0  0
  6 10  2  0  0  0  0
  7  8  2  0  0  0  0
  8  9  1  0  0  0  0
  9 11  1  0  0  0  0
 10 15  1  0  0  0  0
 10  9  1  0  0  0  0
 12 13  1  0  0  0  0
 12  7  1  0  0  0  0
 14 12  1  0  0  0  0
 15 17  1  0  0  0  0
 16 15  1  0  0  0  0
 17 18  2  0  0  0  0
 17 19  1  0  0  0  0
 18 20  1  0  0  0  0
 19 21  2  0  0  0  0
 20 22  2  0  0  0  0
 21 22  1  0  0  0  0
 24 23  1  0  0  0  0
 26  4  1  0  0  0  0
M  END
>  <REMARK>
 SMILES Nc1n[nH]c(Nc2ccccc2)c1-c1nnc2n1CCCCC2
 SMILES IDX 14 1 15 2 16 3 17 4 18 5 13 6 2 7 3 8 4 9 5 10 1 12 6 15
 SMILES IDX 7 17 8 18 12 19 9 20 11 21 10 22 19 23 20 24 21 25 23 27
 SMILES IDX 22 28
 H PARENT 4 11 1 13 1 14 6 16
 Flexibility Score:   48.900

>  <TORSDO>
F 4

$$$$
