/home/pchatterjee/Documents/git/vs_workflow/DiffDock/diffdock_run/pdbqt_scrubbed/Z56974472.pdbqt
 OpenBabel10272516423D

 30 33  0  0  0  0  0  0  0  0999 V2000
    1.0810    0.2810    0.5310 C   0  0  0  0  0  0  0  0  0  0  0  0
    0.8320    0.3310   -0.7680 N   0  0  0  0  0  4  0  0  0  0  0  0
   -0.3640   -0.0870   -1.1500 C   0  0  0  0  0  0  0  0  0  0  0  0
   -1.2760   -0.5650   -0.3120 N   0  0  0  0  0  0  0  0  0  0  0  0
   -0.9550   -0.6040    0.9770 C   0  0  0  0  0  0  0  0  0  0  0  0
    0.2180   -0.1780    1.4260 N   0  0  0  0  0  2  0  0  0  0  0  0
    2.3560    0.7140    0.8970 N   0  0  0  0  0  0  0  0  0  0  0  0
    2.8560    0.9870    0.0650 H   0  0  0  0  0  0  0  0  0  0  0  0
    2.9690    1.0080    2.1240 C   0  0  0  0  0  0  0  0  0  0  0  0
    4.3720    1.1910    2.1830 C   0  0  0  0  0  0  0  0  0  0  0  0
    4.9980    1.4530    3.4160 C   0  0  0  0  0  3  0  0  0  0  0  0
    4.2570    1.5140    4.5920 C   0  0  0  0  0  3  0  0  0  0  0  0
    2.2520    1.0600    3.3280 C   0  0  0  0  0  3  0  0  0  0  0  0
    2.8840    1.3160    4.5490 C   0  0  0  0  0  3  0  0  0  0  0  0
    5.2300    1.1150    0.9470 C   0  0  0  0  0  1  0  0  0  0  0  0
   -0.7540   -0.0840   -2.4890 N   0  0  0  0  0  0  0  0  0  0  0  0
   -1.7020   -0.4240   -2.5430 H   0  0  0  0  0  0  0  0  0  0  0  0
   -0.2030    0.4320   -3.6730 C   0  0  0  0  0  0  0  0  0  0  0  0
    0.9810    1.1850   -3.6870 C   0  0  0  0  0  3  0  0  0  0  0  0
   -0.8130    0.1410   -4.9180 C   0  0  0  0  0  0  0  0  0  0  0  0
    1.5330    1.6640   -4.8790 C   0  0  0  0  0  3  0  0  0  0  0  0
   -0.2500    0.6310   -6.1110 C   0  0  0  0  0  3  0  0  0  0  0  0
    0.9160    1.3900   -6.0910 C   0  0  0  0  0  3  0  0  0  0  0  0
   -2.0700   -0.6850   -5.0090 C   0  0  0  0  0  1  0  0  0  0  0  0
   -1.9030   -1.0860    1.8970 N   0  0  0  0  0  0  0  0  0  0  0  0
   -2.8990   -1.9810    1.3000 C   0  0  0  0  0  2  0  0  0  0  0  0
   -1.3120   -1.5350    3.1630 C   0  0  0  0  0  2  0  0  0  0  0  0
   -3.9990   -2.3080    2.3080 C   0  0  0  0  0  2  0  0  0  0  0  0
   -2.4070   -1.8580    4.1790 C   0  0  0  0  0  2  0  0  0  0  0  0
   -3.4210   -2.8440    3.6120 C   0  0  0  0  0  2  0  0  0  0  0  0
  1  7  1  0  0  0  0
  1  6  1  0  0  0  0
  2  1  2  0  0  0  0
  3  2  2  0  0  0  0
  3  4  1  0  0  0  0
  4  5  2  0  0  0  0
  5  6  1  0  0  0  0
  5 25  1  0  0  0  0
  7  9  1  0  0  0  0
  8  7  1  0  0  0  0
  9 10  2  0  0  0  0
  9 13  1  0  0  0  0
 10 11  1  0  0  0  0
 11 12  2  0  0  0  0
 13 14  2  0  0  0  0
 14 12  1  0  0  0  0
 15 10  1  0  0  0  0
 16  3  1  0  0  0  0
 17 16  1  0  0  0  0
 18 16  1  0  0  0  0
 19 18  1  0  0  0  0
 20 18  2  0  0  0  0
 21 19  2  0  0  0  0
 22 23  2  0  0  0  0
 22 20  1  0  0  0  0
 23 21  1  0  0  0  0
 24 20  1  0  0  0  0
 25 27  1  0  0  0  0
 26 25  1  0  0  0  0
 26 28  1  0  0  0  0
 27 29  1  0  0  0  0
 28 30  1  0  0  0  0
 30 29  1  0  0  0  0
M  END
>  <REMARK>
 SMILES Cc1ccccc1Nc1nc(Nc2ccccc2C)nc(N2CCCCC2)n1
 SMILES IDX 9 1 10 2 11 3 20 4 21 5 28 6 8 7 7 9 2 10 3 11 4 12 6 13
 SMILES IDX 5 14 1 15 12 16 13 18 14 19 18 20 15 21 17 22 16 23 19 24
 SMILES IDX 22 25 23 26 27 27 24 28 26 29 25 30
 H PARENT 8 8 12 17

>  <TORSDO>
F 5

$$$$
