/home/pchatterjee/Documents/git/vs_workflow/DiffDock/diffdock_run/pdbqt_scrubbed/Z57110399.pdbqt
 OpenBabel10272516423D

 28 31  0  0  1  0  0  0  0  0999 V2000
    0.5800   -3.0870    4.4410 C   0  0  0  0  0  0  0  0  0  0  0  0
    0.8590   -1.8090    4.9420 C   0  0  0  0  0  3  0  0  0  0  0  0
    0.9370   -0.7140    4.0840 C   0  0  0  0  0  3  0  0  0  0  0  0
    0.7350   -0.8790    2.7100 C   0  0  0  0  0  3  0  0  0  0  0  0
    0.4550   -2.1370    2.1690 C   0  0  0  0  0  0  0  0  0  0  0  0
    0.3810   -3.2270    3.0550 C   0  0  0  0  0  3  0  0  0  0  0  0
    0.4910   -4.2870    5.3620 C   0  0  0  0  0  0  0  0  0  0  0  0
    0.6800   -4.0830    6.6030 O   0  0  0  0  0  1  0  0  0  0  0  0
    0.2350   -5.4110    4.8240 O   0  0  0  0  0  0  0  0  0  0  0  0
    0.2360   -2.3750    0.8060 N   0  0  0  0  0  0  0  0  0  0  0  0
    0.0700   -3.3390    0.5570 H   0  0  0  0  0  0  0  0  0  0  0  0
    0.1860   -1.5710   -0.3240 C   0  0  0  0  0  0  0  0  0  0  0  0
    0.3570   -0.2480   -0.2620 N   0  0  0  0  0  0  0  0  0  0  0  0
   -0.0540   -2.2200   -1.4740 N   0  0  0  0  0  2  0  0  0  0  0  0
    0.2870    0.4620   -1.4070 C   0  0  1  0  0  3  0  0  0  0  0  0
   -0.1410   -1.5140   -2.6040 C   0  0  0  0  0  0  0  0  0  0  0  0
    0.0170   -0.1270   -2.6480 C   0  0  0  0  0  0  0  0  0  0  0  0
   -0.4060   -2.1940   -3.7870 C   0  0  0  0  0  3  0  0  0  0  0  0
   -0.1200    0.5560   -3.8870 C   0  0  0  0  0  3  0  0  0  0  0  0
   -0.5280   -1.5300   -5.0120 C   0  0  0  0  0  3  0  0  0  0  0  0
   -0.3870   -0.1500   -5.0550 C   0  0  0  0  0  0  0  0  0  0  0  0
   -0.5440    0.6840   -6.5490 Cl  0  0  0  0  0  0  0  0  0  0  0  0
    0.5150    1.9040   -1.2160 C   0  0  0  0  0  0  0  0  0  0  0  0
    1.6130    2.5580   -1.8030 C   0  0  0  0  0  3  0  0  0  0  0  0
   -0.3520    2.6600   -0.4100 C   0  0  0  0  0  3  0  0  0  0  0  0
    1.8190    3.9270   -1.6130 C   0  0  0  0  0  3  0  0  0  0  0  0
   -0.1470    4.0290   -0.2190 C   0  0  0  0  0  3  0  0  0  0  0  0
    0.9360    4.6620   -0.8250 C   0  0  0  0  0  3  0  0  0  0  0  0
  1  2  1  0  0  0  0
  1  7  1  0  0  0  0
  3  2  2  0  0  0  0
  4  3  1  0  0  0  0
  5  4  2  0  0  0  0
  5  6  1  0  0  0  0
  6  1  2  0  0  0  0
  7  8  1  0  0  0  0
  9  7  2  0  0  0  0
 10  5  1  0  0  0  0
 11 10  1  0  0  0  0
 12 13  2  0  0  0  0
 12 10  1  0  0  0  0
 14 12  1  0  0  0  0
 15 23  1  1  0  0  0
 15 13  1  0  0  0  0
 16 14  1  0  0  0  0
 17 16  1  0  0  0  0
 17 15  1  0  0  0  0
 18 16  2  0  0  0  0
 19 17  2  0  0  0  0
 20 18  1  0  0  0  0
 21 20  2  0  0  0  0
 21 19  1  0  0  0  0
 22 21  1  0  0  0  0
 23 25  1  0  0  0  0
 24 26  1  0  0  0  0
 24 23  2  0  0  0  0
 25 27  2  0  0  0  0
 26 28  2  0  0  0  0
 28 27  1  0  0  0  0
M  END
>  <REMARK>
 SMILES O=C([O-])c1cccc(Nc2nc(-c3ccccc3)c3cc(Cl)ccc3n2)c1
 SMILES IDX 4 1 5 2 6 3 7 4 8 5 27 6 2 7 1 8 3 9 9 10 10 12 11 13 26 14
 SMILES IDX 12 15 25 16 19 17 24 18 20 19 23 20 21 21 22 22 13 23 14 24
 SMILES IDX 18 25 15 26 17 27 16 28
 H PARENT 9 11

>  <TORSDO>
F 4

$$$$
