/home/pchatterjee/Documents/git/vs_workflow/DiffDock/diffdock_run/pdbqt_scrubbed/Z57110395.pdbqt
 OpenBabel10272516423D

 27 30  0  0  1  0  0  0  0  0999 V2000
   -4.0150   -3.8550    1.5460 C   0  0  0  0  0  0  0  0  0  0  0  0
   -4.0410   -2.4770    1.2960 C   0  0  0  0  0  3  0  0  0  0  0  0
   -2.8550   -1.7340    1.1920 C   0  0  0  0  0  3  0  0  0  0  0  0
   -1.6050   -2.3420    1.3330 C   0  0  0  0  0  0  0  0  0  0  0  0
   -1.5820   -3.7240    1.5840 C   0  0  0  0  0  3  0  0  0  0  0  0
   -2.7640   -4.4680    1.6890 C   0  0  0  0  0  3  0  0  0  0  0  0
   -5.2970   -4.6580    1.6580 C   0  0  0  0  0  0  0  0  0  0  0  0
   -5.1820   -5.9050    1.8860 O   0  0  0  0  0  1  0  0  0  0  0  0
   -6.3920   -4.0280    1.5160 O   0  0  0  0  0  0  0  0  0  0  0  0
   -0.3850   -1.6620    1.2400 N   0  0  0  0  0  0  0  0  0  0  0  0
    0.4470   -2.2190    1.3600 H   0  0  0  0  0  0  0  0  0  0  0  0
   -0.0260   -0.3380    1.0150 C   0  0  0  0  0  0  0  0  0  0  0  0
    1.2930   -0.1090    0.9950 N   0  0  0  0  0  0  0  0  0  0  0  0
   -0.9350    0.6260    0.8340 N   0  0  0  0  0  2  0  0  0  0  0  0
    1.7110    1.1590    0.7880 C   0  0  2  0  0  3  0  0  0  0  0  0
   -0.5190    1.8750    0.6150 C   0  0  0  0  0  0  0  0  0  0  0  0
    0.8310    2.2270    0.5720 C   0  0  0  0  0  0  0  0  0  0  0  0
   -1.4720    2.8670    0.4160 C   0  0  0  0  0  3  0  0  0  0  0  0
    1.1950    3.5760    0.3100 C   0  0  0  0  0  3  0  0  0  0  0  0
   -1.1180    4.1960    0.1680 C   0  0  0  0  0  3  0  0  0  0  0  0
    0.2220    4.5520    0.1120 C   0  0  0  0  0  3  0  0  0  0  0  0
    3.1750    1.3070    0.8110 C   0  0  0  0  0  0  0  0  0  0  0  0
    3.9670    0.7130   -0.1850 C   0  0  0  0  0  3  0  0  0  0  0  0
    3.8200    2.0220    1.8350 C   0  0  0  0  0  3  0  0  0  0  0  0
    5.3570    0.8490   -0.1730 C   0  0  0  0  0  3  0  0  0  0  0  0
    5.2100    2.1570    1.8480 C   0  0  0  0  0  3  0  0  0  0  0  0
    5.9770    1.5740    0.8420 C   0  0  0  0  0  3  0  0  0  0  0  0
  1  7  1  0  0  0  0
  1  6  1  0  0  0  0
  2  1  2  0  0  0  0
  3  2  1  0  0  0  0
  3  4  2  0  0  0  0
  4  5  1  0  0  0  0
  5  6  2  0  0  0  0
  7  8  1  0  0  0  0
  9  7  2  0  0  0  0
 10  4  1  0  0  0  0
 10 11  1  0  0  0  0
 12 10  1  0  0  0  0
 13 12  2  0  0  0  0
 14 12  1  0  0  0  0
 15 22  1  6  0  0  0
 15 13  1  0  0  0  0
 16 14  1  0  0  0  0
 17 16  1  0  0  0  0
 17 15  1  0  0  0  0
 18 16  2  0  0  0  0
 19 17  2  0  0  0  0
 20 18  1  0  0  0  0
 21 20  2  0  0  0  0
 21 19  1  0  0  0  0
 22 24  1  0  0  0  0
 23 25  1  0  0  0  0
 23 22  2  0  0  0  0
 24 26  2  0  0  0  0
 25 27  2  0  0  0  0
 27 26  1  0  0  0  0
M  END
>  <REMARK>
 SMILES O=C([O-])c1ccc(Nc2nc(-c3ccccc3)c3ccccc3n2)cc1
 SMILES IDX 4 1 5 2 6 3 7 4 25 5 26 6 2 7 1 8 3 9 8 10 9 12 10 13 24 14
 SMILES IDX 11 15 23 16 18 17 22 18 19 19 21 20 20 21 12 22 13 23 17 24
 SMILES IDX 14 25 16 26 15 27
 H PARENT 8 11

>  <TORSDO>
F 4

$$$$
