/home/pchatterjee/Documents/git/vs_workflow/DiffDock/diffdock_run/pdbqt_scrubbed/Z57346758.pdbqt
 OpenBabel10272516423D

 26 28  0  0  1  0  0  0  0  0999 V2000
   -0.7680   -0.1130   -0.5050 C   0  0  0  0  0  0  0  0  0  0  0  0
   -1.5120   -1.1330   -0.9540 N   0  0  0  0  0  0  0  0  0  0  0  0
   -1.2150   -1.6620   -2.1540 C   0  0  2  0  0  3  0  0  0  0  0  0
   -0.1790   -1.1510   -2.9530 C   0  0  0  0  0  0  0  0  0  0  0  0
    0.1660   -1.6180   -4.2480 C   0  0  0  0  0  3  0  0  0  0  0  0
    1.2220   -1.0480   -4.9560 C   0  0  0  0  0  3  0  0  0  0  0  0
    1.9410   -0.0090   -4.3820 C   0  0  0  0  0  3  0  0  0  0  0  0
    1.5920    0.4550   -3.1110 C   0  0  0  0  0  3  0  0  0  0  0  0
    0.5400   -0.0960   -2.3880 C   0  0  0  0  0  0  0  0  0  0  0  0
    0.2580    0.4080   -1.1850 N   0  0  0  0  0  2  0  0  0  0  0  0
   -1.1440    0.3710    0.7460 N   0  0  0  0  0  0  0  0  0  0  0  0
   -1.9640   -0.1290    1.0520 H   0  0  0  0  0  0  0  0  0  0  0  0
   -0.6920    1.4090    1.5660 C   0  0  0  0  0  0  0  0  0  0  0  0
    0.1450    3.4650    3.3340 C   0  0  0  0  0  0  0  0  0  0  0  0
    0.8050    3.2580    2.1260 C   0  0  0  0  0  3  0  0  0  0  0  0
   -0.9300    2.6420    3.6620 C   0  0  0  0  0  3  0  0  0  0  0  0
    0.3890    2.2390    1.2560 C   0  0  0  0  0  3  0  0  0  0  0  0
   -1.3420    1.6270    2.7900 C   0  0  0  0  0  3  0  0  0  0  0  0
    0.4470    4.4160    4.2680 O   0  0  0  0  0  0  0  0  0  0  0  0
    1.5330    5.2840    3.9690 C   0  0  0  0  0  1  0  0  0  0  0  0
   -1.9930   -2.7360   -2.6380 N   0  0  0  0  0  0  0  0  0  0  0  0
   -1.3680   -3.4910   -2.9250 H   0  0  0  0  0  0  0  0  0  0  0  0
   -2.9890   -3.2890   -1.7130 C   0  0  0  0  0  2  0  0  0  0  0  0
   -2.3330   -4.2130   -0.6800 C   0  0  0  0  0  2  0  0  0  0  0  0
   -1.6060   -5.2460   -1.3530 O   0  0  0  0  0  0  0  0  0  0  0  0
   -1.1690   -5.7730   -0.6610 H   0  0  0  0  0  0  0  0  0  0  0  0
  1 11  1  0  0  0  0
  2  1  2  0  0  0  0
  3 21  1  6  0  0  0
  3  2  1  0  0  0  0
  4  9  1  0  0  0  0
  4  3  1  0  0  0  0
  5  4  2  0  0  0  0
  6  7  2  0  0  0  0
  6  5  1  0  0  0  0
  7  8  1  0  0  0  0
  8  9  2  0  0  0  0
  9 10  1  0  0  0  0
 10  1  1  0  0  0  0
 11 12  1  0  0  0  0
 11 13  1  0  0  0  0
 13 18  1  0  0  0  0
 14 16  1  0  0  0  0
 14 19  1  0  0  0  0
 15 14  2  0  0  0  0
 17 13  2  0  0  0  0
 17 15  1  0  0  0  0
 18 16  2  0  0  0  0
 20 19  1  0  0  0  0
 21 23  1  0  0  0  0
 22 21  1  0  0  0  0
 23 24  1  0  0  0  0
 25 24  1  0  0  0  0
 25 26  1  0  0  0  0
M  END
>  <REMARK>
 SMILES COc1ccc(Nc2nc(NCCO)c3ccccc3n2)cc1
 SMILES IDX 8 1 9 2 10 3 15 4 16 5 17 6 18 7 19 8 20 9 21 10 7 11 6 13
 SMILES IDX 3 14 4 15 23 16 5 17 22 18 2 19 1 20 11 21 12 23 13 24 14 25
 H PARENT 7 12 11 22 14 26

>  <TORSDO>
F 7

$$$$
