/home/pchatterjee/Documents/git/vs_workflow/DiffDock/diffdock_run/pdbqt_scrubbed/Z645508114.pdbqt
 OpenBabel10272516423D

 25 28  0  0  0  0  0  0  0  0999 V2000
   -1.7910   -3.2680    0.8220 N   0  0  0  0  0  0  0  0  0  0  0  0
   -0.8870   -2.8420    0.9810 H   0  0  0  0  0  0  0  0  0  0  0  0
   -1.7780   -4.6450    1.0250 C   0  0  0  0  0  0  0  0  0  0  0  0
   -2.4900   -6.8060    0.5350 C   0  0  0  0  0  3  0  0  0  0  0  0
   -2.5500   -5.4780    0.2960 N   0  0  0  0  0  0  0  0  0  0  0  0
   -1.7370   -7.4500    1.4330 N   0  0  0  0  0  0  0  0  0  0  0  0
   -0.9860   -6.6110    2.1660 C   0  0  0  0  0  0  0  0  0  0  0  0
   -0.9860   -5.2390    1.9920 C   0  0  0  0  0  0  0  0  0  0  0  0
   -0.1310   -6.9820    3.1700 N   0  0  0  0  0  0  0  0  0  0  0  0
   -0.1210   -4.7740    2.9440 N   0  0  0  0  0  0  0  0  0  0  0  0
    0.3710   -5.8550    3.6220 C   0  0  0  0  0  3  0  0  0  0  0  0
    0.0940   -3.8050    3.1300 H   0  0  0  0  0  0  0  0  0  0  0  0
   -2.4290   -2.8350   -0.4130 C   0  0  0  0  0  2  0  0  0  0  0  0
   -2.3200   -1.3400   -0.5240 C   0  0  0  0  0  0  0  0  0  0  0  0
   -2.9890   -0.4890    0.3520 C   0  0  0  0  0  3  0  0  0  0  0  0
   -1.5470   -0.7410   -1.5060 C   0  0  0  0  0  3  0  0  0  0  0  0
   -2.8540    0.8930    0.2100 C   0  0  0  0  0  3  0  0  0  0  0  0
   -1.4010    0.5970   -1.6530 N   0  0  0  0  0  0  0  0  0  0  0  0
   -2.0460    1.4220   -0.7980 C   0  0  0  0  0  0  0  0  0  0  0  0
   -1.9180    2.8150   -0.9380 N   0  0  0  0  0  0  0  0  0  0  0  0
   -1.5210    3.4970    0.3060 C   0  0  0  0  0  2  0  0  0  0  0  0
   -1.2610    3.2690   -2.1740 C   0  0  0  0  0  2  0  0  0  0  0  0
   -0.8950    4.8600    0.0180 C   0  0  0  0  0  2  0  0  0  0  0  0
    0.2030    3.6120   -1.9130 C   0  0  0  0  0  2  0  0  0  0  0  0
    0.3390    4.7310   -0.8780 C   0  0  0  0  0  2  0  0  0  0  0  0
  1  2  1  0  0  0  0
  1  3  1  0  0  0  0
  3  8  2  0  0  0  0
  4  6  1  0  0  0  0
  5  4  2  0  0  0  0
  5  3  1  0  0  0  0
  6  7  2  0  0  0  0
  7  9  1  0  0  0  0
  8  7  1  0  0  0  0
  8 10  1  0  0  0  0
  9 11  2  0  0  0  0
 10 12  1  0  0  0  0
 10 11  1  0  0  0  0
 13  1  1  0  0  0  0
 14 13  1  0  0  0  0
 14 15  1  0  0  0  0
 16 14  2  0  0  0  0
 17 15  2  0  0  0  0
 18 16  1  0  0  0  0
 18 19  2  0  0  0  0
 19 17  1  0  0  0  0
 20 19  1  0  0  0  0
 20 21  1  0  0  0  0
 22 24  1  0  0  0  0
 22 20  1  0  0  0  0
 23 21  1  0  0  0  0
 24 25  1  0  0  0  0
 25 23  1  0  0  0  0
M  END
>  <REMARK>
 SMILES c1nc(NCc2ccc(N3CCCCC3)nc2)c2[nH]cnc2n1
 SMILES IDX 4 1 3 3 1 4 2 5 23 6 22 7 18 8 21 9 19 10 20 11 5 13 6 14
 SMILES IDX 7 15 17 16 8 17 16 18 9 19 10 20 11 21 15 22 12 23 14 24
 SMILES IDX 13 25
 H PARENT 4 2 19 12

>  <TORSDO>
F 4

$$$$
