/home/pchatterjee/Documents/git/vs_workflow/DiffDock/diffdock_run/pdbqt_scrubbed/Z645226424.pdbqt
 OpenBabel10272516423D

 27 30  0  0  0  0  0  0  0  0999 V2000
   -1.4330   -1.8380    0.1470 C   0  0  0  0  0  0  0  0  0  0  0  0
   -0.4880   -2.8380   -0.0750 C   0  0  0  0  0  3  0  0  0  0  0  0
    0.8760   -2.5400   -0.0130 C   0  0  0  0  0  3  0  0  0  0  0  0
    1.3010   -1.2430    0.2720 C   0  0  0  0  0  3  0  0  0  0  0  0
    0.3660   -0.2250    0.4970 C   0  0  0  0  0  0  0  0  0  0  0  0
   -1.0000   -0.5370    0.4260 C   0  0  0  0  0  3  0  0  0  0  0  0
   -2.7930   -1.9830    0.1050 O   0  0  0  0  0  0  0  0  0  0  0  0
   -3.3300   -3.3040   -0.0310 C   0  0  0  0  0  2  0  0  0  0  0  0
   -3.3580   -3.7940   -1.4630 C   0  0  0  0  0  0  0  0  0  0  0  0
   -3.4110   -4.7530   -4.0380 C   0  0  0  0  0  3  0  0  0  0  0  0
   -3.8240   -3.4500   -3.7920 C   0  0  0  0  0  3  0  0  0  0  0  0
   -2.9920   -5.5190   -2.9630 C   0  0  0  0  0  3  0  0  0  0  0  0
   -3.8030   -2.9610   -2.4890 C   0  0  0  0  0  3  0  0  0  0  0  0
   -2.9590   -5.0730   -1.6880 N   0  0  0  0  0  0  0  0  0  0  0  0
    0.8180    1.1820    0.8070 C   0  0  0  0  0  2  0  0  0  0  0  0
    1.5390    1.7240   -0.3450 N   0  0  0  0  0  0  0  0  0  0  0  0
    0.9120    1.6930   -1.1510 H   0  0  0  0  0  0  0  0  0  0  0  0
    1.8040    3.0860   -0.1750 C   0  0  0  0  0  0  0  0  0  0  0  0
    1.0700    3.9770   -0.8650 N   0  0  0  0  0  0  0  0  0  0  0  0
    2.8060    3.5870    0.6300 C   0  0  0  0  0  0  0  0  0  0  0  0
    1.3340    5.2920   -0.6960 C   0  0  0  0  0  3  0  0  0  0  0  0
    3.7760    3.0280    1.4120 N   0  0  0  0  0  0  0  0  0  0  0  0
    3.0040    4.9490    0.7420 C   0  0  0  0  0  0  0  0  0  0  0  0
    2.2620    5.8590    0.0870 N   0  0  0  0  0  0  0  0  0  0  0  0
    4.4850    4.0490    1.9810 C   0  0  0  0  0  3  0  0  0  0  0  0
    4.0380    5.2250    1.5970 N   0  0  0  0  0  0  0  0  0  0  0  0
    3.9430    2.0380    1.5270 H   0  0  0  0  0  0  0  0  0  0  0  0
  1  6  1  0  0  0  0
  2  3  1  0  0  0  0
  2  1  2  0  0  0  0
  3  4  2  0  0  0  0
  4  5  1  0  0  0  0
  5 15  1  0  0  0  0
  6  5  2  0  0  0  0
  7  1  1  0  0  0  0
  8  7  1  0  0  0  0
  9  8  1  0  0  0  0
 10 11  2  0  0  0  0
 10 12  1  0  0  0  0
 11 13  1  0  0  0  0
 12 14  2  0  0  0  0
 13  9  2  0  0  0  0
 14  9  1  0  0  0  0
 16 18  1  0  0  0  0
 16 15  1  0  0  0  0
 17 16  1  0  0  0  0
 18 20  2  0  0  0  0
 19 21  2  0  0  0  0
 19 18  1  0  0  0  0
 20 23  1  0  0  0  0
 20 22  1  0  0  0  0
 21 24  1  0  0  0  0
 22 27  1  0  0  0  0
 22 25  1  0  0  0  0
 23 26  1  0  0  0  0
 24 23  2  0  0  0  0
 26 25  2  0  0  0  0
M  END
>  <REMARK>
 SMILES c1ccc(COc2cccc(CNc3ncnc4nc[nH]c34)c2)nc1
 SMILES IDX 7 1 8 2 9 3 10 4 11 5 23 6 6 7 5 8 4 9 1 10 2 11 25 12 3 13
 SMILES IDX 24 14 12 15 13 16 14 18 15 19 22 20 16 21 21 22 18 23 17 24
 SMILES IDX 20 25 19 26
 H PARENT 13 17 21 27

>  <TORSDO>
F 6

$$$$
