/home/pchatterjee/Documents/git/vs_workflow/DiffDock/diffdock_run/pdbqt_scrubbed/Z646268634.pdbqt
 OpenBabel10272516423D

 27 30  0  0  1  0  0  0  0  0999 V2000
   -0.2360    0.5600    2.2360 C   0  0  0  0  0  0  0  0  0  0  0  0
    0.8880   -0.2140    2.5450 C   0  0  0  0  0  3  0  0  0  0  0  0
    2.1680    0.2580    2.2600 C   0  0  0  0  0  3  0  0  0  0  0  0
    2.3430    1.5080    1.6590 C   0  0  0  0  0  3  0  0  0  0  0  0
    1.2350    2.2900    1.3360 C   0  0  0  0  0  0  0  0  0  0  0  0
   -0.0460    1.8080    1.6220 C   0  0  0  0  0  3  0  0  0  0  0  0
   -1.6290    0.0510    2.5210 C   0  0  0  0  0  2  0  0  0  0  0  0
   -2.1990   -0.5670    1.3310 N   0  0  0  0  0  0  0  0  0  0  0  0
   -3.1840   -0.3450    1.2270 H   0  0  0  0  0  0  0  0  0  0  0  0
   -2.0230   -1.9520    1.1820 C   0  0  0  0  0  0  0  0  0  0  0  0
   -2.4560   -2.5980    0.0110 C   0  0  0  0  0  0  0  0  0  0  0  0
   -2.3220   -3.9390   -0.1800 N   0  0  0  0  0  0  0  0  0  0  0  0
   -1.7270   -4.6320    0.8030 C   0  0  0  0  0  0  0  0  0  0  0  0
   -1.4270   -2.6650    2.1610 N   0  0  0  0  0  0  0  0  0  0  0  0
   -1.5480   -6.0040    0.6680 C   0  0  0  0  0  3  0  0  0  0  0  0
   -1.2760   -3.9910    1.9780 C   0  0  0  0  0  0  0  0  0  0  0  0
   -0.9340   -6.7590    1.6680 C   0  0  0  0  0  3  0  0  0  0  0  0
   -0.6660   -4.7520    2.9680 C   0  0  0  0  0  3  0  0  0  0  0  0
   -0.4900   -6.1300    2.8240 C   0  0  0  0  0  3  0  0  0  0  0  0
   -3.0870   -1.8310   -1.1140 C   0  0  0  0  0  1  0  0  0  0  0  0
    1.2530    3.5220    0.7440 O   0  0  0  0  0  0  0  0  0  0  0  0
    2.5110    4.0890    0.3620 C   0  0  0  0  0  2  0  0  0  0  0  0
    2.9720    3.5710   -1.0040 C   0  0  2  0  0  3  0  0  0  0  0  0
    4.4150    3.9310   -1.3160 C   0  0  0  0  0  2  0  0  0  0  0  0
    2.1960    4.1650   -2.0670 O   0  0  0  0  0  0  0  0  0  0  0  0
    4.4240    3.8640   -2.8220 C   0  0  0  0  0  2  0  0  0  0  0  0
    3.0680    4.4370   -3.1740 C   0  0  0  0  0  2  0  0  0  0  0  0
  1  7  1  0  0  0  0
  1  2  1  0  0  0  0
  3  2  2  0  0  0  0
  4  3  1  0  0  0  0
  5  6  1  0  0  0  0
  5  4  2  0  0  0  0
  6  1  2  0  0  0  0
  8  7  1  0  0  0  0
  9  8  1  0  0  0  0
 10  8  1  0  0  0  0
 10 14  1  0  0  0  0
 11 10  2  0  0  0  0
 12 11  1  0  0  0  0
 12 13  2  0  0  0  0
 13 16  1  0  0  0  0
 15 13  1  0  0  0  0
 15 17  2  0  0  0  0
 16 14  2  0  0  0  0
 16 18  1  0  0  0  0
 17 19  1  0  0  0  0
 19 18  2  0  0  0  0
 20 11  1  0  0  0  0
 21  5  1  0  0  0  0
 22 21  1  0  0  0  0
 23 22  1  1  0  0  0
 24 23  1  0  0  0  0
 25 23  1  0  0  0  0
 26 24  1  0  0  0  0
 27 26  1  0  0  0  0
 27 25  1  0  0  0  0
M  END
>  <REMARK>
 SMILES Cc1nc2ccccc2nc1NCc1cccc(OCC2CCCO2)c1
 SMILES IDX 14 1 15 2 16 3 17 4 18 5 26 6 13 7 12 8 11 10 2 11 3 12 4 13
 SMILES IDX 10 14 5 15 9 16 6 17 8 18 7 19 1 20 19 21 20 22 21 23 22 24
 SMILES IDX 25 25 23 26 24 27
 H PARENT 12 9

>  <TORSDO>
F 6

$$$$
