/home/pchatterjee/Documents/git/vs_workflow/DiffDock/diffdock_run/pdbqt_scrubbed/Z646130978.pdbqt
 OpenBabel10272516423D

 26 28  0  0  0  0  0  0  0  0999 V2000
   -1.5450   -1.0760   -1.4180 C   0  0  0  0  0  0  0  0  0  0  0  0
   -2.5280   -0.5450   -0.5810 C   0  0  0  0  0  3  0  0  0  0  0  0
   -2.4230    0.7590   -0.0990 C   0  0  0  0  0  3  0  0  0  0  0  0
   -1.3320    1.5460   -0.4580 C   0  0  0  0  0  3  0  0  0  0  0  0
   -0.3390    1.0360   -1.3070 C   0  0  0  0  0  0  0  0  0  0  0  0
   -0.4510   -0.2850   -1.7770 C   0  0  0  0  0  3  0  0  0  0  0  0
   -1.7710   -2.3660   -1.8120 O   0  0  0  0  0  0  0  0  0  0  0  0
   -0.7810   -2.9820   -2.6250 C   0  0  0  0  0  2  0  0  0  0  0  0
   -1.1730   -4.4230   -2.9650 C   0  0  0  0  0  0  0  0  0  0  0  0
   -1.2890   -5.3400   -1.9190 N   0  0  0  0  0  0  0  0  0  0  0  0
   -1.3110   -4.9550   -0.5160 C   0  0  0  0  0  1  0  0  0  0  0  0
   -1.8070   -6.6630   -2.2260 C   0  0  0  0  0  1  0  0  0  0  0  0
   -1.3300   -4.7510   -4.1440 O   0  0  0  0  0  0  0  0  0  0  0  0
    0.8540    1.8880   -1.6800 C   0  0  0  0  0  2  0  0  0  0  0  0
    1.9100    1.7370   -0.6880 N   0  0  0  0  0  0  0  0  0  0  0  0
    2.0310    0.7820   -0.3820 H   0  0  0  0  0  0  0  0  0  0  0  0
    1.9290    2.6510    0.3590 C   0  0  0  0  0  0  0  0  0  0  0  0
    1.3050    3.8470    0.2750 N   0  0  0  0  0  0  0  0  0  0  0  0
    2.6080    2.4070    1.5420 C   0  0  0  0  0  0  0  0  0  0  0  0
    1.3620    4.6960    1.3240 C   0  0  0  0  0  3  0  0  0  0  0  0
    3.3800    1.3800    2.0130 N   0  0  0  0  0  0  0  0  0  0  0  0
    2.6080    3.3350    2.5680 C   0  0  0  0  0  0  0  0  0  0  0  0
    1.9760    4.5180    2.4980 N   0  0  0  0  0  0  0  0  0  0  0  0
    3.7870    1.7100    3.2760 C   0  0  0  0  0  3  0  0  0  0  0  0
    3.3320    2.8870    3.6410 N   0  0  0  0  0  0  0  0  0  0  0  0
    3.6220    0.5380    1.5120 H   0  0  0  0  0  0  0  0  0  0  0  0
  1  2  1  0  0  0  0
  2  3  2  0  0  0  0
  4  3  1  0  0  0  0
  5  4  2  0  0  0  0
  6  1  2  0  0  0  0
  6  5  1  0  0  0  0
  7  1  1  0  0  0  0
  8  7  1  0  0  0  0
  9  8  1  0  0  0  0
  9 10  1  0  0  0  0
 10 11  1  0  0  0  0
 12 10  1  0  0  0  0
 13  9  2  0  0  0  0
 14  5  1  0  0  0  0
 14 15  1  0  0  0  0
 15 16  1  0  0  0  0
 15 17  1  0  0  0  0
 17 19  2  0  0  0  0
 18 17  1  0  0  0  0
 18 20  2  0  0  0  0
 19 21  1  0  0  0  0
 19 22  1  0  0  0  0
 20 23  1  0  0  0  0
 21 24  1  0  0  0  0
 22 25  1  0  0  0  0
 23 22  2  0  0  0  0
 24 25  2  0  0  0  0
 26 21  1  0  0  0  0
M  END
>  <REMARK>
 SMILES CN(C)C(=O)COc1cccc(CNc2ncnc3nc[nH]c23)c1
 SMILES IDX 8 1 9 2 10 3 11 4 12 5 24 6 7 7 6 8 4 9 2 10 1 11 3 12 5 13
 SMILES IDX 13 14 14 15 15 17 16 18 23 19 17 20 22 21 19 22 18 23 21 24
 SMILES IDX 20 25
 H PARENT 14 16 22 26

>  <TORSDO>
F 6

$$$$
