/home/pchatterjee/Documents/git/vs_workflow/DiffDock/diffdock_run/pdbqt_scrubbed/Z646214330.pdbqt
 OpenBabel10272516423D

 26 29  0  0  1  0  0  0  0  0999 V2000
   -1.0220   -0.8260   -1.7680 C   0  0  0  0  0  2  0  0  0  0  0  0
    0.4390   -0.5060   -1.9610 C   0  0  0  0  0  0  0  0  0  0  0  0
    2.2600    0.2500   -3.3650 C   0  0  0  0  0  3  0  0  0  0  0  0
    0.9060   -0.0150   -3.1860 C   0  0  0  0  0  3  0  0  0  0  0  0
    3.1590    0.0210   -2.3210 C   0  0  0  0  0  3  0  0  0  0  0  0
    2.7270   -0.4720   -1.0780 C   0  0  0  0  0  0  0  0  0  0  0  0
    1.3610   -0.7440   -0.9250 C   0  0  0  0  0  3  0  0  0  0  0  0
    3.6900   -0.6950   -0.0770 N   0  0  0  0  0  0  0  0  0  0  0  0
    4.6120   -0.3430   -0.2910 H   0  0  0  0  0  0  0  0  0  0  0  0
    3.5310   -1.1990    1.1590 C   0  0  0  0  0  0  0  0  0  0  0  0
    2.4880   -1.7300    1.7670 N   0  0  0  0  0  0  0  0  0  0  0  0
    4.6680   -1.1570    1.9280 O   0  0  0  0  0  0  0  0  0  0  0  0
    2.9560   -2.0550    3.0140 C   0  0  0  0  0  0  0  0  0  0  0  0
    4.2900   -1.7040    3.1170 C   0  0  0  0  0  0  0  0  0  0  0  0
    2.3240   -2.6480    4.1140 C   0  0  0  0  0  3  0  0  0  0  0  0
    5.0750   -1.8900    4.2490 C   0  0  0  0  0  3  0  0  0  0  0  0
    3.0800   -2.8560    5.2780 C   0  0  0  0  0  3  0  0  0  0  0  0
    4.4300   -2.4830    5.3420 C   0  0  0  0  0  3  0  0  0  0  0  0
   -1.8130    0.2530   -2.2700 O   0  0  0  0  0  0  0  0  0  0  0  0
   -3.2080   -0.0200   -2.1560 C   0  0  0  0  0  2  0  0  0  0  0  0
   -4.0200    1.1780   -2.6670 C   0  0  2  0  0  3  0  0  0  0  0  0
   -3.7600    2.4370   -1.8330 C   0  0  0  0  0  2  0  0  0  0  0  0
   -5.4070    0.8100   -2.6600 O   0  0  0  0  0  0  0  0  0  0  0  0
   -4.5300    3.6310   -2.3950 C   0  0  0  0  0  2  0  0  0  0  0  0
   -6.3320    1.8990   -2.6110 C   0  0  0  0  0  2  0  0  0  0  0  0
   -5.7730    3.1990   -3.1700 C   0  0  0  0  0  2  0  0  0  0  0  0
  2  1  1  0  0  0  0
  2  7  1  0  0  0  0
  3  4  1  0  0  0  0
  3  5  2  0  0  0  0
  4  2  2  0  0  0  0
  5  6  1  0  0  0  0
  6  7  2  0  0  0  0
  6  8  1  0  0  0  0
  8 10  1  0  0  0  0
  9  8  1  0  0  0  0
 10 11  2  0  0  0  0
 10 12  1  0  0  0  0
 11 13  1  0  0  0  0
 12 14  1  0  0  0  0
 13 14  2  0  0  0  0
 13 15  1  0  0  0  0
 14 16  1  0  0  0  0
 15 17  2  0  0  0  0
 16 18  2  0  0  0  0
 17 18  1  0  0  0  0
 19 20  1  0  0  0  0
 19  1  1  0  0  0  0
 21 23  1  0  0  0  0
 21 20  1  1  0  0  0
 21 22  1  0  0  0  0
 23 25  1  0  0  0  0
 24 22  1  0  0  0  0
 26 25  1  0  0  0  0
 26 24  1  0  0  0  0
M  END
>  <REMARK>
 SMILES c1cc(COCC2CCCCO2)cc(Nc2nc3ccccc3o2)c1
 SMILES IDX 4 1 3 2 1 3 2 4 25 5 14 6 13 7 15 8 16 10 17 11 24 12 18 13
 SMILES IDX 23 14 19 15 22 16 20 17 21 18 5 19 6 20 7 21 8 22 12 23 9 24
 SMILES IDX 11 25 10 26
 H PARENT 15 9

>  <TORSDO>
F 6

$$$$
