/home/pchatterjee/Documents/git/vs_workflow/DiffDock/diffdock_run/pdbqt_scrubbed/Z646312476.pdbqt
 OpenBabel10272516423D

 27 30  0  0  1  0  0  0  0  0999 V2000
    0.4950    1.2270   -1.9630 N   0  0  0  0  0  4  0  0  0  0  0  0
    1.8460    0.5600   -1.8300 C   0  0  0  0  0  2  0  0  0  0  0  0
    2.0430   -0.0510   -0.4560 C   0  0  0  0  0  2  0  0  0  0  0  0
    1.9270    1.0280    0.6250 C   0  0  1  0  0  3  0  0  0  0  0  0
    0.7940    2.0310    0.3760 C   0  0  0  0  0  2  0  0  0  0  0  0
   -0.2040    1.5230   -0.6510 C   0  0  0  0  0  2  0  0  0  0  0  0
    0.6930    2.1470   -2.3750 H   0  0  0  0  0  0  0  0  0  0  0  0
   -0.4240    0.5760   -2.9880 C   0  0  0  0  0  2  0  0  0  0  0  0
   -1.0640   -0.7290   -2.5850 C   0  0  0  0  0  0  0  0  0  0  0  0
   -2.2660   -3.1310   -1.7970 C   0  0  0  0  0  0  0  0  0  0  0  0
   -0.9810   -3.1460   -2.3220 C   0  0  0  0  0  3  0  0  0  0  0  0
   -2.9680   -1.9410   -1.6680 C   0  0  0  0  0  3  0  0  0  0  0  0
   -0.3810   -1.9490   -2.7210 C   0  0  0  0  0  3  0  0  0  0  0  0
   -2.3710   -0.7420   -2.0620 C   0  0  0  0  0  3  0  0  0  0  0  0
   -2.8360   -4.2790   -1.4140 F   0  0  0  0  0  0  0  0  0  0  0  0
    1.9140    0.4600    1.9690 N   0  0  0  0  0  0  0  0  0  0  0  0
    2.4300    0.9770    2.6720 H   0  0  0  0  0  0  0  0  0  0  0  0
    0.8590   -0.2810    2.4660 C   0  0  0  0  0  0  0  0  0  0  0  0
   -0.1660   -0.6620    1.6730 N   0  0  0  0  0  0  0  0  0  0  0  0
    0.7860   -0.6810    3.7910 C   0  0  0  0  0  0  0  0  0  0  0  0
   -1.1680   -1.4010    2.2050 C   0  0  0  0  0  3  0  0  0  0  0  0
    1.5920   -0.5440    4.8900 N   0  0  0  0  0  0  0  0  0  0  0  0
   -0.2910   -1.4180    4.2500 C   0  0  0  0  0  0  0  0  0  0  0  0
   -1.3130   -1.8010    3.4680 N   0  0  0  0  0  0  0  0  0  0  0  0
    0.9750   -1.1650    5.9400 C   0  0  0  0  0  3  0  0  0  0  0  0
   -0.1700   -1.6980    5.5820 N   0  0  0  0  0  0  0  0  0  0  0  0
    2.4920   -0.0880    4.9250 H   0  0  0  0  0  0  0  0  0  0  0  0
  1  2  1  0  0  0  0
  1  6  1  0  0  0  0
  2  3  1  0  0  0  0
  3  4  1  0  0  0  0
  4 16  1  1  0  0  0
  5  4  1  0  0  0  0
  6  5  1  0  0  0  0
  7  1  1  0  0  0  0
  8  9  1  0  0  0  0
  8  1  1  0  0  0  0
  9 14  1  0  0  0  0
 10 12  1  0  0  0  0
 10 15  1  0  0  0  0
 11 10  2  0  0  0  0
 13  9  2  0  0  0  0
 13 11  1  0  0  0  0
 14 12  2  0  0  0  0
 16 18  1  0  0  0  0
 16 17  1  0  0  0  0
 18 20  2  0  0  0  0
 19 21  2  0  0  0  0
 19 18  1  0  0  0  0
 20 23  1  0  0  0  0
 20 22  1  0  0  0  0
 21 24  1  0  0  0  0
 22 27  1  0  0  0  0
 22 25  1  0  0  0  0
 23 26  1  0  0  0  0
 24 23  2  0  0  0  0
 26 25  2  0  0  0  0
M  END
>  <REMARK>
 SMILES Fc1ccc(C[NH+]2CCC(Nc3ncnc4nc[nH]c34)CC2)cc1
 SMILES IDX 7 1 8 2 9 3 10 4 21 5 22 6 6 8 5 9 2 10 3 11 24 12 4 13
 SMILES IDX 23 14 1 15 11 16 12 18 13 19 20 20 14 21 19 22 16 23 15 24
 SMILES IDX 18 25 17 26
 H PARENT 7 7 11 17 19 27

>  <TORSDO>
F 4

$$$$
