/home/pchatterjee/Documents/git/vs_workflow/DiffDock/diffdock_run/pdbqt_scrubbed/Z746476900.pdbqt
 OpenBabel10272516423D

 27 29  0  0  0  0  0  0  0  0999 V2000
    1.8870   -0.7500   -0.6730 N   0  0  0  0  0  0  0  0  0  0  0  0
    2.4900   -0.4240    0.5190 C   0  0  0  0  0  0  0  0  0  0  0  0
    3.5240    0.2320    0.5970 O   0  0  0  0  0  0  0  0  0  0  0  0
    0.9940   -1.2360   -0.6030 H   0  0  0  0  0  0  0  0  0  0  0  0
    2.3500   -0.2830   -1.9570 C   0  0  0  0  0  2  0  0  0  0  0  0
    1.8010    1.0780   -2.2740 C   0  0  0  0  0  0  0  0  0  0  0  0
    0.4770    1.2660   -2.6610 C   0  0  0  0  0  0  0  0  0  0  0  0
   -0.0710    2.4780   -2.8990 N   0  0  0  0  0  0  0  0  0  0  0  0
    0.7360    3.5530   -2.7760 C   0  0  0  0  0  3  0  0  0  0  0  0
    2.5980    2.2200   -2.1310 C   0  0  0  0  0  3  0  0  0  0  0  0
    2.0630    3.4760   -2.3930 C   0  0  0  0  0  3  0  0  0  0  0  0
   -0.3260    0.1440   -2.7180 O   0  0  0  0  0  0  0  0  0  0  0  0
   -1.6800    0.4230   -3.0820 C   0  0  0  0  0  2  0  0  0  0  0  0
   -2.4420   -0.8900   -3.0670 C   0  0  0  0  0  1  0  0  0  0  0  0
    1.7370   -0.9340    1.7580 C   0  0  0  0  0  2  0  0  0  0  0  0
    0.4660   -1.6050    1.3660 N   0  0  0  0  0  0  0  0  0  0  0  0
    0.4630   -3.0520    1.6080 C   0  0  0  0  0  1  0  0  0  0  0  0
   -0.6670   -0.9660    1.8950 C   0  0  0  0  0  0  0  0  0  0  0  0
   -1.4810   -1.5950    2.7760 N   0  0  0  0  0  0  0  0  0  0  0  0
   -1.0630    0.3120    1.5220 C   0  0  0  0  0  0  0  0  0  0  0  0
   -2.5680   -0.9510    3.2500 C   0  0  0  0  0  3  0  0  0  0  0  0
   -0.5890    1.2500    0.6460 N   0  0  0  0  0  0  0  0  0  0  0  0
   -2.2010    0.8910    2.0550 C   0  0  0  0  0  0  0  0  0  0  0  0
   -2.9930    0.2800    2.9520 N   0  0  0  0  0  0  0  0  0  0  0  0
   -1.4310    2.3260    0.6860 C   0  0  0  0  0  3  0  0  0  0  0  0
   -2.4120    2.1430    1.5410 N   0  0  0  0  0  0  0  0  0  0  0  0
    0.2190    1.1540    0.0470 H   0  0  0  0  0  0  0  0  0  0  0  0
  1  4  1  0  0  0  0
  1  2  1  0  0  0  0
  2  3  2  0  0  0  0
  2 15  1  0  0  0  0
  5  1  1  0  0  0  0
  6 10  2  0  0  0  0
  6  5  1  0  0  0  0
  7  6  1  0  0  0  0
  8  9  1  0  0  0  0
  8  7  2  0  0  0  0
  9 11  2  0  0  0  0
 11 10  1  0  0  0  0
 12  7  1  0  0  0  0
 13 14  1  0  0  0  0
 13 12  1  0  0  0  0
 16 17  1  0  0  0  0
 16 15  1  0  0  0  0
 16 18  1  0  0  0  0
 18 19  1  0  0  0  0
 19 21  2  0  0  0  0
 20 18  2  0  0  0  0
 20 23  1  0  0  0  0
 22 25  1  0  0  0  0
 22 20  1  0  0  0  0
 23 24  2  0  0  0  0
 24 21  1  0  0  0  0
 25 26  2  0  0  0  0
 26 23  1  0  0  0  0
 27 22  1  0  0  0  0
M  END
>  <REMARK>
 SMILES CCOc1ncccc1CNC(=O)CN(C)c1ncnc2nc[nH]c12
 SMILES IDX 11 1 12 2 13 3 10 5 9 6 4 7 5 8 6 9 8 10 7 11 3 12 2 13 1 14
 SMILES IDX 14 15 15 16 16 17 17 18 18 19 25 20 19 21 24 22 21 23 20 24
 SMILES IDX 23 25 22 26
 H PARENT 11 4 24 27

>  <TORSDO>
F 7

$$$$
