/home/pchatterjee/Documents/git/vs_workflow/DiffDock/diffdock_run/pdbqt_scrubbed/Z769272146.pdbqt
 OpenBabel10272516423D

 26 29  0  0  1  0  0  0  0  0999 V2000
   -0.4800    1.5370    1.3900 C   0  0  1  0  0  3  0  0  0  0  0  0
   -0.0620    0.9080    2.7320 C   0  0  0  0  0  2  0  0  0  0  0  0
    1.4210    0.5410    2.7980 C   0  0  0  0  0  2  0  0  0  0  0  0
    1.9350    0.0360    1.4570 C   0  0  0  0  0  2  0  0  0  0  0  0
    1.7890    1.0550    0.4170 N   0  0  0  0  0  0  0  0  0  0  0  0
    0.7160    2.0340    0.5740 C   0  0  0  0  0  2  0  0  0  0  0  0
   -1.3520    0.5770    0.5800 C   0  0  0  0  0  0  0  0  0  0  0  0
   -2.5800    0.3290    1.1640 N   0  0  0  0  0  0  0  0  0  0  0  0
   -1.0030    0.0560   -0.4730 O   0  0  0  0  0  0  0  0  0  0  0  0
   -2.9000    0.9580    1.8850 H   0  0  0  0  0  0  0  0  0  0  0  0
   -3.5650   -0.4790    0.4830 C   0  0  0  0  0  2  0  0  0  0  0  0
   -4.7070   -0.8910    1.3600 C   0  0  0  0  0  3  0  0  0  0  0  0
   -4.5790   -1.0670    2.8550 C   0  0  0  0  0  2  0  0  0  0  0  0
   -5.4050    0.0640    2.3000 C   0  0  0  0  0  2  0  0  0  0  0  0
    2.7350    1.2970   -0.5770 C   0  0  0  0  0  0  0  0  0  0  0  0
    2.8440    2.3840   -1.1440 O   0  0  0  0  0  0  0  0  0  0  0  0
    3.6830    0.2270   -0.9620 C   0  0  0  0  0  0  0  0  0  0  0  0
    3.3030   -1.1130   -1.1260 C   0  0  0  0  0  3  0  0  0  0  0  0
    5.0130    0.5520   -1.2540 C   0  0  0  0  0  0  0  0  0  0  0  0
    4.2380   -2.0840   -1.4940 C   0  0  0  0  0  3  0  0  0  0  0  0
    5.6670    1.7560   -1.2780 N   0  0  0  0  0  0  0  0  0  0  0  0
    5.9620   -0.3940   -1.6180 C   0  0  0  0  0  0  0  0  0  0  0  0
    5.5770   -1.7420   -1.7300 C   0  0  0  0  0  3  0  0  0  0  0  0
    6.9800    1.6580   -1.5660 N   0  0  0  0  0  0  0  0  0  0  0  0
    7.1500    0.3510   -1.7860 C   0  0  0  0  0  3  0  0  0  0  0  0
    5.2580    2.6730   -1.1180 H   0  0  0  0  0  0  0  0  0  0  0  0
  1  7  1  6  0  0  0
  1  2  1  0  0  0  0
  2  3  1  0  0  0  0
  4  3  1  0  0  0  0
  5  6  1  0  0  0  0
  5  4  1  0  0  0  0
  6  1  1  0  0  0  0
  7  8  1  0  0  0  0
  8 10  1  0  0  0  0
  9  7  2  0  0  0  0
 11  8  1  0  0  0  0
 11 12  1  0  0  0  0
 12 14  1  0  0  0  0
 12 13  1  0  0  0  0
 14 13  1  0  0  0  0
 15  5  1  0  0  0  0
 16 15  2  0  0  0  0
 17 15  1  0  0  0  0
 18 17  1  0  0  0  0
 19 17  2  0  0  0  0
 20 18  2  0  0  0  0
 21 19  1  0  0  0  0
 21 26  1  0  0  0  0
 22 19  1  0  0  0  0
 23 22  2  0  0  0  0
 23 20  1  0  0  0  0
 24 21  1  0  0  0  0
 25 22  1  0  0  0  0
 25 24  2  0  0  0  0
M  END
>  <REMARK>
 SMILES O=C(NCC1CC1)C1CCCN(C(=O)c2cccc3cn[nH]c23)C1
 SMILES IDX 8 1 9 2 10 3 11 4 12 5 24 6 2 7 3 8 1 9 4 11 5 12 6 13 7 14
 SMILES IDX 13 15 14 16 15 17 16 18 23 19 17 20 22 21 19 22 18 23 21 24
 SMILES IDX 20 25
 H PARENT 3 10 22 26

>  <TORSDO>
F 5

$$$$
