/home/pchatterjee/Documents/git/vs_workflow/DiffDock/diffdock_run/pdbqt_scrubbed/Z776287114.pdbqt
 OpenBabel10272516423D

 25 28  0  0  1  0  0  0  0  0999 V2000
   -1.8530   -0.7010   -0.1000 C   0  0  0  0  0  2  0  0  0  0  0  0
   -2.0200   -2.0420    0.4850 N   0  0  0  0  0  0  0  0  0  0  0  0
   -1.7960   -3.1930   -0.3740 C   0  0  0  0  0  1  0  0  0  0  0  0
   -1.5690   -2.1260    1.7960 C   0  0  0  0  0  0  0  0  0  0  0  0
   -2.4220   -1.7820    2.7870 N   0  0  0  0  0  0  0  0  0  0  0  0
   -0.2970   -2.5040    2.2020 C   0  0  0  0  0  0  0  0  0  0  0  0
   -2.0220   -1.9000    4.0700 C   0  0  0  0  0  3  0  0  0  0  0  0
    0.8710   -2.7970    1.5510 N   0  0  0  0  0  0  0  0  0  0  0  0
    0.0310   -2.5810    3.5430 C   0  0  0  0  0  0  0  0  0  0  0  0
   -0.8310   -2.2940    4.5330 N   0  0  0  0  0  0  0  0  0  0  0  0
    1.8190   -3.0710    2.4970 C   0  0  0  0  0  3  0  0  0  0  0  0
    1.3370   -2.9600    3.7150 N   0  0  0  0  0  0  0  0  0  0  0  0
    1.0220   -2.7040    0.5530 H   0  0  0  0  0  0  0  0  0  0  0  0
   -0.3800   -0.3220   -0.3860 C   0  0  0  0  0  0  0  0  0  0  0  0
    0.4590   -1.1740   -0.7030 O   0  0  0  0  0  0  0  0  0  0  0  0
   -0.0400    1.0190   -0.2980 N   0  0  0  0  0  0  0  0  0  0  0  0
   -0.8710    2.0600    0.2870 C   0  0  0  0  0  2  0  0  0  0  0  0
    1.3450    1.4720   -0.4810 C   0  0  2  0  0  3  0  0  0  0  0  0
   -0.0720    3.3390    0.1230 C   0  0  0  0  0  2  0  0  0  0  0  0
    1.3720    2.8570    0.1840 C   0  0  0  0  0  2  0  0  0  0  0  0
    1.7840    1.4240   -1.9580 C   0  0  0  0  0  3  0  0  0  0  0  0
    3.2830    1.6710   -2.1650 C   0  0  0  0  0  2  0  0  0  0  0  0
    1.1430    2.4340   -2.9080 C   0  0  0  0  0  2  0  0  0  0  0  0
    3.4260    2.1050   -3.6260 C   0  0  0  0  0  2  0  0  0  0  0  0
    2.0090    2.3110   -4.1550 C   0  0  0  0  0  2  0  0  0  0  0  0
  1  2  1  0  0  0  0
  2  4  1  0  0  0  0
  3  2  1  0  0  0  0
  4  6  2  0  0  0  0
  4  5  1  0  0  0  0
  5  7  2  0  0  0  0
  6  9  1  0  0  0  0
  7 10  1  0  0  0  0
  8  6  1  0  0  0  0
  8 11  1  0  0  0  0
  9 12  1  0  0  0  0
  9 10  2  0  0  0  0
 11 12  2  0  0  0  0
 13  8  1  0  0  0  0
 14 16  1  0  0  0  0
 14  1  1  0  0  0  0
 15 14  2  0  0  0  0
 16 17  1  0  0  0  0
 18 21  1  6  0  0  0
 18 16  1  0  0  0  0
 18 20  1  0  0  0  0
 19 20  1  0  0  0  0
 19 17  1  0  0  0  0
 22 21  1  0  0  0  0
 23 21  1  0  0  0  0
 24 22  1  0  0  0  0
 25 24  1  0  0  0  0
 25 23  1  0  0  0  0
M  END
>  <REMARK>
 SMILES CN(CC(=O)N1CCCC1C1CCCC1)c1ncnc2nc[nH]c12
 SMILES IDX 3 1 2 2 1 3 16 4 17 5 24 6 18 7 23 8 20 9 19 10 22 11 21 12
 SMILES IDX 4 14 5 15 6 16 7 17 10 18 8 19 9 20 11 21 12 22 15 23 13 24
 SMILES IDX 14 25
 H PARENT 23 13

>  <TORSDO>
F 5

$$$$
