/home/pchatterjee/Documents/git/vs_workflow/DiffDock/diffdock_run/pdbqt_scrubbed/Z811081058.pdbqt
 OpenBabel10272516423D

 26 29  0  0  1  0  0  0  0  0999 V2000
   -1.2660    2.1620   -0.9370 O   0  0  0  0  0  0  0  0  0  0  0  0
   -0.8250    1.1140   -0.4690 C   0  0  0  0  0  0  0  0  0  0  0  0
   -0.7870    0.9320    0.9760 C   0  0  0  0  0  0  0  0  0  0  0  0
   -0.1290    1.7800    1.8540 C   0  0  0  0  0  3  0  0  0  0  0  0
   -1.4600   -0.0480    1.7740 C   0  0  0  0  0  0  0  0  0  0  0  0
   -0.3340    1.3230    3.1290 N   0  0  0  0  0  0  0  0  0  0  0  0
   -2.3180   -1.1360    1.5310 C   0  0  0  0  0  3  0  0  0  0  0  0
   -1.1400    0.2190    3.1010 C   0  0  0  0  0  0  0  0  0  0  0  0
   -2.7660   -1.8690    2.6300 C   0  0  0  0  0  3  0  0  0  0  0  0
   -1.5410   -0.4540    4.1940 N   0  0  0  0  0  0  0  0  0  0  0  0
   -2.3550   -1.4940    3.9030 C   0  0  0  0  0  3  0  0  0  0  0  0
    0.0180    1.7330    3.9810 H   0  0  0  0  0  0  0  0  0  0  0  0
   -0.3710    0.0730   -1.2810 N   0  0  0  0  0  0  0  0  0  0  0  0
    0.3770   -1.0960   -0.8030 C   0  0  0  0  0  2  0  0  0  0  0  0
    1.8330   -1.0690   -1.2130 C   0  0  0  0  0  0  0  0  0  0  0  0
    2.6960   -0.0780   -0.7220 C   0  0  0  0  0  3  0  0  0  0  0  0
    2.3440   -2.0410   -2.0850 C   0  0  0  0  0  3  0  0  0  0  0  0
    4.0400   -0.0580   -1.0990 C   0  0  0  0  0  3  0  0  0  0  0  0
    3.6880   -2.0200   -2.4610 C   0  0  0  0  0  3  0  0  0  0  0  0
    4.5350   -1.0290   -1.9680 C   0  0  0  0  0  3  0  0  0  0  0  0
   -0.5680    0.1980   -2.7320 C   0  0  0  0  0  2  0  0  0  0  0  0
   -1.8270   -0.5010   -3.2670 C   0  0  2  0  0  3  0  0  0  0  0  0
   -3.1520   -0.0520   -2.6740 C   0  0  0  0  0  2  0  0  0  0  0  0
   -1.7700   -1.9300   -3.0730 O   0  0  0  0  0  0  0  0  0  0  0  0
   -4.0380   -1.2250   -3.0150 C   0  0  0  0  0  2  0  0  0  0  0  0
   -3.1020   -2.3980   -2.8090 C   0  0  0  0  0  2  0  0  0  0  0  0
  1  2  2  0  0  0  0
  2  3  1  0  0  0  0
  3  5  1  0  0  0  0
  3  4  2  0  0  0  0
  4  6  1  0  0  0  0
  5  8  1  0  0  0  0
  6 12  1  0  0  0  0
  7  5  2  0  0  0  0
  7  9  1  0  0  0  0
  8  6  1  0  0  0  0
  8 10  2  0  0  0  0
  9 11  2  0  0  0  0
 11 10  1  0  0  0  0
 13 14  1  0  0  0  0
 13  2  1  0  0  0  0
 15 14  1  0  0  0  0
 15 16  1  0  0  0  0
 17 15  2  0  0  0  0
 18 16  2  0  0  0  0
 19 17  1  0  0  0  0
 19 20  2  0  0  0  0
 20 18  1  0  0  0  0
 21 13  1  0  0  0  0
 22 24  1  0  0  0  0
 22 21  1  1  0  0  0
 22 23  1  0  0  0  0
 24 26  1  0  0  0  0
 25 26  1  0  0  0  0
 25 23  1  0  0  0  0
M  END
>  <REMARK>
 SMILES O=C(c1c[nH]c2ncccc12)N(Cc1ccccc1)CC1CCCO1
 SMILES IDX 1 1 2 2 3 3 4 4 11 5 5 6 10 7 6 8 9 9 7 10 8 11 12 13 13 14
 SMILES IDX 14 15 15 16 19 17 16 18 18 19 17 20 20 21 21 22 22 23 25 24
 SMILES IDX 23 25 24 26
 H PARENT 5 12

>  <TORSDO>
F 6

$$$$
