/home/pchatterjee/Documents/git/vs_workflow/DiffDock/diffdock_run/pdbqt_scrubbed/Z811085044.pdbqt
 OpenBabel10272516423D

 27 30  0  0  1  0  0  0  0  0999 V2000
    0.1950   -0.5460    1.9310 C   0  0  0  0  0  0  0  0  0  0  0  0
    0.0660   -0.7240    3.1380 O   0  0  0  0  0  0  0  0  0  0  0  0
   -0.3440   -1.5890    1.0470 C   0  0  0  0  0  0  0  0  0  0  0  0
   -3.2420   -3.0480   -0.5120 C   0  0  0  0  0  0  0  0  0  0  0  0
   -2.9960   -4.1000   -1.3610 N   0  0  0  0  0  0  0  0  0  0  0  0
   -2.0010   -2.6930   -0.0440 C   0  0  0  0  0  0  0  0  0  0  0  0
   -1.6960   -4.4310   -1.4870 N   0  0  0  0  0  0  0  0  0  0  0  0
   -1.7290   -1.6650    0.8480 C   0  0  0  0  0  3  0  0  0  0  0  0
   -1.0690   -3.5800   -0.6740 C   0  0  0  0  0  0  0  0  0  0  0  0
    0.2680   -3.5010   -0.4390 N   0  0  0  0  0  0  0  0  0  0  0  0
    0.5630   -2.4940    0.4440 C   0  0  0  0  0  3  0  0  0  0  0  0
   -4.6040   -2.5260   -0.2620 C   0  0  0  0  0  1  0  0  0  0  0  0
   -3.6720   -4.6360   -1.8940 H   0  0  0  0  0  0  0  0  0  0  0  0
    0.7970    0.5730    1.3500 N   0  0  0  0  0  0  0  0  0  0  0  0
    0.7590    0.8720   -0.0860 C   0  0  0  0  0  2  0  0  0  0  0  0
   -0.6170    1.2370   -0.5950 C   0  0  0  0  0  0  0  0  0  0  0  0
   -1.4380    2.1410    0.0950 C   0  0  0  0  0  3  0  0  0  0  0  0
   -1.0830    0.6920   -1.8020 C   0  0  0  0  0  3  0  0  0  0  0  0
   -2.7020    2.4720   -0.3970 C   0  0  0  0  0  3  0  0  0  0  0  0
   -2.3470    1.0230   -2.2920 C   0  0  0  0  0  3  0  0  0  0  0  0
   -3.1570    1.9120   -1.5880 C   0  0  0  0  0  3  0  0  0  0  0  0
    1.4920    1.5150    2.2360 C   0  0  0  0  0  2  0  0  0  0  0  0
    2.9940    1.2250    2.4570 C   0  0  2  0  0  3  0  0  0  0  0  0
    3.8980    1.4720    1.2540 C   0  0  0  0  0  2  0  0  0  0  0  0
    3.2100   -0.1380    2.8680 O   0  0  0  0  0  0  0  0  0  0  0  0
    4.2400    0.0840    0.7730 C   0  0  0  0  0  2  0  0  0  0  0  0
    4.2480   -0.7010    2.0620 C   0  0  0  0  0  2  0  0  0  0  0  0
  1  2  2  0  0  0  0
  3  1  1  0  0  0  0
  4 12  1  0  0  0  0
  4  6  2  0  0  0  0
  5  4  1  0  0  0  0
  6  8  1  0  0  0  0
  7  5  1  0  0  0  0
  7  9  2  0  0  0  0
  8  3  2  0  0  0  0
  9 10  1  0  0  0  0
  9  6  1  0  0  0  0
 10 11  2  0  0  0  0
 11  3  1  0  0  0  0
 13  5  1  0  0  0  0
 14  1  1  0  0  0  0
 14 22  1  0  0  0  0
 15 14  1  0  0  0  0
 16 15  1  0  0  0  0
 16 17  1  0  0  0  0
 18 16  2  0  0  0  0
 19 17  2  0  0  0  0
 20 18  1  0  0  0  0
 20 21  2  0  0  0  0
 21 19  1  0  0  0  0
 23 22  1  6  0  0  0
 23 25  1  0  0  0  0
 24 23  1  0  0  0  0
 26 24  1  0  0  0  0
 26 27  1  0  0  0  0
 27 25  1  0  0  0  0
M  END
>  <REMARK>
 SMILES Cc1[nH]nc2ncc(C(=O)N(Cc3ccccc3)CC3CCCO3)cc12
 SMILES IDX 9 1 10 2 8 3 2 4 3 5 26 6 4 7 25 8 5 9 6 10 7 11 1 12 11 14
 SMILES IDX 12 15 13 16 14 17 18 18 15 19 17 20 16 21 19 22 20 23 21 24
 SMILES IDX 24 25 22 26 23 27
 H PARENT 3 13

>  <TORSDO>
F 6

$$$$
