/home/pchatterjee/Documents/git/vs_workflow/DiffDock/diffdock_run/pdbqt_scrubbed/Z878814608.pdbqt
 OpenBabel10272516423D

 30 33  0  0  1  0  0  0  0  0999 V2000
    1.0210    1.0690   -0.1440 C   0  0  0  0  0  0  0  0  0  0  0  0
    2.4120    1.1400   -0.2200 C   0  0  0  0  0  3  0  0  0  0  0  0
    3.2050    0.6050    0.7990 C   0  0  0  0  0  3  0  0  0  0  0  0
    2.6130    0.0060    1.9110 C   0  0  0  0  0  3  0  0  0  0  0  0
    1.2190   -0.0570    2.0180 C   0  0  0  0  0  0  0  0  0  0  0  0
    0.4330    0.4600    0.9750 C   0  0  0  0  0  3  0  0  0  0  0  0
    0.1480    1.5870   -1.1230 N   0  0  0  0  0  0  0  0  0  0  0  0
    0.4830    2.2280   -2.3010 C   0  0  0  0  0  0  0  0  0  0  0  0
    1.6110    2.4180   -2.7340 O   0  0  0  0  0  0  0  0  0  0  0  0
   -0.8370    1.4340   -0.9590 H   0  0  0  0  0  0  0  0  0  0  0  0
   -0.6820    2.7000   -3.0350 C   0  0  0  0  0  0  0  0  0  0  0  0
   -1.7520    3.4210   -2.5210 C   0  0  0  0  0  0  0  0  0  0  0  0
   -2.6430    3.7250   -3.5080 O   0  0  0  0  0  0  0  0  0  0  0  0
   -2.1490    3.2270   -4.6760 C   0  0  0  0  0  0  0  0  0  0  0  0
   -0.9510    2.5880   -4.4220 C   0  0  2  0  0  3  0  0  0  0  0  0
   -2.7740    3.3610   -5.8710 N   0  0  0  0  0  0  0  0  0  0  0  0
   -0.2710    1.9720   -5.5290 C   0  0  0  0  0  0  0  0  0  0  0  0
   -2.1180    2.8270   -6.8520 C   0  0  0  0  0  2  0  0  0  0  0  0
   -0.9100    2.1760   -6.7360 N   0  0  0  0  0  0  0  0  0  0  0  0
   -2.0880    3.9430   -1.1760 C   0  0  0  0  0  1  0  0  0  0  0  0
    0.7410    1.2870   -5.4430 O   0  0  0  0  0  0  0  0  0  0  0  0
   -0.4740    1.7460   -7.5400 H   0  0  0  0  0  0  0  0  0  0  0  0
    0.5730   -0.6910    3.2210 C   0  0  0  0  0  2  0  0  0  0  0  0
    0.3890   -2.0780    2.9590 O   0  0  0  0  0  0  0  0  0  0  0  0
   -0.2280   -2.7800    4.0460 C   0  0  0  0  0  3  0  0  0  0  0  0
    0.1270   -4.2700    3.9010 C   0  0  0  0  0  2  0  0  0  0  0  0
   -1.7470   -2.5810    4.0240 C   0  0  0  0  0  2  0  0  0  0  0  0
   -0.9210   -5.0870    3.1340 C   0  0  0  0  0  2  0  0  0  0  0  0
   -2.3740   -3.0560    2.7070 C   0  0  0  0  0  2  0  0  0  0  0  0
   -1.6530   -4.2570    2.0860 C   0  0  0  0  0  2  0  0  0  0  0  0
  1  6  1  0  0  0  0
  2  1  2  0  0  0  0
  2  3  1  0  0  0  0
  3  4  2  0  0  0  0
  4  5  1  0  0  0  0
  5 23  1  0  0  0  0
  6  5  2  0  0  0  0
  7 10  1  0  0  0  0
  7  1  1  0  0  0  0
  8  7  1  0  0  0  0
  9  8  2  0  0  0  0
 11 12  2  0  0  0  0
 11  8  1  0  0  0  0
 12 20  1  0  0  0  0
 13 12  1  0  0  0  0
 14 15  1  0  0  0  0
 14 13  1  0  0  0  0
 15 17  1  1  0  0  0
 15 11  1  0  0  0  0
 16 14  2  0  0  0  0
 17 21  2  0  0  0  0
 18 19  1  0  0  0  0
 18 16  1  0  0  0  0
 19 17  1  0  0  0  0
 22 19  1  0  0  0  0
 24 23  1  0  0  0  0
 24 25  1  0  0  0  0
 26 25  1  0  0  0  0
 27 25  1  0  0  0  0
 28 26  1  0  0  0  0
 29 27  1  0  0  0  0
 30 29  1  0  0  0  0
 30 28  1  0  0  0  0
M  END
>  <REMARK>
 SMILES Cc1oc2nc[nH]c(=O)c2c1C(=O)Nc1cccc(COC2CCCCC2)c1
 SMILES IDX 15 1 16 2 17 3 18 4 19 5 28 6 14 7 12 8 13 9 11 11 2 12 3 13
 SMILES IDX 4 14 10 15 5 16 8 17 6 18 7 19 1 20 9 21 20 23 21 24 22 25
 SMILES IDX 23 26 27 27 24 28 26 29 25 30
 H PARENT 14 10 7 22

>  <TORSDO>
F 5

$$$$
