/home/pchatterjee/Documents/git/vs_workflow/DiffDock/diffdock_run/pdbqt_scrubbed/Z89684168.pdbqt
 OpenBabel10272516423D

 27 29  0  0  0  0  0  0  0  0999 V2000
   -4.5670    0.2790    0.7540 O   0  0  0  0  0  0  0  0  0  0  0  0
   -4.3030    1.5800    0.4070 C   0  0  0  0  0  0  0  0  0  0  0  0
   -3.9230    2.4780    1.4150 C   0  0  0  0  0  0  0  0  0  0  0  0
   -3.6690    3.8170    1.0860 C   0  0  0  0  0  3  0  0  0  0  0  0
   -3.8100    4.2570   -0.2300 C   0  0  0  0  0  3  0  0  0  0  0  0
   -4.4690    2.0310   -0.9060 C   0  0  0  0  0  3  0  0  0  0  0  0
   -4.2150    3.3660   -1.2230 C   0  0  0  0  0  3  0  0  0  0  0  0
   -3.7700    2.0520    2.7780 C   0  0  0  0  0  0  0  0  0  0  0  0
   -3.6390    1.7490    3.8910 N   0  0  0  0  0  0  0  0  0  0  0  0
   -3.8190   -0.7010    0.0100 C   0  0  0  0  0  2  0  0  0  0  0  0
   -2.3140   -0.6440    0.1970 C   0  0  0  0  0  0  0  0  0  0  0  0
   -1.8400   -0.2310    1.3690 N   0  0  0  0  0  4  0  0  0  0  0  0
   -1.5500   -1.0510   -0.8200 N   0  0  0  0  0  0  0  0  0  0  0  0
   -0.5250   -0.1970    1.4670 C   0  0  0  0  0  0  0  0  0  0  0  0
   -0.2350   -1.0010   -0.6120 C   0  0  0  0  0  0  0  0  0  0  0  0
    0.3140   -0.5860    0.5240 N   0  0  0  0  0  2  0  0  0  0  0  0
    0.0030    0.2590    2.6570 N   0  0  0  0  0  0  0  0  0  0  0  0
    0.9120   -0.1450    2.8270 H   0  0  0  0  0  0  0  0  0  0  0  0
   -0.6840    0.1940    3.3980 H   0  0  0  0  0  0  0  0  0  0  0  0
    0.5390   -1.4420   -1.6840 N   0  0  0  0  0  0  0  0  0  0  0  0
   -0.0670   -1.7170   -2.4430 H   0  0  0  0  0  0  0  0  0  0  0  0
    1.9150   -1.4770   -1.9420 C   0  0  0  0  0  0  0  0  0  0  0  0
    2.8870   -0.9810   -1.0680 C   0  0  0  0  0  3  0  0  0  0  0  0
    2.3570   -2.0810   -3.1310 C   0  0  0  0  0  3  0  0  0  0  0  0
    4.2500   -1.0670   -1.3750 C   0  0  0  0  0  3  0  0  0  0  0  0
    3.7180   -2.1710   -3.4420 C   0  0  0  0  0  3  0  0  0  0  0  0
    4.6660   -1.6620   -2.5620 C   0  0  0  0  0  3  0  0  0  0  0  0
  2  1  1  0  0  0  0
  2  3  1  0  0  0  0
  3  8  1  0  0  0  0
  4  3  2  0  0  0  0
  5  4  1  0  0  0  0
  6  2  2  0  0  0  0
  7  6  1  0  0  0  0
  7  5  2  0  0  0  0
  8  9  3  0  0  0  0
 10 11  1  0  0  0  0
 10  1  1  0  0  0  0
 11 12  2  0  0  0  0
 12 14  2  0  0  0  0
 13 15  2  0  0  0  0
 13 11  1  0  0  0  0
 14 17  1  0  0  0  0
 15 16  1  0  0  0  0
 16 14  1  0  0  0  0
 17 18  1  0  0  0  0
 17 19  1  0  0  0  0
 20 15  1  0  0  0  0
 21 20  1  0  0  0  0
 22 20  1  0  0  0  0
 22 23  1  0  0  0  0
 24 22  2  0  0  0  0
 25 23  2  0  0  0  0
 26 24  1  0  0  0  0
 26 27  2  0  0  0  0
 27 25  1  0  0  0  0
M  END
>  <REMARK>
 SMILES N#Cc1ccccc1OCc1nc(N)nc(Nc2ccccc2)n1
 SMILES IDX 9 1 8 2 3 3 4 4 5 5 7 6 6 7 2 8 1 9 10 10 11 11 12 12 24 13
 SMILES IDX 13 14 16 15 15 16 14 17 17 20 18 22 19 23 23 24 20 25 22 26
 SMILES IDX 21 27
 H PARENT 14 18 14 19 17 21

>  <TORSDO>
F 7

$$$$
