/home/pchatterjee/Documents/git/vs_workflow/DiffDock/diffdock_run/pdbqt_scrubbed/Z89758626.pdbqt
 OpenBabel10272516423D

 34 38  0  0  0  0  0  0  0  0999 V2000
   -0.0600   -2.7240   -2.3460 C   0  0  0  0  0  2  0  0  0  0  0  0
    0.3480   -2.5650   -0.9010 C   0  0  0  0  0  0  0  0  0  0  0  0
    1.8430   -1.8890    0.6240 C   0  0  0  0  0  0  0  0  0  0  0  0
    1.5680   -2.0990   -0.6490 N   0  0  0  0  0  4  0  0  0  0  0  0
    1.0030   -2.0940    1.6240 N   0  0  0  0  0  0  0  0  0  0  0  0
   -0.1940   -2.5710    1.2920 C   0  0  0  0  0  0  0  0  0  0  0  0
   -0.5650   -2.8140    0.0390 N   0  0  0  0  0  2  0  0  0  0  0  0
    3.0830   -1.3580    0.9180 N   0  0  0  0  0  0  0  0  0  0  0  0
    3.4490   -0.8830    0.1010 H   0  0  0  0  0  0  0  0  0  0  0  0
    3.0460   -0.8200    1.7710 H   0  0  0  0  0  0  0  0  0  0  0  0
   -1.0580   -2.7800    2.3640 N   0  0  0  0  0  0  0  0  0  0  0  0
   -0.5780   -2.5530    3.2230 H   0  0  0  0  0  0  0  0  0  0  0  0
   -2.3980   -3.1660    2.4760 C   0  0  0  0  0  0  0  0  0  0  0  0
   -3.2310   -3.4310    1.3850 C   0  0  0  0  0  3  0  0  0  0  0  0
   -2.9460   -3.3140    3.7620 C   0  0  0  0  0  3  0  0  0  0  0  0
   -4.5630   -3.8220    1.5660 C   0  0  0  0  0  3  0  0  0  0  0  0
   -4.2760   -3.7040    3.9490 C   0  0  0  0  0  3  0  0  0  0  0  0
   -5.0860   -3.9580    2.8480 C   0  0  0  0  0  3  0  0  0  0  0  0
   -0.9310   -1.2500   -2.9850 S   0  0  0  0  0  0  0  0  0  0  0  0
    0.3650   -0.1100   -2.9070 C   0  0  0  0  0  0  0  0  0  0  0  0
    1.5260   -0.2360   -3.5070 N   0  0  0  0  0  0  0  0  0  0  0  0
    0.3450    1.0510   -2.1870 N   0  0  0  0  0  0  0  0  0  0  0  0
    2.2810    0.8720   -3.1900 N   0  0  0  0  0  0  0  0  0  0  0  0
    1.5680    1.6490   -2.3930 C   0  0  0  0  0  0  0  0  0  0  0  0
   -0.8140    1.6660   -1.4950 C   0  0  0  0  0  3  0  0  0  0  0  0
   -0.7640    2.1000   -0.0460 C   0  0  0  0  0  2  0  0  0  0  0  0
   -1.6420    0.9580   -0.4470 C   0  0  0  0  0  2  0  0  0  0  0  0
    1.9890    2.9320   -1.8600 C   0  0  0  0  0  0  0  0  0  0  0  0
    1.8790    4.0900   -2.6390 C   0  0  0  0  0  3  0  0  0  0  0  0
    2.5400    3.0280   -0.5800 C   0  0  0  0  0  0  0  0  0  0  0  0
    2.2940    5.3240   -2.1290 C   0  0  0  0  0  3  0  0  0  0  0  0
    2.9540    4.2550   -0.0660 C   0  0  0  0  0  3  0  0  0  0  0  0
    2.8280    5.4060   -0.8430 C   0  0  0  0  0  3  0  0  0  0  0  0
    2.6680    1.9340    0.1870 F   0  0  0  0  0  0  0  0  0  0  0  0
  1  2  1  0  0  0  0
  2  4  2  0  0  0  0
  2  7  1  0  0  0  0
  3  8  1  0  0  0  0
  3  5  1  0  0  0  0
  4  3  2  0  0  0  0
  6  5  2  0  0  0  0
  6 11  1  0  0  0  0
  7  6  1  0  0  0  0
  8 10  1  0  0  0  0
  9  8  1  0  0  0  0
 11 13  1  0  0  0  0
 11 12  1  0  0  0  0
 13 15  1  0  0  0  0
 14 16  1  0  0  0  0
 14 13  2  0  0  0  0
 15 17  2  0  0  0  0
 16 18  2  0  0  0  0
 18 17  1  0  0  0  0
 19 20  1  0  0  0  0
 19  1  1  0  0  0  0
 20 22  1  0  0  0  0
 21 23  1  0  0  0  0
 21 20  2  0  0  0  0
 22 25  1  0  0  0  0
 23 24  2  0  0  0  0
 24 22  1  0  0  0  0
 24 28  1  0  0  0  0
 25 27  1  0  0  0  0
 25 26  1  0  0  0  0
 27 26  1  0  0  0  0
 28 30  1  0  0  0  0
 29 31  1  0  0  0  0
 29 28  2  0  0  0  0
 30 32  2  0  0  0  0
 30 34  1  0  0  0  0
 31 33  2  0  0  0  0
 33 32  1  0  0  0  0
M  END
>  <REMARK>
 SMILES Nc1nc(CSc2nnc(-c3ccccc3F)n2C2CC2)nc(Nc2ccccc2)n1
 SMILES IDX 5 1 4 2 2 3 3 4 31 5 23 6 22 7 1 8 24 11 25 13 26 14 30 15
 SMILES IDX 27 16 29 17 28 18 6 19 7 20 8 21 18 22 9 23 10 24 19 25
 SMILES IDX 20 26 21 27 11 28 12 29 16 30 13 31 15 32 14 33 17 34
 H PARENT 1 9 1 10 24 12

>  <TORSDO>
F 8

$$$$
