/home/pchatterjee/Documents/git/vs_workflow/DiffDock/diffdock_run/pdbqt_scrubbed/Z91647328.pdbqt
 OpenBabel10272516423D

 27 29  0  0  0  0  0  0  0  0999 V2000
   -0.6440   -0.1950   -1.4220 C   0  0  0  0  0  0  0  0  0  0  0  0
   -0.2540   -1.4510   -1.6070 N   0  0  0  0  0  4  0  0  0  0  0  0
    0.9380   -1.6170   -2.1530 C   0  0  0  0  0  0  0  0  0  0  0  0
    1.7340   -0.6430   -2.5520 N   0  0  0  0  0  0  0  0  0  0  0  0
    1.2770    0.5880   -2.3210 C   0  0  0  0  0  0  0  0  0  0  0  0
    0.0880    0.8600   -1.7750 N   0  0  0  0  0  2  0  0  0  0  0  0
   -1.8820    0.1160   -0.8640 N   0  0  0  0  0  0  0  0  0  0  0  0
   -1.9830    1.1190   -0.8120 H   0  0  0  0  0  0  0  0  0  0  0  0
   -2.8930   -0.6410   -0.2610 C   0  0  0  0  0  0  0  0  0  0  0  0
   -5.0460   -2.0680    0.9190 C   0  0  0  0  0  0  0  0  0  0  0  0
   -3.8760   -2.7270    0.5370 C   0  0  0  0  0  3  0  0  0  0  0  0
   -5.1490   -0.6950    0.6850 C   0  0  0  0  0  3  0  0  0  0  0  0
   -2.8150   -2.0200   -0.0450 C   0  0  0  0  0  3  0  0  0  0  0  0
   -4.0850    0.0040    0.1050 C   0  0  0  0  0  3  0  0  0  0  0  0
   -6.1930   -2.8310    1.5100 C   0  0  0  0  0  1  0  0  0  0  0  0
    1.3640   -2.9120   -2.3690 N   0  0  0  0  0  0  0  0  0  0  0  0
    0.5730   -3.5370   -2.4370 H   0  0  0  0  0  0  0  0  0  0  0  0
    2.0490   -2.9390   -3.1110 H   0  0  0  0  0  0  0  0  0  0  0  0
    2.1430    1.7570   -2.7370 C   0  0  0  0  0  2  0  0  0  0  0  0
    3.3910    1.8090   -2.0390 O   0  0  0  0  0  0  0  0  0  0  0  0
    3.4310    2.3800   -0.7990 C   0  0  0  0  0  0  0  0  0  0  0  0
    4.6990    2.3980   -0.2140 C   0  0  0  0  0  3  0  0  0  0  0  0
    2.3550    2.9180   -0.0960 C   0  0  0  0  0  3  0  0  0  0  0  0
    4.8960    2.9510    1.0540 C   0  0  0  0  0  3  0  0  0  0  0  0
    2.5490    3.4720    1.1760 C   0  0  0  0  0  3  0  0  0  0  0  0
    3.8230    3.5050    1.7550 C   0  0  0  0  0  0  0  0  0  0  0  0
    4.0180    4.0660    3.1320 C   0  0  0  0  0  1  0  0  0  0  0  0
  1  7  1  0  0  0  0
  2  1  2  0  0  0  0
  3  2  2  0  0  0  0
  4  5  2  0  0  0  0
  4  3  1  0  0  0  0
  5  6  1  0  0  0  0
  6  1  1  0  0  0  0
  7  8  1  0  0  0  0
  7  9  1  0  0  0  0
  9 13  2  0  0  0  0
  9 14  1  0  0  0  0
 10 15  1  0  0  0  0
 11 10  2  0  0  0  0
 12 10  1  0  0  0  0
 13 11  1  0  0  0  0
 14 12  2  0  0  0  0
 16  3  1  0  0  0  0
 17 16  1  0  0  0  0
 18 16  1  0  0  0  0
 19  5  1  0  0  0  0
 19 20  1  0  0  0  0
 20 21  1  0  0  0  0
 21 22  2  0  0  0  0
 21 23  1  0  0  0  0
 22 24  1  0  0  0  0
 23 25  2  0  0  0  0
 24 26  2  0  0  0  0
 25 26  1  0  0  0  0
 26 27  1  0  0  0  0
M  END
>  <REMARK>
 SMILES Cc1ccc(Nc2nc(N)nc(COc3ccc(C)cc3)n2)cc1
 SMILES IDX 7 1 8 2 9 3 11 4 12 5 22 6 6 7 5 9 2 10 3 11 24 12 4 13
 SMILES IDX 23 14 1 15 10 16 13 19 14 20 15 21 16 22 21 23 17 24 20 25
 SMILES IDX 18 26 19 27
 H PARENT 6 8 10 17 10 18

>  <TORSDO>
F 6

$$$$
