/home/pchatterjee/Documents/git/vs_workflow/DiffDock/diffdock_run/pdbqt_scrubbed/Z91661383.pdbqt
 OpenBabel10272516423D

 31 33  0  0  0  0  0  0  0  0999 V2000
   -2.0170   -0.8580    0.8080 C   0  0  0  0  0  2  0  0  0  0  0  0
   -0.8120   -0.2230    1.4600 C   0  0  0  0  0  0  0  0  0  0  0  0
    0.8750    1.2770    1.3930 C   0  0  0  0  0  0  0  0  0  0  0  0
    1.3500    0.8390    2.5560 N   0  0  0  0  0  4  0  0  0  0  0  0
   -0.2090    0.7750    0.8120 N   0  0  0  0  0  0  0  0  0  0  0  0
    0.6880   -0.1600    3.1160 C   0  0  0  0  0  0  0  0  0  0  0  0
   -0.4030   -0.7210    2.6270 N   0  0  0  0  0  2  0  0  0  0  0  0
    1.6040    2.3140    0.8160 N   0  0  0  0  0  0  0  0  0  0  0  0
    2.4100    2.5120    1.3920 H   0  0  0  0  0  0  0  0  0  0  0  0
    1.4960    3.0400   -0.3760 C   0  0  0  0  0  0  0  0  0  0  0  0
    1.4020    4.5780   -2.7610 C   0  0  0  0  0  0  0  0  0  0  0  0
    0.4040    3.6440   -2.4720 C   0  0  0  0  0  3  0  0  0  0  0  0
    2.4370    4.7580   -1.8420 C   0  0  0  0  0  3  0  0  0  0  0  0
    0.4560    2.8840   -1.2960 C   0  0  0  0  0  3  0  0  0  0  0  0
    2.4820    3.9960   -0.6690 C   0  0  0  0  0  3  0  0  0  0  0  0
    1.3280    5.4110   -4.0060 C   0  0  0  0  0  1  0  0  0  0  0  0
    1.1540   -0.6320    4.3260 N   0  0  0  0  0  0  0  0  0  0  0  0
    1.7050    0.0700    4.7980 H   0  0  0  0  0  0  0  0  0  0  0  0
    0.4110   -1.0690    4.8520 H   0  0  0  0  0  0  0  0  0  0  0  0
   -1.5820   -1.8330   -0.1610 O   0  0  0  0  0  0  0  0  0  0  0  0
   -2.2030   -3.0420    0.0200 C   0  0  0  0  0  0  0  0  0  0  0  0
   -1.8410   -3.8190    1.1290 C   0  0  0  0  0  3  0  0  0  0  0  0
   -3.1300   -3.5290   -0.9130 C   0  0  0  0  0  0  0  0  0  0  0  0
   -2.4400   -5.0610    1.3440 C   0  0  0  0  0  3  0  0  0  0  0  0
   -3.7290   -4.7780   -0.6790 C   0  0  0  0  0  3  0  0  0  0  0  0
   -3.3890   -5.5370    0.4440 C   0  0  0  0  0  3  0  0  0  0  0  0
   -3.5410   -2.8040   -2.1520 C   0  0  0  0  0  0  0  0  0  0  0  0
   -2.8200   -1.7070   -2.5270 N   0  0  0  0  0  0  0  0  0  0  0  0
   -4.4830   -3.1860   -2.8380 O   0  0  0  0  0  0  0  0  0  0  0  0
   -1.9370   -1.4860   -2.0820 H   0  0  0  0  0  0  0  0  0  0  0  0
   -3.0200   -1.3100   -3.4340 H   0  0  0  0  0  0  0  0  0  0  0  0
  1  2  1  0  0  0  0
  2  7  1  0  0  0  0
  3  4  2  0  0  0  0
  4  6  2  0  0  0  0
  5  3  1  0  0  0  0
  5  2  2  0  0  0  0
  6 17  1  0  0  0  0
  7  6  1  0  0  0  0
  8  9  1  0  0  0  0
  8  3  1  0  0  0  0
 10  8  1  0  0  0  0
 11 12  2  0  0  0  0
 11 13  1  0  0  0  0
 12 14  1  0  0  0  0
 13 15  2  0  0  0  0
 14 10  2  0  0  0  0
 15 10  1  0  0  0  0
 16 11  1  0  0  0  0
 17 18  1  0  0  0  0
 17 19  1  0  0  0  0
 20 21  1  0  0  0  0
 20  1  1  0  0  0  0
 21 22  1  0  0  0  0
 22 24  2  0  0  0  0
 23 25  1  0  0  0  0
 23 21  2  0  0  0  0
 25 26  2  0  0  0  0
 26 24  1  0  0  0  0
 27 23  1  0  0  0  0
 28 27  1  0  0  0  0
 28 30  1  0  0  0  0
 29 27  2  0  0  0  0
 31 28  1  0  0  0  0
M  END
>  <REMARK>
 SMILES Cc1ccc(Nc2nc(N)nc(COc3ccccc3C(N)=O)n2)cc1
 SMILES IDX 13 1 12 2 7 3 8 4 24 5 9 6 11 7 6 8 5 10 2 11 3 12 26 13
 SMILES IDX 4 14 25 15 1 16 10 17 14 20 15 21 16 22 20 23 17 24 19 25
 SMILES IDX 18 26 21 27 22 28 23 29
 H PARENT 6 9 10 18 10 19 22 30 22 31

>  <TORSDO>
F 7

$$$$
