/home/pchatterjee/Documents/git/vs_workflow/DiffDock/diffdock_run/pdbqt_scrubbed/Z94803042.pdbqt
 OpenBabel10272516423D

 29 32  0  0  1  0  0  0  0  0999 V2000
   -1.8820   -3.2050    3.3280 C   0  0  0  0  0  0  0  0  0  0  0  0
   -2.1170   -1.9750    2.7110 C   0  0  0  0  0  3  0  0  0  0  0  0
   -1.1220   -1.3690    1.9330 C   0  0  0  0  0  3  0  0  0  0  0  0
    0.1310   -1.9660    1.7650 C   0  0  0  0  0  0  0  0  0  0  0  0
    0.3550   -3.1980    2.4020 C   0  0  0  0  0  3  0  0  0  0  0  0
   -0.6340   -3.8140    3.1790 C   0  0  0  0  0  3  0  0  0  0  0  0
   -2.9700   -3.8120    4.1410 C   0  0  0  0  0  0  0  0  0  0  0  0
   -2.9300   -5.1660    4.3350 N   0  0  0  0  0  0  0  0  0  0  0  0
   -2.3830   -5.7720    3.7410 H   0  0  0  0  0  0  0  0  0  0  0  0
   -3.7520   -5.5660    4.7710 H   0  0  0  0  0  0  0  0  0  0  0  0
   -3.8900   -3.1440    4.5930 O   0  0  0  0  0  0  0  0  0  0  0  0
    1.1590   -1.4210    0.9890 N   0  0  0  0  0  0  0  0  0  0  0  0
    2.0490   -1.8960    1.0000 H   0  0  0  0  0  0  0  0  0  0  0  0
    1.2750   -0.2770    0.2040 C   0  0  0  0  0  0  0  0  0  0  0  0
    0.2490    0.5530    0.0110 N   0  0  0  0  0  0  0  0  0  0  0  0
    2.4850   -0.0900   -0.3410 N   0  0  0  0  0  2  0  0  0  0  0  0
    0.4480    1.6410   -0.7640 C   0  0  1  0  0  3  0  0  0  0  0  0
    2.6750    0.9790   -1.1240 C   0  0  0  0  0  0  0  0  0  0  0  0
    1.6700    1.9120   -1.3920 C   0  0  0  0  0  0  0  0  0  0  0  0
    3.9260    1.1680   -1.6990 C   0  0  0  0  0  3  0  0  0  0  0  0
    1.9430    3.0080   -2.2540 C   0  0  0  0  0  3  0  0  0  0  0  0
    4.2010    2.2510   -2.5390 C   0  0  0  0  0  3  0  0  0  0  0  0
    3.2040    3.1740   -2.8200 C   0  0  0  0  0  3  0  0  0  0  0  0
   -0.7400    2.5020   -0.8800 C   0  0  0  0  0  0  0  0  0  0  0  0
   -0.7510    3.8080   -0.3600 C   0  0  0  0  0  3  0  0  0  0  0  0
   -1.9100    2.0230   -1.4920 C   0  0  0  0  0  3  0  0  0  0  0  0
   -1.8850    4.6160   -0.4720 C   0  0  0  0  0  3  0  0  0  0  0  0
   -3.0440    2.8290   -1.6050 C   0  0  0  0  0  3  0  0  0  0  0  0
   -3.0300    4.1270   -1.0980 C   0  0  0  0  0  3  0  0  0  0  0  0
  1  7  1  0  0  0  0
  2  1  2  0  0  0  0
  3  2  1  0  0  0  0
  4  3  2  0  0  0  0
  4  5  1  0  0  0  0
  5  6  2  0  0  0  0
  6  1  1  0  0  0  0
  7  8  1  0  0  0  0
  7 11  2  0  0  0  0
  8 10  1  0  0  0  0
  9  8  1  0  0  0  0
 12 13  1  0  0  0  0
 12  4  1  0  0  0  0
 14 12  1  0  0  0  0
 15 14  2  0  0  0  0
 16 14  1  0  0  0  0
 17 24  1  6  0  0  0
 17 15  1  0  0  0  0
 18 16  1  0  0  0  0
 19 18  1  0  0  0  0
 19 17  1  0  0  0  0
 20 18  2  0  0  0  0
 21 19  2  0  0  0  0
 22 20  1  0  0  0  0
 23 22  2  0  0  0  0
 23 21  1  0  0  0  0
 24 25  1  0  0  0  0
 26 24  2  0  0  0  0
 27 25  2  0  0  0  0
 28 26  1  0  0  0  0
 28 29  2  0  0  0  0
 29 27  1  0  0  0  0
M  END
>  <REMARK>
 SMILES NC(=O)c1ccc(Nc2nc(-c3ccccc3)c3ccccc3n2)cc1
 SMILES IDX 4 1 5 2 6 3 7 4 25 5 26 6 2 7 1 8 3 11 8 12 9 14 10 15 24 16
 SMILES IDX 11 17 23 18 18 19 22 20 19 21 21 22 20 23 12 24 13 25 17 26
 SMILES IDX 14 27 16 28 15 29
 H PARENT 1 9 1 10 8 13

>  <TORSDO>
F 4

$$$$
