/home/pchatterjee/Documents/git/vs_workflow/DiffDock/diffdock_run/pdbqt_scrubbed/Z98478099.pdbqt
 OpenBabel10272516423D

 34 37  0  0  1  0  0  0  0  0999 V2000
   -2.1920    0.6650   -0.8530 C   0  0  2  0  0  3  0  0  0  0  0  0
   -3.5640    1.2850   -1.1190 C   0  0  0  0  0  2  0  0  0  0  0  0
   -4.1840    1.4700    0.2550 C   0  0  0  0  0  2  0  0  0  0  0  0
   -3.6570    0.3200    1.0920 C   0  0  0  0  0  2  0  0  0  0  0  0
   -2.4770   -0.2410    0.3420 N   0  0  0  0  0  4  0  0  0  0  0  0
   -1.6380   -0.2150    0.9450 H   0  0  0  0  0  0  0  0  0  0  0  0
   -1.0360    1.6060   -0.5650 C   0  0  0  0  0  0  0  0  0  0  0  0
    1.2160    3.2250    0.0370 C   0  0  0  0  0  0  0  0  0  0  0  0
    1.3870    1.8980   -0.3340 C   0  0  0  0  0  3  0  0  0  0  0  0
   -0.0760    3.7420    0.1050 C   0  0  0  0  0  3  0  0  0  0  0  0
    0.2760    1.1040   -0.6410 C   0  0  0  0  0  3  0  0  0  0  0  0
   -1.1890    2.9490   -0.2000 C   0  0  0  0  0  3  0  0  0  0  0  0
    2.2040    4.1010    0.3770 O   0  0  0  0  0  0  0  0  0  0  0  0
    3.5410    3.8050   -0.0200 C   0  0  0  0  0  2  0  0  0  0  0  0
    4.2930    3.1200    1.1050 C   0  0  0  0  0  1  0  0  0  0  0  0
   -2.6500   -1.7140   -0.0230 C   0  0  0  0  0  2  0  0  0  0  0  0
   -1.3560   -2.4350   -0.3310 C   0  0  0  0  0  0  0  0  0  0  0  0
   -1.3540   -3.3520   -1.2900 N   0  0  0  0  0  4  0  0  0  0  0  0
   -0.2930   -2.0730    0.3880 N   0  0  0  0  0  0  0  0  0  0  0  0
   -0.1780   -3.9140   -1.5170 C   0  0  0  0  0  0  0  0  0  0  0  0
    0.8430   -2.7010    0.0910 C   0  0  0  0  0  0  0  0  0  0  0  0
    0.9330   -3.6250   -0.8590 N   0  0  0  0  0  2  0  0  0  0  0  0
   -0.1040   -4.8680   -2.5040 N   0  0  0  0  0  0  0  0  0  0  0  0
   -0.9890   -5.3160   -2.6950 H   0  0  0  0  0  0  0  0  0  0  0  0
    0.7020   -5.4710   -2.3920 H   0  0  0  0  0  0  0  0  0  0  0  0
    2.0400   -2.3670    0.7100 N   0  0  0  0  0  0  0  0  0  0  0  0
    2.7840   -2.9280    0.3160 H   0  0  0  0  0  0  0  0  0  0  0  0
    2.3840   -1.5660    1.8100 C   0  0  0  0  0  0  0  0  0  0  0  0
    1.4220   -1.0480    2.6900 C   0  0  0  0  0  3  0  0  0  0  0  0
    3.7360   -1.2010    2.0190 C   0  0  0  0  0  0  0  0  0  0  0  0
    1.7750   -0.2100    3.7520 C   0  0  0  0  0  3  0  0  0  0  0  0
    4.0790   -0.3560    3.0900 C   0  0  0  0  0  3  0  0  0  0  0  0
    3.1040    0.1380    3.9510 C   0  0  0  0  0  3  0  0  0  0  0  0
    4.8400   -1.6730    1.1070 C   0  0  0  0  0  1  0  0  0  0  0  0
  1  7  1  1  0  0  0
  1  5  1  0  0  0  0
  2  1  1  0  0  0  0
  2  3  1  0  0  0  0
  3  4  1  0  0  0  0
  5  6  1  0  0  0  0
  5  4  1  0  0  0  0
  7 12  1  0  0  0  0
  8 10  1  0  0  0  0
  8 13  1  0  0  0  0
  9  8  2  0  0  0  0
 11  7  2  0  0  0  0
 11  9  1  0  0  0  0
 12 10  2  0  0  0  0
 14 13  1  0  0  0  0
 14 15  1  0  0  0  0
 16  5  1  0  0  0  0
 17 16  1  0  0  0  0
 17 19  1  0  0  0  0
 18 17  2  0  0  0  0
 20 18  2  0  0  0  0
 20 22  1  0  0  0  0
 21 19  2  0  0  0  0
 21 26  1  0  0  0  0
 22 21  1  0  0  0  0
 23 25  1  0  0  0  0
 23 20  1  0  0  0  0
 24 23  1  0  0  0  0
 26 28  1  0  0  0  0
 27 26  1  0  0  0  0
 28 30  2  0  0  0  0
 28 29  1  0  0  0  0
 29 31  2  0  0  0  0
 30 32  1  0  0  0  0
 31 33  1  0  0  0  0
 32 33  2  0  0  0  0
 34 30  1  0  0  0  0
M  END
>  <REMARK>
 SMILES CCOc1ccc(C2CCC[NH+]2Cc2nc(N)nc(Nc3ccccc3C)n2)cc1
 SMILES IDX 8 1 9 2 10 3 11 4 12 5 7 7 4 8 5 9 30 10 6 11 29 12 3 13
 SMILES IDX 2 14 1 15 13 16 14 17 15 18 28 19 16 20 19 21 18 22 17 23
 SMILES IDX 20 26 21 28 22 29 26 30 23 31 25 32 24 33 27 34
 H PARENT 12 6 17 24 17 25 20 27

>  <TORSDO>
F 8

$$$$
