/home/pchatterjee/Documents/git/vs_workflow/DiffDock/diffdock_run/pdbqt_scrubbed/Z990898380.pdbqt
 OpenBabel10272516423D

 26 28  0  0  0  0  0  0  0  0999 V2000
   -0.2400   -1.5660    1.4130 C   0  0  0  0  0  2  0  0  0  0  0  0
    0.8950   -0.5670    1.4860 C   0  0  0  0  0  0  0  0  0  0  0  0
    0.4710    0.7050    1.8170 N   0  0  0  0  0  0  0  0  0  0  0  0
    2.0680   -0.8570    1.2670 O   0  0  0  0  0  0  0  0  0  0  0  0
   -0.5200    0.9000    1.7530 H   0  0  0  0  0  0  0  0  0  0  0  0
    1.3860    1.8390    1.8120 C   0  0  0  0  0  3  0  0  0  0  0  0
    1.5990    2.3720    0.3930 C   0  0  0  0  0  2  0  0  0  0  0  0
    0.8720    2.9450    2.7480 C   0  0  0  0  0  2  0  0  0  0  0  0
    2.6330    3.5000    0.3570 C   0  0  0  0  0  2  0  0  0  0  0  0
    1.3710    4.3440    2.3760 C   0  0  0  0  0  2  0  0  0  0  0  0
    2.7120    4.3000    1.6580 C   0  0  0  0  0  2  0  0  0  0  0  0
    0.2580   -2.9760    1.1190 C   0  0  0  0  0  2  0  0  0  0  0  0
    0.8800   -3.0700   -0.1940 N   0  0  0  0  0  0  0  0  0  0  0  0
    0.1600   -3.0600   -1.3520 C   0  0  0  0  0  0  0  0  0  0  0  0
   -1.1260   -3.2130   -1.3840 N   0  0  0  0  0  0  0  0  0  0  0  0
    0.8940   -2.8680   -2.4890 N   0  0  0  0  0  0  0  0  0  0  0  0
   -1.7780   -3.1860   -2.6270 C   0  0  0  0  0  0  0  0  0  0  0  0
    0.3630   -2.8330   -3.7530 C   0  0  0  0  0  0  0  0  0  0  0  0
   -3.1650   -3.3510   -2.6680 C   0  0  0  0  0  3  0  0  0  0  0  0
   -1.0960   -3.0000   -3.8300 C   0  0  0  0  0  0  0  0  0  0  0  0
   -3.8490   -3.3290   -3.8870 C   0  0  0  0  0  3  0  0  0  0  0  0
   -1.7670   -2.9750   -5.0560 C   0  0  0  0  0  3  0  0  0  0  0  0
   -3.1510   -3.1400   -5.0800 C   0  0  0  0  0  3  0  0  0  0  0  0
    1.7870   -2.6080   -0.2170 H   0  0  0  0  0  0  0  0  0  0  0  0
    1.8950   -2.7830   -2.4310 H   0  0  0  0  0  0  0  0  0  0  0  0
    1.0540   -2.6720   -4.7520 O   0  0  0  0  0  0  0  0  0  0  0  0
  1  2  1  0  0  0  0
  2  3  1  0  0  0  0
  4  2  2  0  0  0  0
  5  3  1  0  0  0  0
  6  3  1  0  0  0  0
  6  8  1  0  0  0  0
  7  6  1  0  0  0  0
  9  7  1  0  0  0  0
  9 11  1  0  0  0  0
 10  8  1  0  0  0  0
 11 10  1  0  0  0  0
 12  1  1  0  0  0  0
 13 12  1  0  0  0  0
 14 13  1  0  0  0  0
 15 14  2  0  0  0  0
 16 25  1  0  0  0  0
 16 14  1  0  0  0  0
 17 15  1  0  0  0  0
 18 16  1  0  0  0  0
 19 17  1  0  0  0  0
 20 18  1  0  0  0  0
 20 17  2  0  0  0  0
 21 19  2  0  0  0  0
 22 20  1  0  0  0  0
 23 22  2  0  0  0  0
 23 21  1  0  0  0  0
 24 13  1  0  0  0  0
 26 18  2  0  0  0  0
M  END
>  <REMARK>
 SMILES O=C(CCNc1nc2ccccc2c(=O)[nH]1)NC1CCCCC1
 SMILES IDX 3 1 2 2 17 3 1 4 18 6 19 7 23 8 20 9 22 10 21 11 4 12 5 13
 SMILES IDX 6 14 7 15 16 16 8 17 14 18 9 19 13 20 10 21 12 22 11 23
 SMILES IDX 15 26
 H PARENT 17 5 5 24 16 25

>  <TORSDO>
F 4

$$$$
