/home/pchatterjee/Documents/git/vs_workflow/DiffDock/diffdock_run/pdbqt_scrubbed/Z991906088.pdbqt
 OpenBabel10272516423D

 25 28  0  0  1  0  0  0  0  0999 V2000
    1.8270   -1.2420    0.2550 N   0  0  0  0  0  0  0  0  0  0  0  0
    2.7940   -0.9600    0.1500 H   0  0  0  0  0  0  0  0  0  0  0  0
    1.3760   -1.4950    1.4940 C   0  0  0  0  0  0  0  0  0  0  0  0
    0.3330   -1.8680    3.2790 C   0  0  0  0  0  0  0  0  0  0  0  0
    1.6200   -1.8460    3.6660 N   0  0  0  0  0  0  0  0  0  0  0  0
    0.1520   -1.6440    1.9300 N   0  0  0  0  0  0  0  0  0  0  0  0
    2.3120   -1.6030    2.4800 O   0  0  0  0  0  0  0  0  0  0  0  0
   -0.7880   -2.0960    4.1860 C   0  0  0  0  0  0  0  0  0  0  0  0
   -2.9610   -2.5320    5.9150 C   0  0  0  0  0  3  0  0  0  0  0  0
   -1.6610   -2.5120    6.4180 C   0  0  0  0  0  3  0  0  0  0  0  0
   -3.1820   -2.3360    4.5530 C   0  0  0  0  0  3  0  0  0  0  0  0
   -0.5800   -2.2960    5.5590 C   0  0  0  0  0  3  0  0  0  0  0  0
   -2.1010   -2.1190    3.6930 C   0  0  0  0  0  3  0  0  0  0  0  0
    0.9010   -0.8300   -0.7860 C   0  0  0  0  0  2  0  0  0  0  0  0
    0.5020    0.6460   -0.6380 C   0  0  1  0  0  3  0  0  0  0  0  0
    1.6480    1.6150   -0.9340 C   0  0  0  0  0  2  0  0  0  0  0  0
   -0.5280    1.0380   -1.7040 C   0  0  0  0  0  2  0  0  0  0  0  0
    1.6630    1.7250   -2.4580 C   0  0  0  0  0  2  0  0  0  0  0  0
    0.2850    1.4360   -2.8510 N   0  0  0  0  0  0  0  0  0  0  0  0
   -0.2270    1.7330   -4.0950 C   0  0  0  0  0  0  0  0  0  0  0  0
    0.6040    2.0770   -5.1740 C   0  0  0  0  0  3  0  0  0  0  0  0
   -1.6050    1.6880   -4.3620 C   0  0  0  0  0  3  0  0  0  0  0  0
    0.0920    2.3710   -6.4440 C   0  0  0  0  0  3  0  0  0  0  0  0
   -2.1280    1.9810   -5.6290 C   0  0  0  0  0  3  0  0  0  0  0  0
   -1.2770    2.3250   -6.6720 C   0  0  0  0  0  3  0  0  0  0  0  0
  1  3  1  0  0  0  0
  2  1  1  0  0  0  0
  3  6  2  0  0  0  0
  3  7  1  0  0  0  0
  4  5  2  0  0  0  0
  4  8  1  0  0  0  0
  6  4  1  0  0  0  0
  7  5  1  0  0  0  0
  8 12  1  0  0  0  0
  9 10  1  0  0  0  0
 11  9  2  0  0  0  0
 12 10  2  0  0  0  0
 13  8  2  0  0  0  0
 13 11  1  0  0  0  0
 14  1  1  0  0  0  0
 15 14  1  6  0  0  0
 16 15  1  0  0  0  0
 17 15  1  0  0  0  0
 18 16  1  0  0  0  0
 19 18  1  0  0  0  0
 19 17  1  0  0  0  0
 20 19  1  0  0  0  0
 21 20  2  0  0  0  0
 22 20  1  0  0  0  0
 23 21  1  0  0  0  0
 24 22  2  0  0  0  0
 25 23  2  0  0  0  0
 25 24  1  0  0  0  0
M  END
>  <REMARK>
 SMILES c1ccc(-c2noc(NCC3CCN(c4ccccc4)C3)n2)cc1
 SMILES IDX 9 1 8 3 5 4 6 5 22 6 7 7 4 8 1 9 2 10 24 11 3 12 23 13 10 14
 SMILES IDX 11 15 12 16 21 17 13 18 14 19 15 20 16 21 20 22 17 23 19 24
 SMILES IDX 18 25
 H PARENT 9 2

>  <TORSDO>
F 5

$$$$
