/home/pchatterjee/Documents/git/vs_workflow/DiffDock/diffdock_run/pdbqt_scrubbed/Z996015122.pdbqt
 OpenBabel10272516423D

 27 29  0  0  0  0  0  0  0  0999 V2000
   -0.9770   -1.8650    1.5520 C   0  0  0  0  0  0  0  0  0  0  0  0
   -0.9440   -2.9540    2.4390 C   0  0  0  0  0  3  0  0  0  0  0  0
   -2.0880   -3.7160    2.6770 C   0  0  0  0  0  3  0  0  0  0  0  0
   -3.2820   -3.3990    2.0360 C   0  0  0  0  0  3  0  0  0  0  0  0
   -3.3280   -2.3340    1.1370 C   0  0  0  0  0  3  0  0  0  0  0  0
   -2.1740   -1.5860    0.8740 C   0  0  0  0  0  0  0  0  0  0  0  0
    0.2880   -1.0750    1.3900 C   0  0  0  0  0  0  0  0  0  0  0  0
    0.1440    0.1940    0.8650 N   0  0  0  0  0  0  0  0  0  0  0  0
   -0.8050    0.4570    0.6050 H   0  0  0  0  0  0  0  0  0  0  0  0
    1.3460   -1.5840    1.7480 O   0  0  0  0  0  0  0  0  0  0  0  0
    1.1420    1.1550    0.6140 C   0  0  0  0  0  0  0  0  0  0  0  0
    1.6440    3.3970   -0.2220 C   0  0  0  0  0  0  0  0  0  0  0  0
    0.7230    2.3760    0.0660 C   0  0  0  0  0  3  0  0  0  0  0  0
    2.9940    3.1800    0.0470 C   0  0  0  0  0  0  0  0  0  0  0  0
    3.4250    1.9720    0.5890 C   0  0  0  0  0  3  0  0  0  0  0  0
    2.5010    0.9620    0.8720 C   0  0  0  0  0  3  0  0  0  0  0  0
    3.9170    4.1200   -0.2130 F   0  0  0  0  0  0  0  0  0  0  0  0
    1.1260    4.6580   -0.8100 C   0  0  0  0  0  0  0  0  0  0  0  0
    2.0090    5.6660   -1.0670 N   0  0  0  0  0  0  0  0  0  0  0  0
    1.6520    6.5170   -1.4820 H   0  0  0  0  0  0  0  0  0  0  0  0
    3.0070    5.5790   -0.9200 H   0  0  0  0  0  0  0  0  0  0  0  0
   -0.0670    4.8000   -1.0610 O   0  0  0  0  0  0  0  0  0  0  0  0
   -2.2490   -0.5360   -0.0060 O   0  0  0  0  0  0  0  0  0  0  0  0
   -2.5200   -0.9580   -1.3520 C   0  0  0  0  0  2  0  0  0  0  0  0
   -1.3300   -0.6310   -2.2000 C   0  0  0  0  0  3  0  0  0  0  0  0
   -1.1530    0.7530   -2.7670 C   0  0  0  0  0  2  0  0  0  0  0  0
   -1.4770   -0.3980   -3.6810 C   0  0  0  0  0  2  0  0  0  0  0  0
  1  2  1  0  0  0  0
  2  3  2  0  0  0  0
  4  3  1  0  0  0  0
  5  4  2  0  0  0  0
  6  5  1  0  0  0  0
  6  1  2  0  0  0  0
  7  1  1  0  0  0  0
  7 10  2  0  0  0  0
  8  7  1  0  0  0  0
  9  8  1  0  0  0  0
 11  8  1  0  0  0  0
 11 16  1  0  0  0  0
 12 14  2  0  0  0  0
 12 13  1  0  0  0  0
 13 11  2  0  0  0  0
 14 15  1  0  0  0  0
 15 16  2  0  0  0  0
 17 14  1  0  0  0  0
 18 12  1  0  0  0  0
 19 21  1  0  0  0  0
 19 18  1  0  0  0  0
 20 19  1  0  0  0  0
 22 18  2  0  0  0  0
 23  6  1  0  0  0  0
 24 23  1  0  0  0  0
 25 24  1  0  0  0  0
 26 25  1  0  0  0  0
 27 26  1  0  0  0  0
 27 25  1  0  0  0  0
M  END
>  <REMARK>
 SMILES NC(=O)c1cc(NC(=O)c2ccccc2OCC2CC2)ccc1F
 SMILES IDX 10 1 11 2 12 3 13 4 14 5 15 6 8 7 7 8 9 10 6 11 4 12 5 13
 SMILES IDX 23 14 22 15 21 16 24 17 2 18 1 19 3 22 16 23 17 24 18 25
 SMILES IDX 19 26 20 27
 H PARENT 7 9 1 20 1 21

>  <TORSDO>
F 6

$$$$
