/home/pchatterjee/Documents/git/vs_workflow/DiffDock/diffdock_run/pdbqt_scrubbed/Z2994634090.pdbqt
     RDKit          3D

 23 25  0  0  0  0  0  0  0  0999 V2000
   12.5368   67.5498   82.3991 C   0  0  0  0  0  0  0  0  0  0  0  0
   13.2696   66.5290   82.9449 C   0  0  0  0  0  0  0  0  0  0  0  0
   12.5057   65.3060   83.9275 Cl  0  0  0  0  0  0  0  0  0  0  0  0
   14.6418   66.3800   82.7451 C   0  0  0  0  0  3  0  0  0  0  0  0
   15.3453   67.2590   81.9794 C   0  0  0  0  0  3  0  0  0  0  0  0
   14.6273   68.3071   81.4104 C   0  0  0  0  0  3  0  0  0  0  0  0
   13.2752   68.4506   81.6100 C   0  0  0  0  0  0  0  0  0  0  0  0
   11.1493   67.8167   82.5580 C   0  0  0  0  0  0  0  0  0  0  0  0
   10.0656   66.9177   82.4361 N   0  0  0  0  0  0  0  0  0  0  0  0
   10.7903   69.0186   82.8535 O   0  0  0  0  0  0  0  0  0  0  0  0
    8.7604   67.3208   82.8662 C   0  0  0  0  0  0  0  0  0  0  0  0
    7.7670   66.3781   83.1236 C   0  0  0  0  0  0  0  0  0  0  0  0
    6.5093   66.7623   83.5378 C   0  0  0  0  0  3  0  0  0  0  0  0
    6.2142   68.0944   83.7045 C   0  0  0  0  0  3  0  0  0  0  0  0
    8.4231   68.6511   83.0460 C   0  0  0  0  0  3  0  0  0  0  0  0
    7.1732   68.9993   83.4558 N   0  0  0  0  0  0  0  0  0  0  0  0
    8.0331   65.0133   82.9640 O   0  0  0  0  0  0  0  0  0  0  0  0
    8.1734   64.5711   81.6177 C   0  0  0  0  0  1  0  0  0  0  0  0
   12.6639   69.5368   80.9908 O   0  0  0  0  0  0  0  0  0  0  0  0
   13.1151   70.8579   81.1438 C   0  0  0  0  0  2  0  0  0  0  0  0
   12.1664   71.7324   80.3594 C   0  0  0  0  0  3  0  0  0  0  0  0
   12.5988   73.0369   79.8035 C   0  0  0  0  0  2  0  0  0  0  0  0
   11.8909   73.0637   81.1136 C   0  0  0  0  0  2  0  0  0  0  0  0
  1  2  2  0
  1  8  1  0
  2  3  1  0
  4  2  1  0
  5  4  2  0
  6  5  1  0
  6  7  2  0
  7  1  1  0
  8 10  2  0
  8  9  1  0
  9 11  1  0
 11 12  2  0
 11 15  1  0
 12 13  1  0
 13 14  2  0
 15 16  2  0
 16 14  1  0
 17 18  1  0
 17 12  1  0
 19  7  1  0
 20 19  1  0
 21 20  1  0
 21 23  1  0
 21 22  1  0
 23 22  1  0
M  RAD  8   4   2   5   2   6   2  13   2  14   2  15   2  18   2  20   3
M  RAD  3  21   2  22   3  23   3
M  END
>  <REMARK>  (1) 
 SMILES COc1ccncc1NC(=O)c1c(Cl)cccc1OCC1CC1
 SMILES IDX 12 1 13 2 14 3 15 4 16 5 17 6 18 7 10 8 9 9 11 11 8 12 3 13
 SMILES IDX 4 14 5 15 7 16 6 17 2 18 1 19 19 20 20 21 21 22 22 23 23 24
 H PARENT 9 10

>  <TORSDO>  (1) 
F 6

$$$$
