/home/pchatterjee/Documents/git/vs_workflow/DiffDock/diffdock_run/pdbqt_scrubbed/Z2994634090.pdbqt
     RDKit          3D

 23 25  0  0  0  0  0  0  0  0999 V2000
    8.2296   45.9778   51.8400 C   0  0  0  0  0  0  0  0  0  0  0  0
    9.4970   46.3969   52.1480 C   0  0  0  0  0  0  0  0  0  0  0  0
   10.8754   45.8074   51.2551 Cl  0  0  0  0  0  0  0  0  0  0  0  0
    9.7743   47.3187   53.1571 C   0  0  0  0  0  3  0  0  0  0  0  0
    8.7797   47.8662   53.9087 C   0  0  0  0  0  3  0  0  0  0  0  0
    7.4802   47.4600   53.6183 C   0  0  0  0  0  3  0  0  0  0  0  0
    7.2112   46.5512   52.6233 C   0  0  0  0  0  0  0  0  0  0  0  0
    7.8334   45.0271   50.8597 C   0  0  0  0  0  0  0  0  0  0  0  0
    6.5269   44.5946   50.5380 N   0  0  0  0  0  0  0  0  0  0  0  0
    8.7508   44.4656   50.1500 O   0  0  0  0  0  0  0  0  0  0  0  0
    6.3457   43.5320   49.5951 C   0  0  0  0  0  0  0  0  0  0  0  0
    5.1198   42.8804   49.4754 C   0  0  0  0  0  0  0  0  0  0  0  0
    4.9416   41.8571   48.5688 C   0  0  0  0  0  3  0  0  0  0  0  0
    5.9812   41.4608   47.7617 C   0  0  0  0  0  3  0  0  0  0  0  0
    7.3666   43.1032   48.7645 C   0  0  0  0  0  3  0  0  0  0  0  0
    7.1601   42.0905   47.8796 N   0  0  0  0  0  0  0  0  0  0  0  0
    4.0399   43.2583   50.2816 O   0  0  0  0  0  0  0  0  0  0  0  0
    3.8847   42.5126   51.4847 C   0  0  0  0  0  1  0  0  0  0  0  0
    5.8741   46.2206   52.4236 O   0  0  0  0  0  0  0  0  0  0  0  0
    4.9041   46.3135   53.4348 C   0  0  0  0  0  2  0  0  0  0  0  0
    3.5800   46.5380   52.7445 C   0  0  0  0  0  3  0  0  0  0  0  0
    2.4051   45.6798   53.0288 C   0  0  0  0  0  2  0  0  0  0  0  0
    3.2210   45.3310   51.8326 C   0  0  0  0  0  2  0  0  0  0  0  0
  1  2  2  0
  1  8  1  0
  2  3  1  0
  4  2  1  0
  5  4  2  0
  6  5  1  0
  6  7  2  0
  7  1  1  0
  8 10  2  0
  8  9  1  0
  9 11  1  0
 11 12  2  0
 11 15  1  0
 12 13  1  0
 13 14  2  0
 15 16  2  0
 16 14  1  0
 17 18  1  0
 17 12  1  0
 19  7  1  0
 20 19  1  0
 21 20  1  0
 21 23  1  0
 21 22  1  0
 23 22  1  0
M  RAD  8   4   2   5   2   6   2  13   2  14   2  15   2  18   2  20   3
M  RAD  3  21   2  22   3  23   3
M  END
>  <REMARK>  (1) 
 SMILES COc1ccncc1NC(=O)c1c(Cl)cccc1OCC1CC1
 SMILES IDX 12 1 13 2 14 3 15 4 16 5 17 6 18 7 10 8 9 9 11 11 8 12 3 13
 SMILES IDX 4 14 5 15 7 16 6 17 2 18 1 19 19 20 20 21 21 22 22 23 23 24
 H PARENT 9 10

>  <TORSDO>  (1) 
F 6

$$$$
