/home/pchatterjee/Documents/git/vs_workflow/DiffDock/diffdock_run/pdbqt_scrubbed/Z2994634090.pdbqt
     RDKit          3D

 23 25  0  0  0  0  0  0  0  0999 V2000
    4.4794   45.0498   52.8273 C   0  0  0  0  0  0  0  0  0  0  0  0
    3.8658   45.5839   53.9297 C   0  0  0  0  0  0  0  0  0  0  0  0
    4.7000   46.7258   54.9519 Cl  0  0  0  0  0  0  0  0  0  0  0  0
    2.5552   45.2812   54.2981 C   0  0  0  0  0  3  0  0  0  0  0  0
    1.7953   44.4200   53.5668 C   0  0  0  0  0  3  0  0  0  0  0  0
    2.3916   43.8615   52.4397 C   0  0  0  0  0  3  0  0  0  0  0  0
    3.6835   44.1622   52.0803 C   0  0  0  0  0  0  0  0  0  0  0  0
    5.8108   45.2610   52.3752 C   0  0  0  0  0  0  0  0  0  0  0  0
    6.3645   44.9558   51.1111 N   0  0  0  0  0  0  0  0  0  0  0  0
    6.6524   45.7992   53.1893 O   0  0  0  0  0  0  0  0  0  0  0  0
    7.7817   45.0370   50.9215 C   0  0  0  0  0  0  0  0  0  0  0  0
    8.5314   46.0385   51.5353 C   0  0  0  0  0  0  0  0  0  0  0  0
    9.8959   46.1198   51.3552 C   0  0  0  0  0  3  0  0  0  0  0  0
   10.5430   45.2048   50.5594 C   0  0  0  0  0  3  0  0  0  0  0  0
    8.4708   44.1357   50.1286 C   0  0  0  0  0  3  0  0  0  0  0  0
    9.8180   44.2419   49.9700 N   0  0  0  0  0  0  0  0  0  0  0  0
    7.9047   46.9866   52.3522 O   0  0  0  0  0  0  0  0  0  0  0  0
    8.7774   47.9013   53.0076 C   0  0  0  0  0  1  0  0  0  0  0  0
    4.1732   43.5434   50.9339 O   0  0  0  0  0  0  0  0  0  0  0  0
    3.3414   42.9551   49.9675 C   0  0  0  0  0  2  0  0  0  0  0  0
    4.2506   42.3537   48.9227 C   0  0  0  0  0  3  0  0  0  0  0  0
    4.3218   40.8880   48.7117 C   0  0  0  0  0  2  0  0  0  0  0  0
    5.3630   41.4944   49.5872 C   0  0  0  0  0  2  0  0  0  0  0  0
  1  2  2  0
  1  8  1  0
  2  3  1  0
  4  2  1  0
  5  4  2  0
  6  5  1  0
  6  7  2  0
  7  1  1  0
  8 10  2  0
  8  9  1  0
  9 11  1  0
 11 12  2  0
 11 15  1  0
 12 13  1  0
 13 14  2  0
 15 16  2  0
 16 14  1  0
 17 18  1  0
 17 12  1  0
 19  7  1  0
 20 19  1  0
 21 20  1  0
 21 23  1  0
 21 22  1  0
 23 22  1  0
M  RAD  8   4   2   5   2   6   2  13   2  14   2  15   2  18   2  20   3
M  RAD  3  21   2  22   3  23   3
M  END
>  <REMARK>  (1) 
 SMILES COc1ccncc1NC(=O)c1c(Cl)cccc1OCC1CC1
 SMILES IDX 12 1 13 2 14 3 15 4 16 5 17 6 18 7 10 8 9 9 11 11 8 12 3 13
 SMILES IDX 4 14 5 15 7 16 6 17 2 18 1 19 19 20 20 21 21 22 22 23 23 24
 H PARENT 9 10

>  <TORSDO>  (1) 
F 6

$$$$
