/home/pchatterjee/Documents/git/vs_workflow/DiffDock/diffdock_run/pdbqt_scrubbed/Z2994634090.pdbqt
     RDKit          3D

 23 25  0  0  0  0  0  0  0  0999 V2000
    4.3326   45.1583   52.3287 C   0  0  0  0  0  0  0  0  0  0  0  0
    3.6954   45.9740   53.2261 C   0  0  0  0  0  0  0  0  0  0  0  0
    4.5813   47.1799   54.1238 Cl  0  0  0  0  0  0  0  0  0  0  0  0
    2.3232   45.9202   53.4692 C   0  0  0  0  0  3  0  0  0  0  0  0
    1.5224   45.0354   52.8137 C   0  0  0  0  0  3  0  0  0  0  0  0
    2.1415   44.1932   51.8943 C   0  0  0  0  0  3  0  0  0  0  0  0
    3.4941   44.2492   51.6579 C   0  0  0  0  0  0  0  0  0  0  0  0
    5.7203   45.1040   52.0233 C   0  0  0  0  0  0  0  0  0  0  0  0
    6.3829   45.5897   50.8733 N   0  0  0  0  0  0  0  0  0  0  0  0
    6.5109   44.5518   52.8781 O   0  0  0  0  0  0  0  0  0  0  0  0
    7.7940   45.3898   50.7327 C   0  0  0  0  0  0  0  0  0  0  0  0
    8.7012   46.1074   51.5097 C   0  0  0  0  0  0  0  0  0  0  0  0
   10.0603   45.9176   51.3772 C   0  0  0  0  0  3  0  0  0  0  0  0
   10.5451   45.0085   50.4674 C   0  0  0  0  0  3  0  0  0  0  0  0
    8.3225   44.4844   49.8288 C   0  0  0  0  0  3  0  0  0  0  0  0
    9.6687   44.3192   49.7209 N   0  0  0  0  0  0  0  0  0  0  0  0
    8.2422   47.0412   52.4458 O   0  0  0  0  0  0  0  0  0  0  0  0
    9.1406   48.1068   52.7376 C   0  0  0  0  0  1  0  0  0  0  0  0
    4.0014   43.3582   50.7168 O   0  0  0  0  0  0  0  0  0  0  0  0
    3.2114   42.7728   49.7142 C   0  0  0  0  0  2  0  0  0  0  0  0
    4.1217   41.8659   48.9210 C   0  0  0  0  0  3  0  0  0  0  0  0
    4.0665   40.3921   49.0719 C   0  0  0  0  0  2  0  0  0  0  0  0
    5.1051   41.1121   49.8601 C   0  0  0  0  0  2  0  0  0  0  0  0
  1  2  2  0
  1  8  1  0
  2  3  1  0
  4  2  1  0
  5  4  2  0
  6  5  1  0
  6  7  2  0
  7  1  1  0
  8 10  2  0
  8  9  1  0
  9 11  1  0
 11 12  2  0
 11 15  1  0
 12 13  1  0
 13 14  2  0
 15 16  2  0
 16 14  1  0
 17 18  1  0
 17 12  1  0
 19  7  1  0
 20 19  1  0
 21 20  1  0
 21 23  1  0
 21 22  1  0
 23 22  1  0
M  RAD  8   4   2   5   2   6   2  13   2  14   2  15   2  18   2  20   3
M  RAD  3  21   2  22   3  23   3
M  END
>  <REMARK>  (1) 
 SMILES COc1ccncc1NC(=O)c1c(Cl)cccc1OCC1CC1
 SMILES IDX 12 1 13 2 14 3 15 4 16 5 17 6 18 7 10 8 9 9 11 11 8 12 3 13
 SMILES IDX 4 14 5 15 7 16 6 17 2 18 1 19 19 20 20 21 21 22 22 23 23 24
 H PARENT 9 10

>  <TORSDO>  (1) 
F 6

$$$$
