/home/pchatterjee/Documents/git/vs_workflow/DiffDock/diffdock_run/pdbqt_scrubbed/Z2994634090.pdbqt
     RDKit          3D

 23 25  0  0  0  0  0  0  0  0999 V2000
    4.3947   45.3388   52.4808 C   0  0  0  0  0  0  0  0  0  0  0  0
    3.7574   46.0729   53.4460 C   0  0  0  0  0  0  0  0  0  0  0  0
    4.6358   47.2245   54.4191 Cl  0  0  0  0  0  0  0  0  0  0  0  0
    2.3903   45.9753   53.7039 C   0  0  0  0  0  3  0  0  0  0  0  0
    1.5950   45.1273   52.9952 C   0  0  0  0  0  3  0  0  0  0  0  0
    2.2144   44.3681   52.0064 C   0  0  0  0  0  3  0  0  0  0  0  0
    3.5619   44.4670   51.7556 C   0  0  0  0  0  0  0  0  0  0  0  0
    5.7782   45.3335   52.1524 C   0  0  0  0  0  0  0  0  0  0  0  0
    6.3771   45.1217   50.8899 N   0  0  0  0  0  0  0  0  0  0  0  0
    6.6290   45.5471   53.0964 O   0  0  0  0  0  0  0  0  0  0  0  0
    7.8037   45.1578   50.7688 C   0  0  0  0  0  0  0  0  0  0  0  0
    8.5545   46.1340   51.4209 C   0  0  0  0  0  0  0  0  0  0  0  0
    9.9279   46.1719   51.3068 C   0  0  0  0  0  3  0  0  0  0  0  0
   10.5832   45.2378   50.5404 C   0  0  0  0  0  3  0  0  0  0  0  0
    8.5011   44.2361   50.0073 C   0  0  0  0  0  3  0  0  0  0  0  0
    9.8570   44.2993   49.9140 N   0  0  0  0  0  0  0  0  0  0  0  0
    7.9197   47.1006   52.2094 O   0  0  0  0  0  0  0  0  0  0  0  0
    8.7885   47.9856   52.9092 C   0  0  0  0  0  1  0  0  0  0  0  0
    4.0701   43.6587   50.7430 O   0  0  0  0  0  0  0  0  0  0  0  0
    3.2530   42.9538   49.8443 C   0  0  0  0  0  2  0  0  0  0  0  0
    4.1779   42.2364   48.8905 C   0  0  0  0  0  3  0  0  0  0  0  0
    4.3781   40.7694   48.9650 C   0  0  0  0  0  2  0  0  0  0  0  0
    5.3877   41.6233   49.6505 C   0  0  0  0  0  2  0  0  0  0  0  0
  1  2  2  0
  1  8  1  0
  2  3  1  0
  4  2  1  0
  5  4  2  0
  6  5  1  0
  6  7  2  0
  7  1  1  0
  8 10  2  0
  8  9  1  0
  9 11  1  0
 11 12  2  0
 11 15  1  0
 12 13  1  0
 13 14  2  0
 15 16  2  0
 16 14  1  0
 17 18  1  0
 17 12  1  0
 19  7  1  0
 20 19  1  0
 21 20  1  0
 21 23  1  0
 21 22  1  0
 23 22  1  0
M  RAD  8   4   2   5   2   6   2  13   2  14   2  15   2  18   2  20   3
M  RAD  3  21   2  22   3  23   3
M  END
>  <REMARK>  (1) 
 SMILES COc1ccncc1NC(=O)c1c(Cl)cccc1OCC1CC1
 SMILES IDX 12 1 13 2 14 3 15 4 16 5 17 6 18 7 10 8 9 9 11 11 8 12 3 13
 SMILES IDX 4 14 5 15 7 16 6 17 2 18 1 19 19 20 20 21 21 22 22 23 23 24
 H PARENT 9 10

>  <TORSDO>  (1) 
F 6

$$$$
