/home/pchatterjee/Documents/git/vs_workflow/DiffDock/diffdock_run/pdbqt_scrubbed/Z2994634090.pdbqt
     RDKit          3D

 23 25  0  0  0  0  0  0  0  0999 V2000
    8.3072   45.8196   51.9113 C   0  0  0  0  0  0  0  0  0  0  0  0
    9.5421   46.3987   52.0397 C   0  0  0  0  0  0  0  0  0  0  0  0
   10.8255   46.0254   50.9180 Cl  0  0  0  0  0  0  0  0  0  0  0  0
    9.8543   47.3226   53.0366 C   0  0  0  0  0  3  0  0  0  0  0  0
    8.9293   47.7100   53.9576 C   0  0  0  0  0  3  0  0  0  0  0  0
    7.6642   47.1389   53.8522 C   0  0  0  0  0  3  0  0  0  0  0  0
    7.3606   46.2286   52.8685 C   0  0  0  0  0  0  0  0  0  0  0  0
    7.8869   44.8501   50.9599 C   0  0  0  0  0  0  0  0  0  0  0  0
    6.6305   44.7367   50.3227 N   0  0  0  0  0  0  0  0  0  0  0  0
    8.7287   43.9419   50.6032 O   0  0  0  0  0  0  0  0  0  0  0  0
    6.3450   43.5842   49.5219 C   0  0  0  0  0  0  0  0  0  0  0  0
    5.0591   43.0503   49.4657 C   0  0  0  0  0  0  0  0  0  0  0  0
    4.7804   41.9410   48.6959 C   0  0  0  0  0  3  0  0  0  0  0  0
    5.7772   41.3395   47.9651 C   0  0  0  0  0  3  0  0  0  0  0  0
    7.3199   42.9495   48.7718 C   0  0  0  0  0  3  0  0  0  0  0  0
    7.0142   41.8564   48.0216 N   0  0  0  0  0  0  0  0  0  0  0  0
    4.0203   43.6376   50.1971 O   0  0  0  0  0  0  0  0  0  0  0  0
    3.4892   42.8418   51.2518 C   0  0  0  0  0  1  0  0  0  0  0  0
    6.0632   45.7249   52.8620 O   0  0  0  0  0  0  0  0  0  0  0  0
    4.9948   46.3551   53.5204 C   0  0  0  0  0  2  0  0  0  0  0  0
    3.7503   45.5755   53.1692 C   0  0  0  0  0  3  0  0  0  0  0  0
    3.3628   45.3329   51.7590 C   0  0  0  0  0  2  0  0  0  0  0  0
    2.7149   46.4836   52.4478 C   0  0  0  0  0  2  0  0  0  0  0  0
  1  2  2  0
  1  8  1  0
  2  3  1  0
  4  2  1  0
  5  4  2  0
  6  5  1  0
  6  7  2  0
  7  1  1  0
  8 10  2  0
  8  9  1  0
  9 11  1  0
 11 12  2  0
 11 15  1  0
 12 13  1  0
 13 14  2  0
 15 16  2  0
 16 14  1  0
 17 18  1  0
 17 12  1  0
 19  7  1  0
 20 19  1  0
 21 20  1  0
 21 23  1  0
 21 22  1  0
 23 22  1  0
M  RAD  8   4   2   5   2   6   2  13   2  14   2  15   2  18   2  20   3
M  RAD  3  21   2  22   3  23   3
M  END
>  <REMARK>  (1) 
 SMILES COc1ccncc1NC(=O)c1c(Cl)cccc1OCC1CC1
 SMILES IDX 12 1 13 2 14 3 15 4 16 5 17 6 18 7 10 8 9 9 11 11 8 12 3 13
 SMILES IDX 4 14 5 15 7 16 6 17 2 18 1 19 19 20 20 21 21 22 22 23 23 24
 H PARENT 9 10

>  <TORSDO>  (1) 
F 6

$$$$
