/home/pchatterjee/Documents/git/vs_workflow/DiffDock/diffdock_run/pdbqt_scrubbed/Z2994634090.pdbqt
     RDKit          3D

 23 25  0  0  0  0  0  0  0  0999 V2000
    8.2090   45.7136   51.8256 C   0  0  0  0  0  0  0  0  0  0  0  0
    9.4911   46.1398   52.0521 C   0  0  0  0  0  0  0  0  0  0  0  0
   10.8221   45.5057   51.1189 Cl  0  0  0  0  0  0  0  0  0  0  0  0
    9.8202   47.1033   53.0052 C   0  0  0  0  0  3  0  0  0  0  0  0
    8.8653   47.6875   53.7803 C   0  0  0  0  0  3  0  0  0  0  0  0
    7.5521   47.2750   53.5724 C   0  0  0  0  0  3  0  0  0  0  0  0
    7.2320   46.3251   52.6324 C   0  0  0  0  0  0  0  0  0  0  0  0
    7.7624   44.7230   50.9085 C   0  0  0  0  0  0  0  0  0  0  0  0
    6.4632   44.1855   50.7650 N   0  0  0  0  0  0  0  0  0  0  0  0
    8.6187   44.2268   50.0832 O   0  0  0  0  0  0  0  0  0  0  0  0
    6.2010   43.2372   49.7243 C   0  0  0  0  0  0  0  0  0  0  0  0
    5.1036   42.3812   49.7935 C   0  0  0  0  0  0  0  0  0  0  0  0
    4.8480   41.4671   48.7936 C   0  0  0  0  0  3  0  0  0  0  0  0
    5.6803   41.3861   47.7027 C   0  0  0  0  0  3  0  0  0  0  0  0
    7.0142   43.1240   48.6100 C   0  0  0  0  0  3  0  0  0  0  0  0
    6.7360   42.2119   47.6394 N   0  0  0  0  0  0  0  0  0  0  0  0
    4.2355   42.4366   50.8900 O   0  0  0  0  0  0  0  0  0  0  0  0
    4.5349   41.5375   51.9529 C   0  0  0  0  0  1  0  0  0  0  0  0
    5.8858   45.9924   52.5136 O   0  0  0  0  0  0  0  0  0  0  0  0
    4.8487   46.9181   52.7121 C   0  0  0  0  0  2  0  0  0  0  0  0
    3.5581   46.1908   52.4197 C   0  0  0  0  0  3  0  0  0  0  0  0
    2.4623   46.1306   53.4164 C   0  0  0  0  0  2  0  0  0  0  0  0
    3.3889   44.9658   53.3619 C   0  0  0  0  0  2  0  0  0  0  0  0
  1  2  2  0
  1  8  1  0
  2  3  1  0
  4  2  1  0
  5  4  2  0
  6  5  1  0
  6  7  2  0
  7  1  1  0
  8 10  2  0
  8  9  1  0
  9 11  1  0
 11 12  2  0
 11 15  1  0
 12 13  1  0
 13 14  2  0
 15 16  2  0
 16 14  1  0
 17 18  1  0
 17 12  1  0
 19  7  1  0
 20 19  1  0
 21 20  1  0
 21 23  1  0
 21 22  1  0
 23 22  1  0
M  RAD  8   4   2   5   2   6   2  13   2  14   2  15   2  18   2  20   3
M  RAD  3  21   2  22   3  23   3
M  END
>  <REMARK>  (1) 
 SMILES COc1ccncc1NC(=O)c1c(Cl)cccc1OCC1CC1
 SMILES IDX 12 1 13 2 14 3 15 4 16 5 17 6 18 7 10 8 9 9 11 11 8 12 3 13
 SMILES IDX 4 14 5 15 7 16 6 17 2 18 1 19 19 20 20 21 21 22 22 23 23 24
 H PARENT 9 10

>  <TORSDO>  (1) 
F 6

$$$$
