/home/pchatterjee/Documents/git/vs_workflow/DiffDock/diffdock_run/pdbqt_scrubbed/Z2994634090.pdbqt
     RDKit          3D

 23 25  0  0  0  0  0  0  0  0999 V2000
   13.7543   62.1654   84.6796 C   0  0  0  0  0  0  0  0  0  0  0  0
   14.1271   62.2141   85.9970 C   0  0  0  0  0  0  0  0  0  0  0  0
   13.7896   63.6227   86.9700 Cl  0  0  0  0  0  0  0  0  0  0  0  0
   14.7682   61.1621   86.6505 C   0  0  0  0  0  3  0  0  0  0  0  0
   15.0654   60.0022   86.0023 C   0  0  0  0  0  3  0  0  0  0  0  0
   14.6979   59.9225   84.6620 C   0  0  0  0  0  3  0  0  0  0  0  0
   14.0665   60.9617   84.0216 C   0  0  0  0  0  0  0  0  0  0  0  0
   13.1271   63.1807   83.9066 C   0  0  0  0  0  0  0  0  0  0  0  0
   11.7549   63.5142   83.8482 N   0  0  0  0  0  0  0  0  0  0  0  0
   13.8680   63.9156   83.1505 O   0  0  0  0  0  0  0  0  0  0  0  0
   11.3396   64.6752   83.1199 C   0  0  0  0  0  0  0  0  0  0  0  0
    9.9917   65.0139   83.0179 C   0  0  0  0  0  0  0  0  0  0  0  0
    9.5880   66.1308   82.3177 C   0  0  0  0  0  3  0  0  0  0  0  0
   10.5187   66.9346   81.7038 C   0  0  0  0  0  3  0  0  0  0  0  0
   12.2446   65.5101   82.4878 C   0  0  0  0  0  3  0  0  0  0  0  0
   11.8156   66.6055   81.8041 N   0  0  0  0  0  0  0  0  0  0  0  0
    9.0173   64.2176   83.6308 O   0  0  0  0  0  0  0  0  0  0  0  0
    8.7978   62.9468   83.0269 C   0  0  0  0  0  1  0  0  0  0  0  0
   13.7472   60.7678   82.6809 O   0  0  0  0  0  0  0  0  0  0  0  0
   14.1654   59.6441   81.9498 C   0  0  0  0  0  2  0  0  0  0  0  0
   13.7612   59.8867   80.5153 C   0  0  0  0  0  3  0  0  0  0  0  0
   12.5818   59.2137   79.9205 C   0  0  0  0  0  2  0  0  0  0  0  0
   13.9109   58.5890   79.6723 C   0  0  0  0  0  2  0  0  0  0  0  0
  1  2  2  0
  1  8  1  0
  2  3  1  0
  4  2  1  0
  5  4  2  0
  6  5  1  0
  6  7  2  0
  7  1  1  0
  8 10  2  0
  8  9  1  0
  9 11  1  0
 11 12  2  0
 11 15  1  0
 12 13  1  0
 13 14  2  0
 15 16  2  0
 16 14  1  0
 17 18  1  0
 17 12  1  0
 19  7  1  0
 20 19  1  0
 21 20  1  0
 21 23  1  0
 21 22  1  0
 23 22  1  0
M  RAD  8   4   2   5   2   6   2  13   2  14   2  15   2  18   2  20   3
M  RAD  3  21   2  22   3  23   3
M  END
>  <REMARK>  (1) 
 SMILES COc1ccncc1NC(=O)c1c(Cl)cccc1OCC1CC1
 SMILES IDX 12 1 13 2 14 3 15 4 16 5 17 6 18 7 10 8 9 9 11 11 8 12 3 13
 SMILES IDX 4 14 5 15 7 16 6 17 2 18 1 19 19 20 20 21 21 22 22 23 23 24
 H PARENT 9 10

>  <TORSDO>  (1) 
F 6

$$$$
