/home/pchatterjee/Documents/git/vs_workflow/DiffDock/diffdock_run/pdbqt_scrubbed/Z2994634090.pdbqt
     RDKit          3D

 23 25  0  0  0  0  0  0  0  0999 V2000
    5.5702   46.7344   53.0080 C   0  0  0  0  0  0  0  0  0  0  0  0
    4.2026   46.6880   53.0729 C   0  0  0  0  0  0  0  0  0  0  0  0
    3.2952   45.6044   52.0496 Cl  0  0  0  0  0  0  0  0  0  0  0  0
    3.4512   47.4662   53.9531 C   0  0  0  0  0  3  0  0  0  0  0  0
    4.0475   48.3340   54.8165 C   0  0  0  0  0  3  0  0  0  0  0  0
    5.4372   48.4027   54.7744 C   0  0  0  0  0  3  0  0  0  0  0  0
    6.1739   47.6344   53.9053 C   0  0  0  0  0  0  0  0  0  0  0  0
    6.4325   46.0148   52.1360 C   0  0  0  0  0  0  0  0  0  0  0  0
    6.1143   45.3934   50.9072 N   0  0  0  0  0  0  0  0  0  0  0  0
    7.6711   45.8914   52.4696 O   0  0  0  0  0  0  0  0  0  0  0  0
    7.1002   44.5959   50.2417 C   0  0  0  0  0  0  0  0  0  0  0  0
    6.7424   43.4349   49.5591 C   0  0  0  0  0  0  0  0  0  0  0  0
    7.6886   42.6646   48.9172 C   0  0  0  0  0  3  0  0  0  0  0  0
    9.0122   43.0345   48.9414 C   0  0  0  0  0  3  0  0  0  0  0  0
    8.4425   44.9334   50.2423 C   0  0  0  0  0  3  0  0  0  0  0  0
    9.3531   44.1530   49.5996 N   0  0  0  0  0  0  0  0  0  0  0  0
    5.4037   43.0288   49.5143 O   0  0  0  0  0  0  0  0  0  0  0  0
    5.0918   41.8657   50.2744 C   0  0  0  0  0  1  0  0  0  0  0  0
    7.5563   47.7880   53.9531 O   0  0  0  0  0  0  0  0  0  0  0  0
    8.1923   48.7403   54.7659 C   0  0  0  0  0  2  0  0  0  0  0  0
    9.6745   48.4665   54.6740 C   0  0  0  0  0  3  0  0  0  0  0  0
   10.2524   47.1803   55.1318 C   0  0  0  0  0  2  0  0  0  0  0  0
   10.2978   48.3191   56.0907 C   0  0  0  0  0  2  0  0  0  0  0  0
  1  2  2  0
  1  8  1  0
  2  3  1  0
  4  2  1  0
  5  4  2  0
  6  5  1  0
  6  7  2  0
  7  1  1  0
  8 10  2  0
  8  9  1  0
  9 11  1  0
 11 12  2  0
 11 15  1  0
 12 13  1  0
 13 14  2  0
 15 16  2  0
 16 14  1  0
 17 18  1  0
 17 12  1  0
 19  7  1  0
 20 19  1  0
 21 20  1  0
 21 23  1  0
 21 22  1  0
 23 22  1  0
M  RAD  8   4   2   5   2   6   2  13   2  14   2  15   2  18   2  20   3
M  RAD  3  21   2  22   3  23   3
M  END
>  <REMARK>  (1) 
 SMILES COc1ccncc1NC(=O)c1c(Cl)cccc1OCC1CC1
 SMILES IDX 12 1 13 2 14 3 15 4 16 5 17 6 18 7 10 8 9 9 11 11 8 12 3 13
 SMILES IDX 4 14 5 15 7 16 6 17 2 18 1 19 19 20 20 21 21 22 22 23 23 24
 H PARENT 9 10

>  <TORSDO>  (1) 
F 6

$$$$
