/home/pchatterjee/Documents/git/vs_workflow/DiffDock/diffdock_run/pdbqt_scrubbed/Z2994634090.pdbqt
     RDKit          3D

 23 25  0  0  0  0  0  0  0  0999 V2000
    4.1002   44.8510   51.8595 C   0  0  0  0  0  0  0  0  0  0  0  0
    3.4263   45.8316   52.5386 C   0  0  0  0  0  0  0  0  0  0  0  0
    4.2755   47.2017   53.2066 Cl  0  0  0  0  0  0  0  0  0  0  0  0
    2.0442   45.8220   52.7249 C   0  0  0  0  0  3  0  0  0  0  0  0
    1.2703   44.8165   52.2311 C   0  0  0  0  0  3  0  0  0  0  0  0
    1.9270   43.8055   51.5351 C   0  0  0  0  0  3  0  0  0  0  0  0
    3.2892   43.8184   51.3541 C   0  0  0  0  0  0  0  0  0  0  0  0
    5.5001   44.7419   51.6355 C   0  0  0  0  0  0  0  0  0  0  0  0
    6.3351   45.5980   50.8822 N   0  0  0  0  0  0  0  0  0  0  0  0
    6.1273   43.7519   52.1713 O   0  0  0  0  0  0  0  0  0  0  0  0
    7.7365   45.3174   50.7897 C   0  0  0  0  0  0  0  0  0  0  0  0
    8.6361   45.8442   51.7144 C   0  0  0  0  0  0  0  0  0  0  0  0
    9.9858   45.5763   51.6286 C   0  0  0  0  0  3  0  0  0  0  0  0
   10.4685   44.7775   50.6195 C   0  0  0  0  0  3  0  0  0  0  0  0
    8.2625   44.5183   49.7894 C   0  0  0  0  0  3  0  0  0  0  0  0
    9.5994   44.2720   49.7310 N   0  0  0  0  0  0  0  0  0  0  0  0
    8.1790   46.6615   52.7546 O   0  0  0  0  0  0  0  0  0  0  0  0
    8.3715   48.0594   52.5635 C   0  0  0  0  0  1  0  0  0  0  0  0
    3.8351   42.7545   50.6419 O   0  0  0  0  0  0  0  0  0  0  0  0
    3.0807   41.9470   49.7754 C   0  0  0  0  0  2  0  0  0  0  0  0
    4.0392   40.9496   49.1698 C   0  0  0  0  0  3  0  0  0  0  0  0
    5.1563   41.3833   48.2971 C   0  0  0  0  0  2  0  0  0  0  0  0
    3.9094   40.9295   47.6206 C   0  0  0  0  0  2  0  0  0  0  0  0
  1  2  2  0
  1  8  1  0
  2  3  1  0
  4  2  1  0
  5  4  2  0
  6  5  1  0
  6  7  2  0
  7  1  1  0
  8 10  2  0
  8  9  1  0
  9 11  1  0
 11 12  2  0
 11 15  1  0
 12 13  1  0
 13 14  2  0
 15 16  2  0
 16 14  1  0
 17 18  1  0
 17 12  1  0
 19  7  1  0
 20 19  1  0
 21 20  1  0
 21 23  1  0
 21 22  1  0
 23 22  1  0
M  RAD  8   4   2   5   2   6   2  13   2  14   2  15   2  18   2  20   3
M  RAD  3  21   2  22   3  23   3
M  END
>  <REMARK>  (1) 
 SMILES COc1ccncc1NC(=O)c1c(Cl)cccc1OCC1CC1
 SMILES IDX 12 1 13 2 14 3 15 4 16 5 17 6 18 7 10 8 9 9 11 11 8 12 3 13
 SMILES IDX 4 14 5 15 7 16 6 17 2 18 1 19 19 20 20 21 21 22 22 23 23 24
 H PARENT 9 10

>  <TORSDO>  (1) 
F 6

$$$$
