/home/pchatterjee/Documents/git/vs_workflow/DiffDock/diffdock_run/pdbqt_scrubbed/5329572.pdbqt
     RDKit          3D

 28 31  0  0  1  0  0  0  0  0999 V2000
    7.4474   42.6462   48.7266 N   0  0  0  0  0  0  0  0  0  0  0  0
    6.1303   42.1597   48.5048 C   0  0  0  0  0  0  0  0  0  0  0  0
    3.6105   41.1997   47.9548 C   0  0  0  0  0  0  0  0  0  0  0  0
    3.9461   41.6089   49.2448 C   0  0  0  0  0  3  0  0  0  0  0  0
    4.5645   41.2855   46.9625 C   0  0  0  0  0  3  0  0  0  0  0  0
    5.2083   42.0910   49.5252 C   0  0  0  0  0  3  0  0  0  0  0  0
    5.8375   41.7619   47.2034 C   0  0  0  0  0  3  0  0  0  0  0  0
    2.2374   40.6881   47.7050 C   0  0  0  0  0  2  0  0  0  0  0  0
    2.0647   40.3377   46.2671 C   0  0  0  0  0  0  0  0  0  0  0  0
    0.7615   39.9832   45.7762 N   0  0  0  0  0  0  0  0  0  0  0  0
    3.0460   40.3548   45.5064 O   0  0  0  0  0  0  0  0  0  0  0  0
    7.9328   42.7033   50.0727 C   0  0  0  0  0  3  0  0  0  0  0  0
    7.0473   43.4009   50.9666 N   0  0  0  0  0  0  0  0  0  0  0  0
    9.2553   43.2366   50.1600 N   0  0  0  0  0  0  0  0  0  0  0  0
    7.1548   44.6692   51.1999 C   0  0  0  0  0  0  0  0  0  0  0  0
    9.4573   44.4967   50.3586 C   0  0  0  0  0  0  0  0  0  0  0  0
    8.2476   45.3849   50.4951 C   0  0  0  0  0  3  0  0  0  0  0  0
   10.6097   45.3305   50.4927 N   0  0  0  0  0  0  0  0  0  0  0  0
    8.8429   46.4148   51.3605 N   0  0  0  0  0  0  0  0  0  0  0  0
   10.2536   46.4489   51.0764 C   0  0  0  0  0  3  0  0  0  0  0  0
    6.2694   45.2601   52.0666 O   0  0  0  0  0  0  0  0  0  0  0  0
    5.2006   44.5654   52.6900 C   0  0  0  0  0  2  0  0  0  0  0  0
    3.8963   44.9827   52.0832 C   0  0  0  0  0  3  0  0  0  0  0  0
    2.7871   44.2184   52.7807 C   0  0  0  0  0  2  0  0  0  0  0  0
    3.7714   46.4756   52.2577 C   0  0  0  0  0  2  0  0  0  0  0  0
    1.9255   45.2413   53.4991 C   0  0  0  0  0  2  0  0  0  0  0  0
    2.4444   46.9845   51.7574 C   0  0  0  0  0  2  0  0  0  0  0  0
    1.3577   46.1893   52.4455 C   0  0  0  0  0  2  0  0  0  0  0  0
  1  2  1  0
  2  7  1  0
  2  6  2  0
  3  8  1  0
  4  3  2  0
  5  3  1  0
  6  4  1  0
  7  5  2  0
  8  9  1  0
  9 10  1  0
 11  9  2  0
 12 13  1  0
 12  1  1  0
 14 12  1  0
 15 21  1  0
 15 13  2  0
 16 14  2  0
 17 16  1  0
 17 15  1  0
 18 16  1  0
 19 17  1  0
 20 18  2  0
 20 19  1  0
 21 22  1  0
 22 23  1  0
 24 23  1  0
 25 23  1  0
 26 24  1  0
 27 25  1  0
 28 26  1  0
 28 27  1  0
M  RAD  8   4   2   5   2   6   2   7   2   8   3  12   2  17   2  20   2
M  RAD  7  22   3  23   2  24   3  25   3  26   3  27   3  28   3
M  END
>  <REMARK>  (1) 
 SMILES NC(=O)Cc1ccc(Nc2nc(OCC3CCCCC3)c3[nH]cnc3n2)cc1
 SMILES IDX 9 1 8 3 5 4 6 5 28 6 7 7 27 8 4 9 2 10 1 11 3 14 10 15 11 16
 SMILES IDX 26 17 12 18 25 19 21 20 24 21 22 22 23 23 13 25 14 26 15 27
 SMILES IDX 16 28 20 29 17 30 19 31 18 32
 H PARENT 9 2 1 12 1 13 22 24

>  <TORSDO>  (1) 
F 7

$$$$
