/home/pchatterjee/Documents/git/vs_workflow/DiffDock/diffdock_run/pdbqt_scrubbed/5329572.pdbqt
     RDKit          3D

 28 31  0  0  1  0  0  0  0  0999 V2000
   15.8103   63.9338   82.4370 N   0  0  0  0  0  0  0  0  0  0  0  0
   15.3661   62.6513   82.8593 C   0  0  0  0  0  0  0  0  0  0  0  0
   14.4332   60.2247   83.7621 C   0  0  0  0  0  0  0  0  0  0  0  0
   15.3603   60.2842   82.7223 C   0  0  0  0  0  3  0  0  0  0  0  0
   13.9942   61.4036   84.3276 C   0  0  0  0  0  3  0  0  0  0  0  0
   15.8309   61.4987   82.2663 C   0  0  0  0  0  3  0  0  0  0  0  0
   14.4411   62.6374   83.8994 C   0  0  0  0  0  3  0  0  0  0  0  0
   13.9578   58.8916   84.2164 C   0  0  0  0  0  2  0  0  0  0  0  0
   12.6639   58.5483   83.5620 C   0  0  0  0  0  0  0  0  0  0  0  0
   11.9687   57.3525   83.9517 N   0  0  0  0  0  0  0  0  0  0  0  0
   12.1980   59.2964   82.6873 O   0  0  0  0  0  0  0  0  0  0  0  0
   15.5368   65.0589   83.2797 C   0  0  0  0  0  3  0  0  0  0  0  0
   14.1486   65.4367   83.2896 N   0  0  0  0  0  0  0  0  0  0  0  0
   16.3609   66.1866   82.9789 N   0  0  0  0  0  0  0  0  0  0  0  0
   13.6636   66.3181   82.4757 C   0  0  0  0  0  0  0  0  0  0  0  0
   15.9711   67.0993   82.1525 C   0  0  0  0  0  0  0  0  0  0  0  0
   14.6151   66.9325   81.5165 C   0  0  0  0  0  3  0  0  0  0  0  0
   16.5277   68.3138   81.6461 N   0  0  0  0  0  0  0  0  0  0  0  0
   14.3060   68.3559   81.3106 N   0  0  0  0  0  0  0  0  0  0  0  0
   15.5587   69.0475   81.1549 C   0  0  0  0  0  3  0  0  0  0  0  0
   12.3272   66.6227   82.5497 O   0  0  0  0  0  0  0  0  0  0  0  0
   11.3625   65.7760   83.1548 C   0  0  0  0  0  2  0  0  0  0  0  0
   10.0995   65.7823   82.3495 C   0  0  0  0  0  3  0  0  0  0  0  0
    9.0860   64.9031   83.0572 C   0  0  0  0  0  2  0  0  0  0  0  0
    9.6434   67.2152   82.2318 C   0  0  0  0  0  2  0  0  0  0  0  0
    7.9375   65.8007   83.4813 C   0  0  0  0  0  2  0  0  0  0  0  0
    8.3242   67.3210   81.5114 C   0  0  0  0  0  2  0  0  0  0  0  0
    7.3403   66.4157   82.2179 C   0  0  0  0  0  2  0  0  0  0  0  0
  1  2  1  0
  2  7  1  0
  2  6  2  0
  3  8  1  0
  4  3  2  0
  5  3  1  0
  6  4  1  0
  7  5  2  0
  8  9  1  0
  9 10  1  0
 11  9  2  0
 12 13  1  0
 12  1  1  0
 14 12  1  0
 15 21  1  0
 15 13  2  0
 16 14  2  0
 17 16  1  0
 17 15  1  0
 18 16  1  0
 19 17  1  0
 20 18  2  0
 20 19  1  0
 21 22  1  0
 22 23  1  0
 24 23  1  0
 25 23  1  0
 26 24  1  0
 27 25  1  0
 28 26  1  0
 28 27  1  0
M  RAD  8   4   2   5   2   6   2   7   2   8   3  12   2  17   2  20   2
M  RAD  7  22   3  23   2  24   3  25   3  26   3  27   3  28   3
M  END
>  <REMARK>  (1) 
 SMILES NC(=O)Cc1ccc(Nc2nc(OCC3CCCCC3)c3[nH]cnc3n2)cc1
 SMILES IDX 9 1 8 3 5 4 6 5 28 6 7 7 27 8 4 9 2 10 1 11 3 14 10 15 11 16
 SMILES IDX 26 17 12 18 25 19 21 20 24 21 22 22 23 23 13 25 14 26 15 27
 SMILES IDX 16 28 20 29 17 30 19 31 18 32
 H PARENT 9 2 1 12 1 13 22 24

>  <TORSDO>  (1) 
F 7

$$$$
