/home/pchatterjee/Documents/git/vs_workflow/DiffDock/diffdock_run/pdbqt_scrubbed/5329572.pdbqt
     RDKit          3D

 28 31  0  0  1  0  0  0  0  0999 V2000
   13.3351   65.0904   83.0101 N   0  0  0  0  0  0  0  0  0  0  0  0
   13.7122   63.9916   83.8292 C   0  0  0  0  0  0  0  0  0  0  0  0
   14.3982   61.9269   85.5144 C   0  0  0  0  0  0  0  0  0  0  0  0
   14.6511   61.8376   84.1462 C   0  0  0  0  0  3  0  0  0  0  0  0
   13.7987   63.0681   86.0050 C   0  0  0  0  0  3  0  0  0  0  0  0
   14.3089   62.8704   83.2973 C   0  0  0  0  0  3  0  0  0  0  0  0
   13.4417   64.1222   85.1884 C   0  0  0  0  0  3  0  0  0  0  0  0
   14.7861   60.7869   86.3859 C   0  0  0  0  0  2  0  0  0  0  0  0
   13.7261   59.7397   86.3776 C   0  0  0  0  0  0  0  0  0  0  0  0
   13.8833   58.5667   87.1928 N   0  0  0  0  0  0  0  0  0  0  0  0
   12.7181   59.8886   85.6681 O   0  0  0  0  0  0  0  0  0  0  0  0
   12.4846   66.0963   83.5720 C   0  0  0  0  0  3  0  0  0  0  0  0
   11.0887   65.7512   83.5240 N   0  0  0  0  0  0  0  0  0  0  0  0
   12.7019   67.3863   82.9976 N   0  0  0  0  0  0  0  0  0  0  0  0
   10.3234   66.0912   82.5375 C   0  0  0  0  0  0  0  0  0  0  0  0
   12.0064   67.7961   81.9895 C   0  0  0  0  0  0  0  0  0  0  0  0
   10.9568   66.8646   81.4403 C   0  0  0  0  0  3  0  0  0  0  0  0
   11.9676   68.9868   81.2009 N   0  0  0  0  0  0  0  0  0  0  0  0
   10.0324   67.8808   80.9141 N   0  0  0  0  0  0  0  0  0  0  0  0
   10.8178   69.0379   80.5733 C   0  0  0  0  0  3  0  0  0  0  0  0
    9.0015   65.7227   82.5677 O   0  0  0  0  0  0  0  0  0  0  0  0
    8.4958   64.6844   83.3923 C   0  0  0  0  0  2  0  0  0  0  0  0
    7.7756   63.6719   82.5558 C   0  0  0  0  0  3  0  0  0  0  0  0
    7.2009   62.6183   83.4837 C   0  0  0  0  0  2  0  0  0  0  0  0
    6.7108   64.4019   81.7760 C   0  0  0  0  0  2  0  0  0  0  0  0
    5.6896   62.6938   83.3609 C   0  0  0  0  0  2  0  0  0  0  0  0
    5.8660   63.4528   80.9662 C   0  0  0  0  0  2  0  0  0  0  0  0
    5.3285   62.3980   81.9072 C   0  0  0  0  0  2  0  0  0  0  0  0
  1  2  1  0
  2  7  1  0
  2  6  2  0
  3  8  1  0
  4  3  2  0
  5  3  1  0
  6  4  1  0
  7  5  2  0
  8  9  1  0
  9 10  1  0
 11  9  2  0
 12 13  1  0
 12  1  1  0
 14 12  1  0
 15 21  1  0
 15 13  2  0
 16 14  2  0
 17 16  1  0
 17 15  1  0
 18 16  1  0
 19 17  1  0
 20 18  2  0
 20 19  1  0
 21 22  1  0
 22 23  1  0
 24 23  1  0
 25 23  1  0
 26 24  1  0
 27 25  1  0
 28 26  1  0
 28 27  1  0
M  RAD  8   4   2   5   2   6   2   7   2   8   3  12   2  17   2  20   2
M  RAD  7  22   3  23   2  24   3  25   3  26   3  27   3  28   3
M  END
>  <REMARK>  (1) 
 SMILES NC(=O)Cc1ccc(Nc2nc(OCC3CCCCC3)c3[nH]cnc3n2)cc1
 SMILES IDX 9 1 8 3 5 4 6 5 28 6 7 7 27 8 4 9 2 10 1 11 3 14 10 15 11 16
 SMILES IDX 26 17 12 18 25 19 21 20 24 21 22 22 23 23 13 25 14 26 15 27
 SMILES IDX 16 28 20 29 17 30 19 31 18 32
 H PARENT 9 2 1 12 1 13 22 24

>  <TORSDO>  (1) 
F 7

$$$$
