/home/pchatterjee/Documents/git/vs_workflow/DiffDock/diffdock_run/pdbqt_scrubbed/5329572.pdbqt
     RDKit          3D

 28 31  0  0  1  0  0  0  0  0999 V2000
    7.4246   42.9212   48.7900 N   0  0  0  0  0  0  0  0  0  0  0  0
    6.1926   42.2618   48.5291 C   0  0  0  0  0  0  0  0  0  0  0  0
    3.8497   40.9581   47.9089 C   0  0  0  0  0  0  0  0  0  0  0  0
    4.0248   41.5407   49.1635 C   0  0  0  0  0  3  0  0  0  0  0  0
    4.8718   41.0481   46.9873 C   0  0  0  0  0  3  0  0  0  0  0  0
    5.1979   42.1955   49.4789 C   0  0  0  0  0  3  0  0  0  0  0  0
    6.0596   41.6943   47.2650 C   0  0  0  0  0  3  0  0  0  0  0  0
    2.5674   40.2644   47.6190 C   0  0  0  0  0  2  0  0  0  0  0  0
    1.7971   41.0045   46.5801 C   0  0  0  0  0  0  0  0  0  0  0  0
    0.4582   40.5906   46.2624 N   0  0  0  0  0  0  0  0  0  0  0  0
    2.3172   41.9706   45.9988 O   0  0  0  0  0  0  0  0  0  0  0  0
    7.9141   42.9386   50.1357 C   0  0  0  0  0  3  0  0  0  0  0  0
    7.0186   43.5857   51.0573 N   0  0  0  0  0  0  0  0  0  0  0  0
    9.2263   43.4944   50.2381 N   0  0  0  0  0  0  0  0  0  0  0  0
    7.1023   44.8465   51.3364 C   0  0  0  0  0  0  0  0  0  0  0  0
    9.4044   44.7501   50.4820 C   0  0  0  0  0  0  0  0  0  0  0  0
    8.1781   45.6087   50.6548 C   0  0  0  0  0  3  0  0  0  0  0  0
   10.5409   45.6009   50.6428 N   0  0  0  0  0  0  0  0  0  0  0  0
    8.7567   46.6179   51.5553 N   0  0  0  0  0  0  0  0  0  0  0  0
   10.1653   46.6901   51.2681 C   0  0  0  0  0  3  0  0  0  0  0  0
    6.2090   45.3879   52.2270 O   0  0  0  0  0  0  0  0  0  0  0  0
    5.1144   44.6694   52.7742 C   0  0  0  0  0  2  0  0  0  0  0  0
    3.8389   45.1046   52.1207 C   0  0  0  0  0  3  0  0  0  0  0  0
    2.7615   44.0970   52.4745 C   0  0  0  0  0  2  0  0  0  0  0  0
    3.5230   46.4921   52.6207 C   0  0  0  0  0  2  0  0  0  0  0  0
    1.7175   44.8318   53.2959 C   0  0  0  0  0  2  0  0  0  0  0  0
    2.2034   46.9875   52.0882 C   0  0  0  0  0  2  0  0  0  0  0  0
    1.1529   45.9544   52.4286 C   0  0  0  0  0  2  0  0  0  0  0  0
  1  2  1  0
  2  7  1  0
  2  6  2  0
  3  8  1  0
  4  3  2  0
  5  3  1  0
  6  4  1  0
  7  5  2  0
  8  9  1  0
  9 10  1  0
 11  9  2  0
 12 13  1  0
 12  1  1  0
 14 12  1  0
 15 21  1  0
 15 13  2  0
 16 14  2  0
 17 16  1  0
 17 15  1  0
 18 16  1  0
 19 17  1  0
 20 18  2  0
 20 19  1  0
 21 22  1  0
 22 23  1  0
 24 23  1  0
 25 23  1  0
 26 24  1  0
 27 25  1  0
 28 26  1  0
 28 27  1  0
M  RAD  8   4   2   5   2   6   2   7   2   8   3  12   2  17   2  20   2
M  RAD  7  22   3  23   2  24   3  25   3  26   3  27   3  28   3
M  END
>  <REMARK>  (1) 
 SMILES NC(=O)Cc1ccc(Nc2nc(OCC3CCCCC3)c3[nH]cnc3n2)cc1
 SMILES IDX 9 1 8 3 5 4 6 5 28 6 7 7 27 8 4 9 2 10 1 11 3 14 10 15 11 16
 SMILES IDX 26 17 12 18 25 19 21 20 24 21 22 22 23 23 13 25 14 26 15 27
 SMILES IDX 16 28 20 29 17 30 19 31 18 32
 H PARENT 9 2 1 12 1 13 22 24

>  <TORSDO>  (1) 
F 7

$$$$
