/home/pchatterjee/Documents/git/vs_workflow/DiffDock/diffdock_run/pdbqt_scrubbed/5329572.pdbqt
     RDKit          3D

 28 31  0  0  1  0  0  0  0  0999 V2000
    7.1498   43.0794   48.6789 N   0  0  0  0  0  0  0  0  0  0  0  0
    5.9479   42.3647   48.4237 C   0  0  0  0  0  0  0  0  0  0  0  0
    3.5851   41.0049   48.0473 C   0  0  0  0  0  0  0  0  0  0  0  0
    4.5139   41.1097   47.0127 C   0  0  0  0  0  3  0  0  0  0  0  0
    3.8736   41.5949   49.2601 C   0  0  0  0  0  3  0  0  0  0  0  0
    5.7001   41.7906   47.1968 C   0  0  0  0  0  3  0  0  0  0  0  0
    5.0486   42.2842   49.4832 C   0  0  0  0  0  3  0  0  0  0  0  0
    2.3227   40.2608   47.7977 C   0  0  0  0  0  2  0  0  0  0  0  0
    1.6495   40.7722   46.5707 C   0  0  0  0  0  0  0  0  0  0  0  0
    0.3772   40.2286   46.1823 N   0  0  0  0  0  0  0  0  0  0  0  0
    2.1920   41.6618   45.8953 O   0  0  0  0  0  0  0  0  0  0  0  0
    7.6732   43.0742   50.0119 C   0  0  0  0  0  3  0  0  0  0  0  0
    6.7886   43.6792   50.9717 N   0  0  0  0  0  0  0  0  0  0  0  0
    8.9759   43.6551   50.0952 N   0  0  0  0  0  0  0  0  0  0  0  0
    6.8533   44.9342   51.2802 C   0  0  0  0  0  0  0  0  0  0  0  0
    9.1342   44.9079   50.3660 C   0  0  0  0  0  0  0  0  0  0  0  0
    7.8953   45.7357   50.5911 C   0  0  0  0  0  3  0  0  0  0  0  0
   10.2566   45.7786   50.5194 N   0  0  0  0  0  0  0  0  0  0  0  0
    8.4757   46.7346   51.5018 N   0  0  0  0  0  0  0  0  0  0  0  0
    9.8747   46.8438   51.1812 C   0  0  0  0  0  3  0  0  0  0  0  0
    5.9722   45.4343   52.2064 O   0  0  0  0  0  0  0  0  0  0  0  0
    5.0512   44.6300   52.9266 C   0  0  0  0  0  2  0  0  0  0  0  0
    3.8105   45.4145   53.2240 C   0  0  0  0  0  3  0  0  0  0  0  0
    4.2243   46.8251   53.5981 C   0  0  0  0  0  2  0  0  0  0  0  0
    2.9404   45.3720   51.9927 C   0  0  0  0  0  2  0  0  0  0  0  0
    3.6573   47.7514   52.5373 C   0  0  0  0  0  2  0  0  0  0  0  0
    1.7006   46.2120   52.1591 C   0  0  0  0  0  2  0  0  0  0  0  0
    2.1378   47.6034   52.5585 C   0  0  0  0  0  2  0  0  0  0  0  0
  1  2  1  0
  2  7  1  0
  2  6  2  0
  3  8  1  0
  4  3  2  0
  5  3  1  0
  6  4  1  0
  7  5  2  0
  8  9  1  0
  9 10  1  0
 11  9  2  0
 12 13  1  0
 12  1  1  0
 14 12  1  0
 15 21  1  0
 15 13  2  0
 16 14  2  0
 17 16  1  0
 17 15  1  0
 18 16  1  0
 19 17  1  0
 20 18  2  0
 20 19  1  0
 21 22  1  0
 22 23  1  0
 24 23  1  0
 25 23  1  0
 26 24  1  0
 27 25  1  0
 28 26  1  0
 28 27  1  0
M  RAD  8   4   2   5   2   6   2   7   2   8   3  12   2  17   2  20   2
M  RAD  7  22   3  23   2  24   3  25   3  26   3  27   3  28   3
M  END
>  <REMARK>  (1) 
 SMILES NC(=O)Cc1ccc(Nc2nc(OCC3CCCCC3)c3[nH]cnc3n2)cc1
 SMILES IDX 9 1 8 3 5 4 6 5 28 6 7 7 27 8 4 9 2 10 1 11 3 14 10 15 11 16
 SMILES IDX 26 17 12 18 25 19 21 20 24 21 22 22 23 23 13 25 14 26 15 27
 SMILES IDX 16 28 20 29 17 30 19 31 18 32
 H PARENT 9 2 1 12 1 13 22 24

>  <TORSDO>  (1) 
F 7

$$$$
