/home/pchatterjee/Documents/git/vs_workflow/DiffDock/diffdock_run/pdbqt_scrubbed/5329572.pdbqt
     RDKit          3D

 28 31  0  0  1  0  0  0  0  0999 V2000
    7.2850   42.9475   48.7434 N   0  0  0  0  0  0  0  0  0  0  0  0
    5.9919   42.3854   48.5630 C   0  0  0  0  0  0  0  0  0  0  0  0
    3.4717   41.3033   48.3380 C   0  0  0  0  0  0  0  0  0  0  0  0
    4.2561   41.5120   47.2043 C   0  0  0  0  0  3  0  0  0  0  0  0
    3.9830   41.6492   49.5713 C   0  0  0  0  0  3  0  0  0  0  0  0
    5.5205   42.0543   47.3124 C   0  0  0  0  0  3  0  0  0  0  0  0
    5.2425   42.1939   49.7204 C   0  0  0  0  0  3  0  0  0  0  0  0
    2.1167   40.7162   48.1676 C   0  0  0  0  0  2  0  0  0  0  0  0
    2.1954   39.4311   47.4176 C   0  0  0  0  0  0  0  0  0  0  0  0
    0.9978   38.6708   47.1880 N   0  0  0  0  0  0  0  0  0  0  0  0
    3.2925   39.0285   46.9980 O   0  0  0  0  0  0  0  0  0  0  0  0
    7.8349   42.9761   50.0654 C   0  0  0  0  0  3  0  0  0  0  0  0
    7.0061   43.6764   51.0101 N   0  0  0  0  0  0  0  0  0  0  0  0
    9.1699   43.4843   50.0966 N   0  0  0  0  0  0  0  0  0  0  0  0
    7.1483   44.9390   51.2554 C   0  0  0  0  0  0  0  0  0  0  0  0
    9.4045   44.7374   50.3027 C   0  0  0  0  0  0  0  0  0  0  0  0
    8.2195   45.6451   50.5091 C   0  0  0  0  0  3  0  0  0  0  0  0
   10.5774   45.5483   50.3929 N   0  0  0  0  0  0  0  0  0  0  0  0
    8.8744   46.6514   51.3590 N   0  0  0  0  0  0  0  0  0  0  0  0
   10.2704   46.6644   51.0083 C   0  0  0  0  0  3  0  0  0  0  0  0
    6.3164   45.5330   52.1715 O   0  0  0  0  0  0  0  0  0  0  0  0
    5.2122   44.8734   52.7712 C   0  0  0  0  0  2  0  0  0  0  0  0
    3.9441   45.2639   52.0763 C   0  0  0  0  0  3  0  0  0  0  0  0
    2.9869   44.0893   52.1493 C   0  0  0  0  0  2  0  0  0  0  0  0
    3.4083   46.4934   52.7663 C   0  0  0  0  0  2  0  0  0  0  0  0
    1.7940   44.5380   52.9742 C   0  0  0  0  0  2  0  0  0  0  0  0
    2.0793   46.9160   52.1959 C   0  0  0  0  0  2  0  0  0  0  0  0
    1.1530   45.7220   52.2541 C   0  0  0  0  0  2  0  0  0  0  0  0
  1  2  1  0
  2  7  1  0
  2  6  2  0
  3  8  1  0
  4  3  2  0
  5  3  1  0
  6  4  1  0
  7  5  2  0
  8  9  1  0
  9 10  1  0
 11  9  2  0
 12 13  1  0
 12  1  1  0
 14 12  1  0
 15 21  1  0
 15 13  2  0
 16 14  2  0
 17 16  1  0
 17 15  1  0
 18 16  1  0
 19 17  1  0
 20 18  2  0
 20 19  1  0
 21 22  1  0
 22 23  1  0
 24 23  1  0
 25 23  1  0
 26 24  1  0
 27 25  1  0
 28 26  1  0
 28 27  1  0
M  RAD  8   4   2   5   2   6   2   7   2   8   3  12   2  17   2  20   2
M  RAD  7  22   3  23   2  24   3  25   3  26   3  27   3  28   3
M  END
>  <REMARK>  (1) 
 SMILES NC(=O)Cc1ccc(Nc2nc(OCC3CCCCC3)c3[nH]cnc3n2)cc1
 SMILES IDX 9 1 8 3 5 4 6 5 28 6 7 7 27 8 4 9 2 10 1 11 3 14 10 15 11 16
 SMILES IDX 26 17 12 18 25 19 21 20 24 21 22 22 23 23 13 25 14 26 15 27
 SMILES IDX 16 28 20 29 17 30 19 31 18 32
 H PARENT 9 2 1 12 1 13 22 24

>  <TORSDO>  (1) 
F 7

$$$$
