/home/pchatterjee/Documents/git/vs_workflow/DiffDock/diffdock_run/pdbqt_scrubbed/5329572.pdbqt
     RDKit          3D

 28 31  0  0  1  0  0  0  0  0999 V2000
    7.2302   42.7753   48.6798 N   0  0  0  0  0  0  0  0  0  0  0  0
    5.9770   42.1579   48.4170 C   0  0  0  0  0  0  0  0  0  0  0  0
    3.5936   40.9309   47.7946 C   0  0  0  0  0  0  0  0  0  0  0  0
    3.7732   41.5398   49.0360 C   0  0  0  0  0  3  0  0  0  0  0  0
    4.6320   40.9559   46.8871 C   0  0  0  0  0  3  0  0  0  0  0  0
    4.9666   42.1563   49.3525 C   0  0  0  0  0  3  0  0  0  0  0  0
    5.8402   41.5622   47.1663 C   0  0  0  0  0  3  0  0  0  0  0  0
    2.2892   40.2805   47.5029 C   0  0  0  0  0  2  0  0  0  0  0  0
    1.4839   41.1207   46.5724 C   0  0  0  0  0  0  0  0  0  0  0  0
    0.1185   40.7654   46.2995 N   0  0  0  0  0  0  0  0  0  0  0  0
    1.9978   42.1187   46.0416 O   0  0  0  0  0  0  0  0  0  0  0  0
    7.7292   42.7550   50.0220 C   0  0  0  0  0  3  0  0  0  0  0  0
    6.8561   43.4058   50.9623 N   0  0  0  0  0  0  0  0  0  0  0  0
    9.0552   43.2769   50.1254 N   0  0  0  0  0  0  0  0  0  0  0  0
    6.9723   44.6586   51.2647 C   0  0  0  0  0  0  0  0  0  0  0  0
    9.2655   44.5230   50.3917 C   0  0  0  0  0  0  0  0  0  0  0  0
    8.0616   45.4075   50.5898 C   0  0  0  0  0  3  0  0  0  0  0  0
   10.4233   45.3429   50.5603 N   0  0  0  0  0  0  0  0  0  0  0  0
    8.6707   46.3850   51.5050 N   0  0  0  0  0  0  0  0  0  0  0  0
   10.0786   46.4286   51.2089 C   0  0  0  0  0  3  0  0  0  0  0  0
    6.0986   45.2042   52.1719 O   0  0  0  0  0  0  0  0  0  0  0  0
    4.9987   44.4975   52.7239 C   0  0  0  0  0  2  0  0  0  0  0  0
    3.7127   45.0982   52.2456 C   0  0  0  0  0  3  0  0  0  0  0  0
    2.5696   44.3282   52.8792 C   0  0  0  0  0  2  0  0  0  0  0  0
    3.7189   46.5548   52.6367 C   0  0  0  0  0  2  0  0  0  0  0  0
    1.8225   45.2988   53.7762 C   0  0  0  0  0  2  0  0  0  0  0  0
    2.4216   47.2321   52.2778 C   0  0  0  0  0  2  0  0  0  0  0  0
    1.2980   46.4312   52.8966 C   0  0  0  0  0  2  0  0  0  0  0  0
  1  2  1  0
  2  7  1  0
  2  6  2  0
  3  8  1  0
  4  3  2  0
  5  3  1  0
  6  4  1  0
  7  5  2  0
  8  9  1  0
  9 10  1  0
 11  9  2  0
 12 13  1  0
 12  1  1  0
 14 12  1  0
 15 21  1  0
 15 13  2  0
 16 14  2  0
 17 16  1  0
 17 15  1  0
 18 16  1  0
 19 17  1  0
 20 18  2  0
 20 19  1  0
 21 22  1  0
 22 23  1  0
 24 23  1  0
 25 23  1  0
 26 24  1  0
 27 25  1  0
 28 26  1  0
 28 27  1  0
M  RAD  8   4   2   5   2   6   2   7   2   8   3  12   2  17   2  20   2
M  RAD  7  22   3  23   2  24   3  25   3  26   3  27   3  28   3
M  END
>  <REMARK>  (1) 
 SMILES NC(=O)Cc1ccc(Nc2nc(OCC3CCCCC3)c3[nH]cnc3n2)cc1
 SMILES IDX 9 1 8 3 5 4 6 5 28 6 7 7 27 8 4 9 2 10 1 11 3 14 10 15 11 16
 SMILES IDX 26 17 12 18 25 19 21 20 24 21 22 22 23 23 13 25 14 26 15 27
 SMILES IDX 16 28 20 29 17 30 19 31 18 32
 H PARENT 9 2 1 12 1 13 22 24

>  <TORSDO>  (1) 
F 7

$$$$
