/home/pchatterjee/Documents/git/vs_workflow/DiffDock/diffdock_run/pdbqt_scrubbed/5329572.pdbqt
     RDKit          3D

 28 31  0  0  1  0  0  0  0  0999 V2000
    7.2665   42.8472   48.7199 N   0  0  0  0  0  0  0  0  0  0  0  0
    6.0843   42.1221   48.4085 C   0  0  0  0  0  0  0  0  0  0  0  0
    3.7481   40.7531   47.9167 C   0  0  0  0  0  0  0  0  0  0  0  0
    4.7773   40.7576   46.9761 C   0  0  0  0  0  3  0  0  0  0  0  0
    3.9240   41.4469   49.0956 C   0  0  0  0  0  3  0  0  0  0  0  0
    5.9505   41.4426   47.2184 C   0  0  0  0  0  3  0  0  0  0  0  0
    5.0823   42.1439   49.3747 C   0  0  0  0  0  3  0  0  0  0  0  0
    2.5045   39.9998   47.6074 C   0  0  0  0  0  2  0  0  0  0  0  0
    1.5794   40.8335   46.7892 C   0  0  0  0  0  0  0  0  0  0  0  0
    0.2587   40.3477   46.4980 N   0  0  0  0  0  0  0  0  0  0  0  0
    1.9563   41.9385   46.3666 O   0  0  0  0  0  0  0  0  0  0  0  0
    7.7339   42.8356   50.0735 C   0  0  0  0  0  3  0  0  0  0  0  0
    6.8164   43.4492   50.9963 N   0  0  0  0  0  0  0  0  0  0  0  0
    9.0379   43.4028   50.2117 N   0  0  0  0  0  0  0  0  0  0  0  0
    6.8812   44.7033   51.3086 C   0  0  0  0  0  0  0  0  0  0  0  0
    9.1979   44.6537   50.4902 C   0  0  0  0  0  0  0  0  0  0  0  0
    7.9593   45.4943   50.6643 C   0  0  0  0  0  3  0  0  0  0  0  0
   10.3219   45.5125   50.6912 N   0  0  0  0  0  0  0  0  0  0  0  0
    8.5117   46.4864   51.5995 N   0  0  0  0  0  0  0  0  0  0  0  0
    9.9239   46.5813   51.3376 C   0  0  0  0  0  3  0  0  0  0  0  0
    5.9675   45.2120   52.1977 O   0  0  0  0  0  0  0  0  0  0  0  0
    4.9300   44.4408   52.7831 C   0  0  0  0  0  2  0  0  0  0  0  0
    3.5957   44.9976   52.3914 C   0  0  0  0  0  3  0  0  0  0  0  0
    2.5615   44.4715   53.3685 C   0  0  0  0  0  2  0  0  0  0  0  0
    3.7062   46.5016   52.4167 C   0  0  0  0  0  2  0  0  0  0  0  0
    2.0064   45.6700   54.1170 C   0  0  0  0  0  2  0  0  0  0  0  0
    2.3836   47.1609   52.1229 C   0  0  0  0  0  2  0  0  0  0  0  0
    1.3652   46.6002   53.0900 C   0  0  0  0  0  2  0  0  0  0  0  0
  1  2  1  0
  2  7  1  0
  2  6  2  0
  3  8  1  0
  4  3  2  0
  5  3  1  0
  6  4  1  0
  7  5  2  0
  8  9  1  0
  9 10  1  0
 11  9  2  0
 12 13  1  0
 12  1  1  0
 14 12  1  0
 15 21  1  0
 15 13  2  0
 16 14  2  0
 17 16  1  0
 17 15  1  0
 18 16  1  0
 19 17  1  0
 20 18  2  0
 20 19  1  0
 21 22  1  0
 22 23  1  0
 24 23  1  0
 25 23  1  0
 26 24  1  0
 27 25  1  0
 28 26  1  0
 28 27  1  0
M  RAD  8   4   2   5   2   6   2   7   2   8   3  12   2  17   2  20   2
M  RAD  7  22   3  23   2  24   3  25   3  26   3  27   3  28   3
M  END
>  <REMARK>  (1) 
 SMILES NC(=O)Cc1ccc(Nc2nc(OCC3CCCCC3)c3[nH]cnc3n2)cc1
 SMILES IDX 9 1 8 3 5 4 6 5 28 6 7 7 27 8 4 9 2 10 1 11 3 14 10 15 11 16
 SMILES IDX 26 17 12 18 25 19 21 20 24 21 22 22 23 23 13 25 14 26 15 27
 SMILES IDX 16 28 20 29 17 30 19 31 18 32
 H PARENT 9 2 1 12 1 13 22 24

>  <TORSDO>  (1) 
F 7

$$$$
