/home/pchatterjee/Documents/git/vs_workflow/DiffDock/diffdock_run/pdbqt_scrubbed/5329572.pdbqt
     RDKit          3D

 28 31  0  0  1  0  0  0  0  0999 V2000
    7.0554   43.0985   48.7019 N   0  0  0  0  0  0  0  0  0  0  0  0
    5.8191   42.4252   48.5050 C   0  0  0  0  0  0  0  0  0  0  0  0
    3.4473   41.1238   48.0001 C   0  0  0  0  0  0  0  0  0  0  0  0
    3.8252   41.4245   49.3082 C   0  0  0  0  0  3  0  0  0  0  0  0
    4.2841   41.4909   46.9670 C   0  0  0  0  0  3  0  0  0  0  0  0
    5.0136   42.0769   49.5661 C   0  0  0  0  0  3  0  0  0  0  0  0
    5.4803   42.1444   47.1843 C   0  0  0  0  0  3  0  0  0  0  0  0
    2.1575   40.4199   47.7759 C   0  0  0  0  0  2  0  0  0  0  0  0
    1.9507   40.1598   46.3234 C   0  0  0  0  0  0  0  0  0  0  0  0
    0.7420   39.5187   45.8839 N   0  0  0  0  0  0  0  0  0  0  0  0
    2.8223   40.4983   45.5064 O   0  0  0  0  0  0  0  0  0  0  0  0
    7.6568   43.0485   50.0006 C   0  0  0  0  0  3  0  0  0  0  0  0
    6.8538   43.6659   51.0224 N   0  0  0  0  0  0  0  0  0  0  0  0
    8.9826   43.5808   50.0154 N   0  0  0  0  0  0  0  0  0  0  0  0
    6.9830   44.9116   51.3481 C   0  0  0  0  0  0  0  0  0  0  0  0
    9.2028   44.8216   50.2978 C   0  0  0  0  0  0  0  0  0  0  0  0
    8.0108   45.6886   50.6115 C   0  0  0  0  0  3  0  0  0  0  0  0
   10.3636   45.6485   50.3984 N   0  0  0  0  0  0  0  0  0  0  0  0
    8.6810   46.6481   51.5027 N   0  0  0  0  0  0  0  0  0  0  0  0
   10.0614   46.7136   51.1003 C   0  0  0  0  0  3  0  0  0  0  0  0
    6.1776   45.4247   52.3342 O   0  0  0  0  0  0  0  0  0  0  0  0
    5.1102   44.7033   52.9291 C   0  0  0  0  0  2  0  0  0  0  0  0
    3.8015   45.1768   52.3752 C   0  0  0  0  0  3  0  0  0  0  0  0
    2.7105   44.2626   52.8996 C   0  0  0  0  0  2  0  0  0  0  0  0
    3.6167   46.6095   52.8089 C   0  0  0  0  0  2  0  0  0  0  0  0
    1.7982   45.1107   53.7675 C   0  0  0  0  0  2  0  0  0  0  0  0
    2.2800   47.1532   52.3755 C   0  0  0  0  0  2  0  0  0  0  0  0
    1.2128   46.2111   52.8856 C   0  0  0  0  0  2  0  0  0  0  0  0
  1  2  1  0
  2  7  1  0
  2  6  2  0
  3  8  1  0
  4  3  2  0
  5  3  1  0
  6  4  1  0
  7  5  2  0
  8  9  1  0
  9 10  1  0
 11  9  2  0
 12 13  1  0
 12  1  1  0
 14 12  1  0
 15 21  1  0
 15 13  2  0
 16 14  2  0
 17 16  1  0
 17 15  1  0
 18 16  1  0
 19 17  1  0
 20 18  2  0
 20 19  1  0
 21 22  1  0
 22 23  1  0
 24 23  1  0
 25 23  1  0
 26 24  1  0
 27 25  1  0
 28 26  1  0
 28 27  1  0
M  RAD  8   4   2   5   2   6   2   7   2   8   3  12   2  17   2  20   2
M  RAD  7  22   3  23   2  24   3  25   3  26   3  27   3  28   3
M  END
>  <REMARK>  (1) 
 SMILES NC(=O)Cc1ccc(Nc2nc(OCC3CCCCC3)c3[nH]cnc3n2)cc1
 SMILES IDX 9 1 8 3 5 4 6 5 28 6 7 7 27 8 4 9 2 10 1 11 3 14 10 15 11 16
 SMILES IDX 26 17 12 18 25 19 21 20 24 21 22 22 23 23 13 25 14 26 15 27
 SMILES IDX 16 28 20 29 17 30 19 31 18 32
 H PARENT 9 2 1 12 1 13 22 24

>  <TORSDO>  (1) 
F 7

$$$$
