/home/pchatterjee/Documents/git/vs_workflow/DiffDock/diffdock_run/pdbqt_scrubbed/5329572.pdbqt
     RDKit          3D

 28 31  0  0  1  0  0  0  0  0999 V2000
    7.2677   42.8325   48.8043 N   0  0  0  0  0  0  0  0  0  0  0  0
    6.0218   42.1903   48.5684 C   0  0  0  0  0  0  0  0  0  0  0  0
    3.5707   40.9874   48.2238 C   0  0  0  0  0  0  0  0  0  0  0  0
    4.5495   40.8957   47.2349 C   0  0  0  0  0  3  0  0  0  0  0  0
    3.8550   41.6914   49.3752 C   0  0  0  0  0  3  0  0  0  0  0  0
    5.7800   41.4972   47.4034 C   0  0  0  0  0  3  0  0  0  0  0  0
    5.0734   42.3067   49.5807 C   0  0  0  0  0  3  0  0  0  0  0  0
    2.2618   40.3216   47.9935 C   0  0  0  0  0  2  0  0  0  0  0  0
    1.2580   41.3030   47.4938 C   0  0  0  0  0  0  0  0  0  0  0  0
    0.2245   41.7703   48.3761 N   0  0  0  0  0  0  0  0  0  0  0  0
    1.3226   41.7080   46.3218 O   0  0  0  0  0  0  0  0  0  0  0  0
    7.7834   42.8449   50.1403 C   0  0  0  0  0  3  0  0  0  0  0  0
    6.9200   43.5148   51.0760 N   0  0  0  0  0  0  0  0  0  0  0  0
    9.1090   43.3726   50.2150 N   0  0  0  0  0  0  0  0  0  0  0  0
    7.0361   44.7746   51.3479 C   0  0  0  0  0  0  0  0  0  0  0  0
    9.3187   44.6252   50.4498 C   0  0  0  0  0  0  0  0  0  0  0  0
    8.1146   45.5107   50.6423 C   0  0  0  0  0  3  0  0  0  0  0  0
   10.4760   45.4520   50.5849 N   0  0  0  0  0  0  0  0  0  0  0  0
    8.7320   46.5109   51.5270 N   0  0  0  0  0  0  0  0  0  0  0  0
   10.1360   46.5516   51.2125 C   0  0  0  0  0  3  0  0  0  0  0  0
    6.1720   45.3387   52.2531 O   0  0  0  0  0  0  0  0  0  0  0  0
    5.1222   44.6234   52.8855 C   0  0  0  0  0  2  0  0  0  0  0  0
    3.8249   44.8962   52.1882 C   0  0  0  0  0  3  0  0  0  0  0  0
    2.7450   44.0734   52.8651 C   0  0  0  0  0  2  0  0  0  0  0  0
    3.5655   46.3794   52.2760 C   0  0  0  0  0  2  0  0  0  0  0  0
    1.7606   45.0515   53.4807 C   0  0  0  0  0  2  0  0  0  0  0  0
    2.2317   46.7465   51.6788 C   0  0  0  0  0  2  0  0  0  0  0  0
    1.1774   45.8945   52.3491 C   0  0  0  0  0  2  0  0  0  0  0  0
  1  2  1  0
  2  7  1  0
  2  6  2  0
  3  8  1  0
  4  3  2  0
  5  3  1  0
  6  4  1  0
  7  5  2  0
  8  9  1  0
  9 10  1  0
 11  9  2  0
 12 13  1  0
 12  1  1  0
 14 12  1  0
 15 21  1  0
 15 13  2  0
 16 14  2  0
 17 16  1  0
 17 15  1  0
 18 16  1  0
 19 17  1  0
 20 18  2  0
 20 19  1  0
 21 22  1  0
 22 23  1  0
 24 23  1  0
 25 23  1  0
 26 24  1  0
 27 25  1  0
 28 26  1  0
 28 27  1  0
M  RAD  8   4   2   5   2   6   2   7   2   8   3  12   2  17   2  20   2
M  RAD  7  22   3  23   2  24   3  25   3  26   3  27   3  28   3
M  END
>  <REMARK>  (1) 
 SMILES NC(=O)Cc1ccc(Nc2nc(OCC3CCCCC3)c3[nH]cnc3n2)cc1
 SMILES IDX 9 1 8 3 5 4 6 5 28 6 7 7 27 8 4 9 2 10 1 11 3 14 10 15 11 16
 SMILES IDX 26 17 12 18 25 19 21 20 24 21 22 22 23 23 13 25 14 26 15 27
 SMILES IDX 16 28 20 29 17 30 19 31 18 32
 H PARENT 9 2 1 12 1 13 22 24

>  <TORSDO>  (1) 
F 7

$$$$
