/home/pchatterjee/Documents/git/vs_workflow/DiffDock/diffdock_run/pdbqt_scrubbed/Z57110399.pdbqt
     RDKit          3D

 27 30  0  0  1  0  0  0  0  0999 V2000
   11.9074   61.8662   86.6923 C   0  0  0  0  0  0  0  0  0  0  0  0
   12.3822   62.3480   87.8770 C   0  0  0  0  0  3  0  0  0  0  0  0
   13.3431   63.3371   87.8958 C   0  0  0  0  0  3  0  0  0  0  0  0
   13.8134   63.8283   86.6952 C   0  0  0  0  0  3  0  0  0  0  0  0
   13.3609   63.3695   85.4752 C   0  0  0  0  0  0  0  0  0  0  0  0
   12.3970   62.3771   85.5035 C   0  0  0  0  0  3  0  0  0  0  0  0
   10.8916   60.8211   86.5795 C   0  0  0  0  0  0  0  0  0  0  0  0
   10.7767   59.7876   87.5113 O   0  0  0  0  0  1  0  0  0  0  0  0
   10.1062   60.8881   85.5891 O   0  0  0  0  0  0  0  0  0  0  0  0
   13.8409   63.8709   84.2301 N   0  0  0  0  0  0  0  0  0  0  0  0
   12.9935   64.7640   83.4779 C   0  0  0  0  0  0  0  0  0  0  0  0
   11.8966   64.3106   82.9740 N   0  0  0  0  0  0  0  0  0  0  0  0
   13.4000   66.1373   83.3127 N   0  0  0  0  0  2  0  0  0  0  0  0
   10.9535   65.0779   82.2029 C   0  0  0  0  0  3  0  0  0  0  0  0
   12.5474   66.9980   82.5669 C   0  0  0  0  0  0  0  0  0  0  0  0
   11.3788   66.4963   82.0355 C   0  0  0  0  0  0  0  0  0  0  0  0
   12.8429   68.3296   82.3494 C   0  0  0  0  0  3  0  0  0  0  0  0
   10.5339   67.3107   81.3076 C   0  0  0  0  0  3  0  0  0  0  0  0
   12.0142   69.1635   81.6253 C   0  0  0  0  0  3  0  0  0  0  0  0
   10.8341   68.6584   81.0883 C   0  0  0  0  0  0  0  0  0  0  0  0
    9.7460   69.6720   80.1612 Cl  0  0  0  0  0  0  0  0  0  0  0  0
    9.6229   65.1547   82.9028 C   0  0  0  0  0  0  0  0  0  0  0  0
    8.4762   65.3415   82.1663 C   0  0  0  0  0  3  0  0  0  0  0  0
    9.5142   65.0428   84.2731 C   0  0  0  0  0  3  0  0  0  0  0  0
    7.2333   65.4171   82.7780 C   0  0  0  0  0  3  0  0  0  0  0  0
    8.2694   65.1191   84.8781 C   0  0  0  0  0  3  0  0  0  0  0  0
    7.1152   65.3068   84.1412 C   0  0  0  0  0  3  0  0  0  0  0  0
  1  2  2  0
  1  7  1  0
  3  2  1  0
  4  3  2  0
  5  4  1  0
  5  6  2  0
  6  1  1  0
  7  8  1  0
  9  7  2  0
 10  5  1  0
 11 12  2  0
 11 10  1  0
 13 11  1  0
 14 22  1  0
 14 12  1  0
 15 13  1  0
 16 15  2  0
 16 14  1  0
 17 15  1  0
 18 16  1  0
 19 17  2  0
 20 19  1  0
 20 18  2  0
 21 20  1  0
 22 24  2  0
 23 25  2  0
 23 22  1  0
 24 26  1  0
 25 27  1  0
 27 26  2  0
M  RAD  8   2   2   3   2   4   2   6   2   8   2  13   2  14   2  17   2
M  RAD  7  18   2  19   2  23   2  24   2  25   2  26   2  27   2
M  END
>  <REMARK>  (1) 
 SMILES O=C([O-])c1cccc(Nc2nc(-c3ccccc3)c3cc(Cl)ccc3n2)c1
 SMILES IDX 4 1 5 2 6 3 7 4 8 5 27 6 2 7 1 8 3 9 9 10 10 12 11 13 26 14
 SMILES IDX 12 15 25 16 19 17 24 18 20 19 23 20 21 21 22 22 13 23 14 24
 SMILES IDX 18 25 15 26 17 27 16 28
 H PARENT 9 11

>  <TORSDO>  (1) 
F 4

$$$$
