/home/pchatterjee/Documents/git/vs_workflow/DiffDock/diffdock_run/pdbqt_scrubbed/Z57110399.pdbqt
     RDKit          3D

 27 30  0  0  1  0  0  0  0  0999 V2000
    7.5474   62.1057   85.5522 C   0  0  0  0  0  0  0  0  0  0  0  0
    6.7864   62.3987   86.6459 C   0  0  0  0  0  3  0  0  0  0  0  0
    6.0941   63.5893   86.7185 C   0  0  0  0  0  3  0  0  0  0  0  0
    6.1864   64.4758   85.6652 C   0  0  0  0  0  3  0  0  0  0  0  0
    6.9441   64.2193   84.5411 C   0  0  0  0  0  0  0  0  0  0  0  0
    7.6218   63.0132   84.5108 C   0  0  0  0  0  3  0  0  0  0  0  0
    8.3124   60.8704   85.3919 C   0  0  0  0  0  0  0  0  0  0  0  0
    8.8040   60.1497   86.4820 O   0  0  0  0  0  1  0  0  0  0  0  0
    8.5167   60.4709   84.2083 O   0  0  0  0  0  0  0  0  0  0  0  0
    7.0454   65.1291   83.4484 N   0  0  0  0  0  0  0  0  0  0  0  0
    8.3329   65.7119   83.1582 C   0  0  0  0  0  0  0  0  0  0  0  0
    9.3048   65.5271   83.9852 N   0  0  0  0  0  0  0  0  0  0  0  0
    8.4930   66.4837   81.9510 N   0  0  0  0  0  2  0  0  0  0  0  0
   10.6399   66.0434   83.8316 C   0  0  0  0  0  3  0  0  0  0  0  0
    9.7721   67.0480   81.6874 C   0  0  0  0  0  0  0  0  0  0  0  0
   10.7994   66.8402   82.5824 C   0  0  0  0  0  0  0  0  0  0  0  0
   10.0324   67.8035   80.5608 C   0  0  0  0  0  3  0  0  0  0  0  0
   12.0503   67.3769   82.3499 C   0  0  0  0  0  3  0  0  0  0  0  0
   11.2745   68.3504   80.3065 C   0  0  0  0  0  3  0  0  0  0  0  0
   12.3126   68.1416   81.2092 C   0  0  0  0  0  0  0  0  0  0  0  0
   13.9083   68.8122   80.9361 Cl  0  0  0  0  0  0  0  0  0  0  0  0
   11.6381   64.9239   83.7046 C   0  0  0  0  0  0  0  0  0  0  0  0
   12.1567   64.6111   82.4695 C   0  0  0  0  0  3  0  0  0  0  0  0
   12.0547   64.1932   84.7976 C   0  0  0  0  0  3  0  0  0  0  0  0
   13.0784   63.5857   82.3155 C   0  0  0  0  0  3  0  0  0  0  0  0
   12.9759   63.1700   84.6370 C   0  0  0  0  0  3  0  0  0  0  0  0
   13.4990   62.8530   83.3975 C   0  0  0  0  0  3  0  0  0  0  0  0
  1  2  2  0
  1  7  1  0
  3  2  1  0
  4  3  2  0
  5  4  1  0
  5  6  2  0
  6  1  1  0
  7  8  1  0
  9  7  2  0
 10  5  1  0
 11 12  2  0
 11 10  1  0
 13 11  1  0
 14 22  1  0
 14 12  1  0
 15 13  1  0
 16 15  2  0
 16 14  1  0
 17 15  1  0
 18 16  1  0
 19 17  2  0
 20 19  1  0
 20 18  2  0
 21 20  1  0
 22 24  2  0
 23 25  2  0
 23 22  1  0
 24 26  1  0
 25 27  1  0
 27 26  2  0
M  RAD  8   2   2   3   2   4   2   6   2   8   2  13   2  14   2  17   2
M  RAD  7  18   2  19   2  23   2  24   2  25   2  26   2  27   2
M  END
>  <REMARK>  (1) 
 SMILES O=C([O-])c1cccc(Nc2nc(-c3ccccc3)c3cc(Cl)ccc3n2)c1
 SMILES IDX 4 1 5 2 6 3 7 4 8 5 27 6 2 7 1 8 3 9 9 10 10 12 11 13 26 14
 SMILES IDX 12 15 25 16 19 17 24 18 20 19 23 20 21 21 22 22 13 23 14 24
 SMILES IDX 18 25 15 26 17 27 16 28
 H PARENT 9 11

>  <TORSDO>  (1) 
F 4

$$$$
