/home/pchatterjee/Documents/git/vs_workflow/DiffDock/diffdock_run/pdbqt_scrubbed/Z57110399.pdbqt
     RDKit          3D

 27 30  0  0  1  0  0  0  0  0999 V2000
    6.5461   64.7526   84.2292 C   0  0  0  0  0  0  0  0  0  0  0  0
    5.7484   65.3996   85.1270 C   0  0  0  0  0  3  0  0  0  0  0  0
    5.6141   66.7715   85.0828 C   0  0  0  0  0  3  0  0  0  0  0  0
    6.3012   67.4747   84.1146 C   0  0  0  0  0  3  0  0  0  0  0  0
    7.1181   66.8603   83.1879 C   0  0  0  0  0  0  0  0  0  0  0  0
    7.2234   65.4829   83.2691 C   0  0  0  0  0  3  0  0  0  0  0  0
    6.7460   63.3048   84.2032 C   0  0  0  0  0  0  0  0  0  0  0  0
    7.1316   62.6248   83.0463 O   0  0  0  0  0  1  0  0  0  0  0  0
    6.5534   62.6788   85.2864 O   0  0  0  0  0  0  0  0  0  0  0  0
    7.8316   67.5785   82.1843 N   0  0  0  0  0  0  0  0  0  0  0  0
    9.2729   67.5954   82.2470 C   0  0  0  0  0  0  0  0  0  0  0  0
    9.8625   67.0474   83.2544 N   0  0  0  0  0  0  0  0  0  0  0  0
   10.0100   68.2252   81.1800 N   0  0  0  0  0  2  0  0  0  0  0  0
   11.2869   66.9859   83.4546 C   0  0  0  0  0  3  0  0  0  0  0  0
   11.4302   68.2288   81.2649 C   0  0  0  0  0  0  0  0  0  0  0  0
   12.0435   67.6384   82.3488 C   0  0  0  0  0  0  0  0  0  0  0  0
   12.2304   68.8046   80.2975 C   0  0  0  0  0  3  0  0  0  0  0  0
   13.4203   67.6283   82.4550 C   0  0  0  0  0  3  0  0  0  0  0  0
   13.6085   68.8071   80.3814 C   0  0  0  0  0  3  0  0  0  0  0  0
   14.2291   68.2115   81.4751 C   0  0  0  0  0  0  0  0  0  0  0  0
   15.9742   68.1861   81.6323 Cl  0  0  0  0  0  0  0  0  0  0  0  0
   11.7679   65.5596   83.4613 C   0  0  0  0  0  0  0  0  0  0  0  0
   10.9063   64.5524   83.8294 C   0  0  0  0  0  3  0  0  0  0  0  0
   13.0581   65.2253   83.1068 C   0  0  0  0  0  3  0  0  0  0  0  0
   11.3155   63.2269   83.8471 C   0  0  0  0  0  3  0  0  0  0  0  0
   13.4607   63.8990   83.1266 C   0  0  0  0  0  3  0  0  0  0  0  0
   12.5977   62.8845   83.4958 C   0  0  0  0  0  3  0  0  0  0  0  0
  1  2  2  0
  1  7  1  0
  3  2  1  0
  4  3  2  0
  5  4  1  0
  5  6  2  0
  6  1  1  0
  7  8  1  0
  9  7  2  0
 10  5  1  0
 11 12  2  0
 11 10  1  0
 13 11  1  0
 14 22  1  0
 14 12  1  0
 15 13  1  0
 16 15  2  0
 16 14  1  0
 17 15  1  0
 18 16  1  0
 19 17  2  0
 20 19  1  0
 20 18  2  0
 21 20  1  0
 22 24  2  0
 23 25  2  0
 23 22  1  0
 24 26  1  0
 25 27  1  0
 27 26  2  0
M  RAD  8   2   2   3   2   4   2   6   2   8   2  13   2  14   2  17   2
M  RAD  7  18   2  19   2  23   2  24   2  25   2  26   2  27   2
M  END
>  <REMARK>  (1) 
 SMILES O=C([O-])c1cccc(Nc2nc(-c3ccccc3)c3cc(Cl)ccc3n2)c1
 SMILES IDX 4 1 5 2 6 3 7 4 8 5 27 6 2 7 1 8 3 9 9 10 10 12 11 13 26 14
 SMILES IDX 12 15 25 16 19 17 24 18 20 19 23 20 21 21 22 22 13 23 14 24
 SMILES IDX 18 25 15 26 17 27 16 28
 H PARENT 9 11

>  <TORSDO>  (1) 
F 4

$$$$
