/home/pchatterjee/Documents/git/vs_workflow/DiffDock/diffdock_run/pdbqt_scrubbed/Z57110399.pdbqt
     RDKit          3D

 27 30  0  0  1  0  0  0  0  0999 V2000
    6.6800   63.3213   84.6307 C   0  0  0  0  0  0  0  0  0  0  0  0
    5.9210   63.7184   85.6925 C   0  0  0  0  0  3  0  0  0  0  0  0
    5.5275   65.0341   85.8186 C   0  0  0  0  0  3  0  0  0  0  0  0
    5.9158   65.9385   84.8515 C   0  0  0  0  0  3  0  0  0  0  0  0
    6.6828   65.5795   83.7623 C   0  0  0  0  0  0  0  0  0  0  0  0
    7.0550   64.2495   83.6760 C   0  0  0  0  0  3  0  0  0  0  0  0
    7.1407   61.9503   84.4184 C   0  0  0  0  0  0  0  0  0  0  0  0
    7.8684   61.5737   83.2879 O   0  0  0  0  0  1  0  0  0  0  0  0
    6.8511   61.1021   85.3123 O   0  0  0  0  0  0  0  0  0  0  0  0
    7.0887   66.5067   82.7586 N   0  0  0  0  0  0  0  0  0  0  0  0
    8.4949   66.7993   82.6234 C   0  0  0  0  0  0  0  0  0  0  0  0
    9.3117   66.3805   83.5291 N   0  0  0  0  0  0  0  0  0  0  0  0
    8.9439   67.5518   81.4785 N   0  0  0  0  0  2  0  0  0  0  0  0
   10.7355   66.5939   83.5309 C   0  0  0  0  0  3  0  0  0  0  0  0
   10.3352   67.8274   81.3680 C   0  0  0  0  0  0  0  0  0  0  0  0
   11.1937   67.3720   82.3454 C   0  0  0  0  0  0  0  0  0  0  0  0
   10.8695   68.5395   80.3120 C   0  0  0  0  0  3  0  0  0  0  0  0
   12.5485   67.6261   82.2617 C   0  0  0  0  0  3  0  0  0  0  0  0
   12.2201   68.8061   80.2063 C   0  0  0  0  0  3  0  0  0  0  0  0
   13.0880   68.3470   81.1923 C   0  0  0  0  0  0  0  0  0  0  0  0
   14.8107   68.6568   81.1082 Cl  0  0  0  0  0  0  0  0  0  0  0  0
   11.4753   65.2859   83.4426 C   0  0  0  0  0  0  0  0  0  0  0  0
   11.2231   64.2975   84.3655 C   0  0  0  0  0  3  0  0  0  0  0  0
   12.4080   65.0428   82.4561 C   0  0  0  0  0  3  0  0  0  0  0  0
   11.8862   63.0800   84.3144 C   0  0  0  0  0  3  0  0  0  0  0  0
   13.0670   63.8242   82.4106 C   0  0  0  0  0  3  0  0  0  0  0  0
   12.8161   62.8289   83.3362 C   0  0  0  0  0  3  0  0  0  0  0  0
  1  2  2  0
  1  7  1  0
  3  2  1  0
  4  3  2  0
  5  4  1  0
  5  6  2  0
  6  1  1  0
  7  8  1  0
  9  7  2  0
 10  5  1  0
 11 12  2  0
 11 10  1  0
 13 11  1  0
 14 22  1  0
 14 12  1  0
 15 13  1  0
 16 15  2  0
 16 14  1  0
 17 15  1  0
 18 16  1  0
 19 17  2  0
 20 19  1  0
 20 18  2  0
 21 20  1  0
 22 24  2  0
 23 25  2  0
 23 22  1  0
 24 26  1  0
 25 27  1  0
 27 26  2  0
M  RAD  8   2   2   3   2   4   2   6   2   8   2  13   2  14   2  17   2
M  RAD  7  18   2  19   2  23   2  24   2  25   2  26   2  27   2
M  END
>  <REMARK>  (1) 
 SMILES O=C([O-])c1cccc(Nc2nc(-c3ccccc3)c3cc(Cl)ccc3n2)c1
 SMILES IDX 4 1 5 2 6 3 7 4 8 5 27 6 2 7 1 8 3 9 9 10 10 12 11 13 26 14
 SMILES IDX 12 15 25 16 19 17 24 18 20 19 23 20 21 21 22 22 13 23 14 24
 SMILES IDX 18 25 15 26 17 27 16 28
 H PARENT 9 11

>  <TORSDO>  (1) 
F 4

$$$$
