/home/pchatterjee/Documents/git/vs_workflow/DiffDock/diffdock_run/pdbqt_scrubbed/Z57110399.pdbqt
     RDKit          3D

 27 30  0  0  1  0  0  0  0  0999 V2000
    3.5670   41.4894   49.5053 C   0  0  0  0  0  0  0  0  0  0  0  0
    3.1694   40.7819   48.4087 C   0  0  0  0  0  3  0  0  0  0  0  0
    4.0327   40.5863   47.3510 C   0  0  0  0  0  3  0  0  0  0  0  0
    5.3033   41.1192   47.4242 C   0  0  0  0  0  3  0  0  0  0  0  0
    5.7458   41.8406   48.5138 C   0  0  0  0  0  0  0  0  0  0  0  0
    4.8469   42.0124   49.5517 C   0  0  0  0  0  3  0  0  0  0  0  0
    2.7196   41.7445   50.6687 C   0  0  0  0  0  0  0  0  0  0  0  0
    1.3541   41.4532   50.6764 O   0  0  0  0  0  1  0  0  0  0  0  0
    3.2783   42.2480   51.6869 O   0  0  0  0  0  0  0  0  0  0  0  0
    7.0565   42.3948   48.5982 N   0  0  0  0  0  0  0  0  0  0  0  0
    7.2593   43.5520   49.4355 C   0  0  0  0  0  0  0  0  0  0  0  0
    6.2952   44.3958   49.5820 N   0  0  0  0  0  0  0  0  0  0  0  0
    8.5350   43.7293   50.0833 N   0  0  0  0  0  2  0  0  0  0  0  0
    6.3482   45.5917   50.3819 C   0  0  0  0  0  3  0  0  0  0  0  0
    8.7101   44.8783   50.9037 C   0  0  0  0  0  0  0  0  0  0  0  0
    7.6690   45.7697   51.0489 C   0  0  0  0  0  0  0  0  0  0  0  0
    9.8915   45.1428   51.5687 C   0  0  0  0  0  3  0  0  0  0  0  0
    7.8131   46.8927   51.8394 C   0  0  0  0  0  3  0  0  0  0  0  0
   10.0597   46.2585   52.3646 C   0  0  0  0  0  3  0  0  0  0  0  0
    9.0094   47.1592   52.5121 C   0  0  0  0  0  0  0  0  0  0  0  0
    9.1683   48.5911   53.5097 Cl  0  0  0  0  0  0  0  0  0  0  0  0
    5.3526   45.5290   51.5092 C   0  0  0  0  0  0  0  0  0  0  0  0
    4.0674   45.9763   51.3080 C   0  0  0  0  0  3  0  0  0  0  0  0
    5.6899   45.0327   52.7509 C   0  0  0  0  0  3  0  0  0  0  0  0
    3.1239   45.9335   52.3242 C   0  0  0  0  0  3  0  0  0  0  0  0
    4.7426   44.9927   53.7621 C   0  0  0  0  0  3  0  0  0  0  0  0
    3.4504   45.4411   53.5634 C   0  0  0  0  0  3  0  0  0  0  0  0
  1  2  2  0
  1  7  1  0
  3  2  1  0
  4  3  2  0
  5  4  1  0
  5  6  2  0
  6  1  1  0
  7  8  1  0
  9  7  2  0
 10  5  1  0
 11 12  2  0
 11 10  1  0
 13 11  1  0
 14 22  1  0
 14 12  1  0
 15 13  1  0
 16 15  2  0
 16 14  1  0
 17 15  1  0
 18 16  1  0
 19 17  2  0
 20 19  1  0
 20 18  2  0
 21 20  1  0
 22 24  2  0
 23 25  2  0
 23 22  1  0
 24 26  1  0
 25 27  1  0
 27 26  2  0
M  RAD  8   2   2   3   2   4   2   6   2   8   2  13   2  14   2  17   2
M  RAD  7  18   2  19   2  23   2  24   2  25   2  26   2  27   2
M  END
>  <REMARK>  (1) 
 SMILES O=C([O-])c1cccc(Nc2nc(-c3ccccc3)c3cc(Cl)ccc3n2)c1
 SMILES IDX 4 1 5 2 6 3 7 4 8 5 27 6 2 7 1 8 3 9 9 10 10 12 11 13 26 14
 SMILES IDX 12 15 25 16 19 17 24 18 20 19 23 20 21 21 22 22 13 23 14 24
 SMILES IDX 18 25 15 26 17 27 16 28
 H PARENT 9 11

>  <TORSDO>  (1) 
F 4

$$$$
