/home/pchatterjee/Documents/git/vs_workflow/DiffDock/diffdock_run/pdbqt_scrubbed/Z57110399.pdbqt
     RDKit          3D

 27 30  0  0  1  0  0  0  0  0999 V2000
    6.5260   65.7757   84.6369 C   0  0  0  0  0  0  0  0  0  0  0  0
    5.1782   65.8723   84.4495 C   0  0  0  0  0  3  0  0  0  0  0  0
    4.6622   66.7435   83.5131 C   0  0  0  0  0  3  0  0  0  0  0  0
    5.5344   67.5134   82.7714 C   0  0  0  0  0  3  0  0  0  0  0  0
    6.9035   67.4472   82.9288 C   0  0  0  0  0  0  0  0  0  0  0  0
    7.3773   66.5599   83.8791 C   0  0  0  0  0  3  0  0  0  0  0  0
    7.1580   64.8812   85.6050 C   0  0  0  0  0  0  0  0  0  0  0  0
    8.4341   64.3497   85.4085 O   0  0  0  0  0  1  0  0  0  0  0  0
    6.4949   64.6010   86.6461 O   0  0  0  0  0  0  0  0  0  0  0  0
    7.8121   68.2386   82.1672 N   0  0  0  0  0  0  0  0  0  0  0  0
    9.2257   67.9871   82.3085 C   0  0  0  0  0  0  0  0  0  0  0  0
    9.6333   67.2211   83.2623 N   0  0  0  0  0  0  0  0  0  0  0  0
   10.1398   68.6008   81.3777 N   0  0  0  0  0  2  0  0  0  0  0  0
   11.0063   66.8791   83.5282 C   0  0  0  0  0  3  0  0  0  0  0  0
   11.5287   68.3373   81.5381 C   0  0  0  0  0  0  0  0  0  0  0  0
   11.9464   67.5162   82.5631 C   0  0  0  0  0  0  0  0  0  0  0  0
   12.4878   68.8746   80.7019 C   0  0  0  0  0  3  0  0  0  0  0  0
   13.2887   67.2445   82.7405 C   0  0  0  0  0  3  0  0  0  0  0  0
   13.8353   68.6178   80.8590 C   0  0  0  0  0  3  0  0  0  0  0  0
   14.2585   67.7890   81.8934 C   0  0  0  0  0  0  0  0  0  0  0  0
   15.9559   67.4295   82.1387 Cl  0  0  0  0  0  0  0  0  0  0  0  0
   11.2328   65.3997   83.3672 C   0  0  0  0  0  0  0  0  0  0  0  0
   12.4875   64.9337   83.0495 C   0  0  0  0  0  3  0  0  0  0  0  0
   10.2129   64.4856   83.5294 C   0  0  0  0  0  3  0  0  0  0  0  0
   12.7324   63.5771   82.8934 C   0  0  0  0  0  3  0  0  0  0  0  0
   10.4642   63.1315   83.3721 C   0  0  0  0  0  3  0  0  0  0  0  0
   11.7235   62.6599   83.0529 C   0  0  0  0  0  3  0  0  0  0  0  0
  1  2  2  0
  1  7  1  0
  3  2  1  0
  4  3  2  0
  5  4  1  0
  5  6  2  0
  6  1  1  0
  7  8  1  0
  9  7  2  0
 10  5  1  0
 11 12  2  0
 11 10  1  0
 13 11  1  0
 14 22  1  0
 14 12  1  0
 15 13  1  0
 16 15  2  0
 16 14  1  0
 17 15  1  0
 18 16  1  0
 19 17  2  0
 20 19  1  0
 20 18  2  0
 21 20  1  0
 22 24  2  0
 23 25  2  0
 23 22  1  0
 24 26  1  0
 25 27  1  0
 27 26  2  0
M  RAD  8   2   2   3   2   4   2   6   2   8   2  13   2  14   2  17   2
M  RAD  7  18   2  19   2  23   2  24   2  25   2  26   2  27   2
M  END
>  <REMARK>  (1) 
 SMILES O=C([O-])c1cccc(Nc2nc(-c3ccccc3)c3cc(Cl)ccc3n2)c1
 SMILES IDX 4 1 5 2 6 3 7 4 8 5 27 6 2 7 1 8 3 9 9 10 10 12 11 13 26 14
 SMILES IDX 12 15 25 16 19 17 24 18 20 19 23 20 21 21 22 22 13 23 14 24
 SMILES IDX 18 25 15 26 17 27 16 28
 H PARENT 9 11

>  <TORSDO>  (1) 
F 4

$$$$
