/home/pchatterjee/Documents/git/vs_workflow/DiffDock/diffdock_run/pdbqt_scrubbed/Z57110399.pdbqt
     RDKit          3D

 27 30  0  0  1  0  0  0  0  0999 V2000
    6.1020   62.9109   84.5684 C   0  0  0  0  0  0  0  0  0  0  0  0
    6.0173   63.3535   85.8561 C   0  0  0  0  0  3  0  0  0  0  0  0
    6.2156   64.6856   86.1530 C   0  0  0  0  0  3  0  0  0  0  0  0
    6.5006   65.5595   85.1240 C   0  0  0  0  0  3  0  0  0  0  0  0
    6.5954   65.1543   83.8085 C   0  0  0  0  0  0  0  0  0  0  0  0
    6.3892   63.8094   83.5565 C   0  0  0  0  0  3  0  0  0  0  0  0
    5.9068   61.5197   84.1644 C   0  0  0  0  0  0  0  0  0  0  0  0
    5.9878   61.1108   82.8318 O   0  0  0  0  0  1  0  0  0  0  0  0
    5.6573   60.6846   85.0823 O   0  0  0  0  0  0  0  0  0  0  0  0
    6.8894   66.0499   82.7391 N   0  0  0  0  0  0  0  0  0  0  0  0
    8.2567   66.4712   82.5536 C   0  0  0  0  0  0  0  0  0  0  0  0
    9.1231   66.2084   83.4717 N   0  0  0  0  0  0  0  0  0  0  0  0
    8.6122   67.1740   81.3460 N   0  0  0  0  0  2  0  0  0  0  0  0
   10.5177   66.5635   83.4283 C   0  0  0  0  0  3  0  0  0  0  0  0
    9.9667   67.5789   81.1866 C   0  0  0  0  0  0  0  0  0  0  0  0
   10.8793   67.2895   82.1780 C   0  0  0  0  0  0  0  0  0  0  0  0
   10.4123   68.2572   80.0689 C   0  0  0  0  0  3  0  0  0  0  0  0
   12.1999   67.6715   82.0478 C   0  0  0  0  0  3  0  0  0  0  0  0
   11.7272   68.6494   79.9159 C   0  0  0  0  0  3  0  0  0  0  0  0
   12.6497   68.3580   80.9160 C   0  0  0  0  0  0  0  0  0  0  0  0
   14.3306   68.8321   80.7737 Cl  0  0  0  0  0  0  0  0  0  0  0  0
   11.3859   65.3338   83.4245 C   0  0  0  0  0  0  0  0  0  0  0  0
   10.8419   64.1175   83.0822 C   0  0  0  0  0  3  0  0  0  0  0  0
   12.7234   65.3865   83.7565 C   0  0  0  0  0  3  0  0  0  0  0  0
   11.6123   62.9638   83.0680 C   0  0  0  0  0  3  0  0  0  0  0  0
   13.4877   64.2302   83.7403 C   0  0  0  0  0  3  0  0  0  0  0  0
   12.9444   63.0066   83.3969 C   0  0  0  0  0  3  0  0  0  0  0  0
  1  2  2  0
  1  7  1  0
  3  2  1  0
  4  3  2  0
  5  4  1  0
  5  6  2  0
  6  1  1  0
  7  8  1  0
  9  7  2  0
 10  5  1  0
 11 12  2  0
 11 10  1  0
 13 11  1  0
 14 22  1  0
 14 12  1  0
 15 13  1  0
 16 15  2  0
 16 14  1  0
 17 15  1  0
 18 16  1  0
 19 17  2  0
 20 19  1  0
 20 18  2  0
 21 20  1  0
 22 24  2  0
 23 25  2  0
 23 22  1  0
 24 26  1  0
 25 27  1  0
 27 26  2  0
M  RAD  8   2   2   3   2   4   2   6   2   8   2  13   2  14   2  17   2
M  RAD  7  18   2  19   2  23   2  24   2  25   2  26   2  27   2
M  END
>  <REMARK>  (1) 
 SMILES O=C([O-])c1cccc(Nc2nc(-c3ccccc3)c3cc(Cl)ccc3n2)c1
 SMILES IDX 4 1 5 2 6 3 7 4 8 5 27 6 2 7 1 8 3 9 9 10 10 12 11 13 26 14
 SMILES IDX 12 15 25 16 19 17 24 18 20 19 23 20 21 21 22 22 13 23 14 24
 SMILES IDX 18 25 15 26 17 27 16 28
 H PARENT 9 11

>  <TORSDO>  (1) 
F 4

$$$$
