/home/pchatterjee/Documents/git/vs_workflow/DiffDock/diffdock_run/pdbqt_scrubbed/Z57110399.pdbqt
     RDKit          3D

 27 30  0  0  1  0  0  0  0  0999 V2000
    6.6132   63.3290   84.8258 C   0  0  0  0  0  0  0  0  0  0  0  0
    6.0010   63.7937   85.9530 C   0  0  0  0  0  3  0  0  0  0  0  0
    5.7296   65.1380   86.0986 C   0  0  0  0  0  3  0  0  0  0  0  0
    6.0888   66.0013   85.0839 C   0  0  0  0  0  3  0  0  0  0  0  0
    6.7092   65.5737   83.9281 C   0  0  0  0  0  0  0  0  0  0  0  0
    6.9623   64.2172   83.8244 C   0  0  0  0  0  3  0  0  0  0  0  0
    6.9380   61.9237   84.5884 C   0  0  0  0  0  0  0  0  0  0  0  0
    7.3771   61.4580   83.3475 O   0  0  0  0  0  1  0  0  0  0  0  0
    6.8044   61.1302   85.5656 O   0  0  0  0  0  0  0  0  0  0  0  0
    7.0838   66.4581   82.8748 N   0  0  0  0  0  0  0  0  0  0  0  0
    8.4851   66.7453   82.6861 C   0  0  0  0  0  0  0  0  0  0  0  0
    9.3262   66.3843   83.5944 N   0  0  0  0  0  0  0  0  0  0  0  0
    8.9018   67.4279   81.4866 N   0  0  0  0  0  2  0  0  0  0  0  0
   10.7488   66.6008   83.5467 C   0  0  0  0  0  3  0  0  0  0  0  0
   10.2887   67.6996   81.3239 C   0  0  0  0  0  0  0  0  0  0  0  0
   11.1736   67.3066   82.3048 C   0  0  0  0  0  0  0  0  0  0  0  0
   10.7932   68.3475   80.2133 C   0  0  0  0  0  3  0  0  0  0  0  0
   12.5248   67.5583   82.1712 C   0  0  0  0  0  3  0  0  0  0  0  0
   12.1396   68.6105   80.0570 C   0  0  0  0  0  3  0  0  0  0  0  0
   13.0341   68.2143   81.0465 C   0  0  0  0  0  0  0  0  0  0  0  0
   14.7529   68.5224   80.8996 Cl  0  0  0  0  0  0  0  0  0  0  0  0
   11.4913   65.2916   83.5190 C   0  0  0  0  0  0  0  0  0  0  0  0
   12.5994   65.1543   82.7155 C   0  0  0  0  0  3  0  0  0  0  0  0
   11.0930   64.2132   84.2809 C   0  0  0  0  0  3  0  0  0  0  0  0
   13.3077   63.9625   82.6652 C   0  0  0  0  0  3  0  0  0  0  0  0
   11.8051   63.0251   84.2260 C   0  0  0  0  0  3  0  0  0  0  0  0
   12.9189   62.8837   83.4199 C   0  0  0  0  0  3  0  0  0  0  0  0
  1  2  2  0
  1  7  1  0
  3  2  1  0
  4  3  2  0
  5  4  1  0
  5  6  2  0
  6  1  1  0
  7  8  1  0
  9  7  2  0
 10  5  1  0
 11 12  2  0
 11 10  1  0
 13 11  1  0
 14 22  1  0
 14 12  1  0
 15 13  1  0
 16 15  2  0
 16 14  1  0
 17 15  1  0
 18 16  1  0
 19 17  2  0
 20 19  1  0
 20 18  2  0
 21 20  1  0
 22 24  2  0
 23 25  2  0
 23 22  1  0
 24 26  1  0
 25 27  1  0
 27 26  2  0
M  RAD  8   2   2   3   2   4   2   6   2   8   2  13   2  14   2  17   2
M  RAD  7  18   2  19   2  23   2  24   2  25   2  26   2  27   2
M  END
>  <REMARK>  (1) 
 SMILES O=C([O-])c1cccc(Nc2nc(-c3ccccc3)c3cc(Cl)ccc3n2)c1
 SMILES IDX 4 1 5 2 6 3 7 4 8 5 27 6 2 7 1 8 3 9 9 10 10 12 11 13 26 14
 SMILES IDX 12 15 25 16 19 17 24 18 20 19 23 20 21 21 22 22 13 23 14 24
 SMILES IDX 18 25 15 26 17 27 16 28
 H PARENT 9 11

>  <TORSDO>  (1) 
F 4

$$$$
