/home/pchatterjee/Documents/git/vs_workflow/DiffDock/diffdock_run/pdbqt_scrubbed/Z57110399.pdbqt
     RDKit          3D

 27 30  0  0  1  0  0  0  0  0999 V2000
    5.8837   62.2749   84.1160 C   0  0  0  0  0  0  0  0  0  0  0  0
    6.1821   62.3519   85.4450 C   0  0  0  0  0  3  0  0  0  0  0  0
    6.6940   63.5147   85.9814 C   0  0  0  0  0  3  0  0  0  0  0  0
    6.8978   64.5960   85.1488 C   0  0  0  0  0  3  0  0  0  0  0  0
    6.6099   64.5611   83.8000 C   0  0  0  0  0  0  0  0  0  0  0  0
    6.0982   63.3746   83.3046 C   0  0  0  0  0  3  0  0  0  0  0  0
    5.3389   61.0850   83.4648 C   0  0  0  0  0  0  0  0  0  0  0  0
    5.0872   61.0339   82.0924 O   0  0  0  0  0  1  0  0  0  0  0  0
    5.0994   60.0850   84.2031 O   0  0  0  0  0  0  0  0  0  0  0  0
    6.8171   65.6730   82.9324 N   0  0  0  0  0  0  0  0  0  0  0  0
    8.1614   66.1678   82.7607 C   0  0  0  0  0  0  0  0  0  0  0  0
    9.0534   65.8778   83.6456 N   0  0  0  0  0  0  0  0  0  0  0  0
    8.4662   66.9720   81.6036 N   0  0  0  0  0  2  0  0  0  0  0  0
   10.4301   66.2974   83.6105 C   0  0  0  0  0  3  0  0  0  0  0  0
    9.7988   67.4479   81.4569 C   0  0  0  0  0  0  0  0  0  0  0  0
   10.7392   67.1282   82.4125 C   0  0  0  0  0  0  0  0  0  0  0  0
   10.1961   68.2252   80.3866 C   0  0  0  0  0  3  0  0  0  0  0  0
   12.0396   67.5775   82.2936 C   0  0  0  0  0  3  0  0  0  0  0  0
   11.4900   68.6862   80.2458 C   0  0  0  0  0  3  0  0  0  0  0  0
   12.4404   68.3643   81.2097 C   0  0  0  0  0  0  0  0  0  0  0  0
   14.0965   68.9225   81.0809 Cl  0  0  0  0  0  0  0  0  0  0  0  0
   11.3512   65.1114   83.5049 C   0  0  0  0  0  0  0  0  0  0  0  0
   11.0955   63.9826   84.2483 C   0  0  0  0  0  3  0  0  0  0  0  0
   12.4552   65.1191   82.6784 C   0  0  0  0  0  3  0  0  0  0  0  0
   11.9229   62.8714   84.1760 C   0  0  0  0  0  3  0  0  0  0  0  0
   13.2780   64.0055   82.6106 C   0  0  0  0  0  3  0  0  0  0  0  0
   13.0240   62.8697   83.3561 C   0  0  0  0  0  3  0  0  0  0  0  0
  1  2  2  0
  1  7  1  0
  3  2  1  0
  4  3  2  0
  5  4  1  0
  5  6  2  0
  6  1  1  0
  7  8  1  0
  9  7  2  0
 10  5  1  0
 11 12  2  0
 11 10  1  0
 13 11  1  0
 14 22  1  0
 14 12  1  0
 15 13  1  0
 16 15  2  0
 16 14  1  0
 17 15  1  0
 18 16  1  0
 19 17  2  0
 20 19  1  0
 20 18  2  0
 21 20  1  0
 22 24  2  0
 23 25  2  0
 23 22  1  0
 24 26  1  0
 25 27  1  0
 27 26  2  0
M  RAD  8   2   2   3   2   4   2   6   2   8   2  13   2  14   2  17   2
M  RAD  7  18   2  19   2  23   2  24   2  25   2  26   2  27   2
M  END
>  <REMARK>  (1) 
 SMILES O=C([O-])c1cccc(Nc2nc(-c3ccccc3)c3cc(Cl)ccc3n2)c1
 SMILES IDX 4 1 5 2 6 3 7 4 8 5 27 6 2 7 1 8 3 9 9 10 10 12 11 13 26 14
 SMILES IDX 12 15 25 16 19 17 24 18 20 19 23 20 21 21 22 22 13 23 14 24
 SMILES IDX 18 25 15 26 17 27 16 28
 H PARENT 9 11

>  <TORSDO>  (1) 
F 4

$$$$
