/home/pchatterjee/Documents/git/vs_workflow/DiffDock/diffdock_run/pdbqt_scrubbed/Z57110399.pdbqt
     RDKit          3D

 27 30  0  0  1  0  0  0  0  0999 V2000
    8.6060   59.9318   83.3408 C   0  0  0  0  0  0  0  0  0  0  0  0
    7.6576   59.7030   82.3872 C   0  0  0  0  0  3  0  0  0  0  0  0
    8.0054   59.6439   81.0540 C   0  0  0  0  0  3  0  0  0  0  0  0
    9.3286   59.8205   80.7049 C   0  0  0  0  0  3  0  0  0  0  0  0
   10.3190   60.0540   81.6367 C   0  0  0  0  0  0  0  0  0  0  0  0
    9.9252   60.1053   82.9622 C   0  0  0  0  0  3  0  0  0  0  0  0
    8.3269   60.0101   84.7736 C   0  0  0  0  0  0  0  0  0  0  0  0
    9.3385   60.1589   85.7244 O   0  0  0  0  0  1  0  0  0  0  0  0
    7.1137   59.9369   85.1273 O   0  0  0  0  0  0  0  0  0  0  0  0
   11.6883   60.2376   81.2854 N   0  0  0  0  0  0  0  0  0  0  0  0
   12.6908   60.0314   82.3022 C   0  0  0  0  0  0  0  0  0  0  0  0
   12.3289   59.9890   83.5391 N   0  0  0  0  0  0  0  0  0  0  0  0
   14.0678   59.8791   81.9033 N   0  0  0  0  0  2  0  0  0  0  0  0
   13.2110   59.7912   84.6597 C   0  0  0  0  0  3  0  0  0  0  0  0
   15.0375   59.6769   82.9245 C   0  0  0  0  0  0  0  0  0  0  0  0
   14.6327   59.6343   84.2413 C   0  0  0  0  0  0  0  0  0  0  0  0
   16.3822   59.5197   82.6510 C   0  0  0  0  0  3  0  0  0  0  0  0
   15.5539   59.4394   85.2514 C   0  0  0  0  0  3  0  0  0  0  0  0
   17.3219   59.3236   83.6435 C   0  0  0  0  0  3  0  0  0  0  0  0
   16.9147   59.2804   84.9733 C   0  0  0  0  0  0  0  0  0  0  0  0
   18.0647   59.0343   86.2724 Cl  0  0  0  0  0  0  0  0  0  0  0  0
   12.8800   58.5147   85.3857 C   0  0  0  0  0  0  0  0  0  0  0  0
   13.5223   58.2162   86.5650 C   0  0  0  0  0  3  0  0  0  0  0  0
   11.9437   57.6248   84.9025 C   0  0  0  0  0  3  0  0  0  0  0  0
   13.2422   57.0490   87.2606 C   0  0  0  0  0  3  0  0  0  0  0  0
   11.6685   56.4603   85.6024 C   0  0  0  0  0  3  0  0  0  0  0  0
   12.3119   56.1572   86.7875 C   0  0  0  0  0  3  0  0  0  0  0  0
  1  2  2  0
  1  7  1  0
  3  2  1  0
  4  3  2  0
  5  4  1  0
  5  6  2  0
  6  1  1  0
  7  8  1  0
  9  7  2  0
 10  5  1  0
 11 12  2  0
 11 10  1  0
 13 11  1  0
 14 22  1  0
 14 12  1  0
 15 13  1  0
 16 15  2  0
 16 14  1  0
 17 15  1  0
 18 16  1  0
 19 17  2  0
 20 19  1  0
 20 18  2  0
 21 20  1  0
 22 24  2  0
 23 25  2  0
 23 22  1  0
 24 26  1  0
 25 27  1  0
 27 26  2  0
M  RAD  8   2   2   3   2   4   2   6   2   8   2  13   2  14   2  17   2
M  RAD  7  18   2  19   2  23   2  24   2  25   2  26   2  27   2
M  END
>  <REMARK>  (1) 
 SMILES O=C([O-])c1cccc(Nc2nc(-c3ccccc3)c3cc(Cl)ccc3n2)c1
 SMILES IDX 4 1 5 2 6 3 7 4 8 5 27 6 2 7 1 8 3 9 9 10 10 12 11 13 26 14
 SMILES IDX 12 15 25 16 19 17 24 18 20 19 23 20 21 21 22 22 13 23 14 24
 SMILES IDX 18 25 15 26 17 27 16 28
 H PARENT 9 11

>  <TORSDO>  (1) 
F 4

$$$$
