/home/pchatterjee/Documents/git/vs_workflow/DiffDock/diffdock_run/pdbqt_scrubbed/Z3590543759.pdbqt
     RDKit          3D

 24 27  0  0  0  0  0  0  0  0999 V2000
    3.8149   45.1898   53.6621 C   0  0  0  0  0  0  0  0  0  0  0  0
    3.2605   46.0187   54.5956 C   0  0  0  0  0  0  0  0  0  0  0  0
    4.1658   47.3496   55.2630 Cl  0  0  0  0  0  0  0  0  0  0  0  0
    1.9508   45.8793   55.0650 C   0  0  0  0  0  3  0  0  0  0  0  0
    1.1347   44.8795   54.6011 C   0  0  0  0  0  3  0  0  0  0  0  0
    1.6829   44.0390   53.6598 C   0  0  0  0  0  3  0  0  0  0  0  0
    2.9718   44.1697   53.1927 C   0  0  0  0  0  0  0  0  0  0  0  0
    5.1450   45.2217   53.1305 C   0  0  0  0  0  0  0  0  0  0  0  0
    5.8394   46.3321   52.6048 N   0  0  0  0  0  0  0  0  0  0  0  0
    5.8245   44.1285   53.1130 O   0  0  0  0  0  0  0  0  0  0  0  0
    7.1295   46.1038   52.0314 C   0  0  0  0  0  0  0  0  0  0  0  0
    8.1694   47.0086   52.2620 C   0  0  0  0  0  3  0  0  0  0  0  0
    7.3486   44.9906   51.2503 C   0  0  0  0  0  3  0  0  0  0  0  0
    9.3999   46.7453   51.6861 C   0  0  0  0  0  3  0  0  0  0  0  0
    8.5832   44.7805   50.7068 N   0  0  0  0  0  0  0  0  0  0  0  0
    9.6026   45.6385   50.9144 C   0  0  0  0  0  0  0  0  0  0  0  0
    9.0716   43.8039   49.9232 C   0  0  0  0  0  3  0  0  0  0  0  0
   10.6932   45.2112   50.2805 N   0  0  0  0  0  0  0  0  0  0  0  0
   10.3568   44.0896   49.6784 N   0  0  0  0  0  0  0  0  0  0  0  0
    3.3894   43.2498   52.2428 O   0  0  0  0  0  0  0  0  0  0  0  0
    2.4093   42.7585   51.3147 C   0  0  0  0  0  2  0  0  0  0  0  0
    3.1012   41.6773   50.4771 C   0  0  0  0  0  3  0  0  0  0  0  0
    3.3580   41.9065   49.0338 C   0  0  0  0  0  2  0  0  0  0  0  0
    4.4859   42.2119   49.9963 C   0  0  0  0  0  2  0  0  0  0  0  0
  1  7  1  0
  2  1  2  0
  2  4  1  0
  3  2  1  0
  4  5  2  0
  5  6  1  0
  7 20  1  0
  7  6  2  0
  8  1  1  0
  8  9  1  0
 10  8  2  0
 11  9  1  0
 11 12  1  0
 13 11  2  0
 14 12  2  0
 15 13  1  0
 15 16  1  0
 16 14  1  0
 17 19  2  0
 17 15  1  0
 18 16  2  0
 19 18  1  0
 20 21  1  0
 22 21  1  0
 22 24  1  0
 22 23  1  0
 24 23  1  0
M  RAD  8   4   2   5   2   6   2  12   2  13   2  14   2  17   2  21   3
M  RAD  3  22   2  23   3  24   3
M  END
>  <REMARK>  (1) 
 SMILES O=C(Nc1ccc2nncn2c1)c1c(Cl)cccc1OCC1CC1
 SMILES IDX 13 1 14 2 15 3 16 4 17 5 18 6 19 7 2 8 3 9 1 10 4 12 5 13
 SMILES IDX 12 14 6 15 11 16 7 17 10 18 8 19 9 20 20 21 21 22 22 23
 SMILES IDX 23 24 24 25
 H PARENT 3 11

>  <TORSDO>  (1) 
F 5

$$$$
