/home/pchatterjee/Documents/git/vs_workflow/DiffDock/diffdock_run/pdbqt_scrubbed/Z3590543759.pdbqt
     RDKit          3D

 24 27  0  0  0  0  0  0  0  0999 V2000
    6.1251   48.3093   54.8448 C   0  0  0  0  0  0  0  0  0  0  0  0
    6.3646   49.4588   55.5429 C   0  0  0  0  0  0  0  0  0  0  0  0
    7.8683   50.3204   55.3620 Cl  0  0  0  0  0  0  0  0  0  0  0  0
    5.4394   50.0300   56.4221 C   0  0  0  0  0  3  0  0  0  0  0  0
    4.2138   49.4524   56.6341 C   0  0  0  0  0  3  0  0  0  0  0  0
    3.9618   48.2943   55.9353 C   0  0  0  0  0  3  0  0  0  0  0  0
    4.8676   47.7256   55.0679 C   0  0  0  0  0  0  0  0  0  0  0  0
    7.0026   47.6238   53.9431 C   0  0  0  0  0  0  0  0  0  0  0  0
    6.8517   47.4562   52.5501 N   0  0  0  0  0  0  0  0  0  0  0  0
    8.0695   47.0828   54.4187 O   0  0  0  0  0  0  0  0  0  0  0  0
    7.7638   46.5828   51.8788 C   0  0  0  0  0  0  0  0  0  0  0  0
    9.1422   46.7663   52.0192 C   0  0  0  0  0  3  0  0  0  0  0  0
    7.2841   45.5588   51.0924 C   0  0  0  0  0  3  0  0  0  0  0  0
    9.9852   45.8962   51.3505 C   0  0  0  0  0  3  0  0  0  0  0  0
    8.1619   44.7298   50.4552 N   0  0  0  0  0  0  0  0  0  0  0  0
    9.4960   44.8861   50.5746 C   0  0  0  0  0  0  0  0  0  0  0  0
    7.9814   43.6737   49.6439 C   0  0  0  0  0  3  0  0  0  0  0  0
   10.1286   43.9568   49.8605 N   0  0  0  0  0  0  0  0  0  0  0  0
    9.1931   43.2218   49.2963 N   0  0  0  0  0  0  0  0  0  0  0  0
    4.4763   46.5572   54.4318 O   0  0  0  0  0  0  0  0  0  0  0  0
    3.0705   46.3534   54.2180 C   0  0  0  0  0  2  0  0  0  0  0  0
    2.9331   45.0614   53.4049 C   0  0  0  0  0  3  0  0  0  0  0  0
    1.8329   44.9170   52.4198 C   0  0  0  0  0  2  0  0  0  0  0  0
    3.1764   45.3787   51.8968 C   0  0  0  0  0  2  0  0  0  0  0  0
  1  7  1  0
  2  1  2  0
  2  4  1  0
  3  2  1  0
  4  5  2  0
  5  6  1  0
  7 20  1  0
  7  6  2  0
  8  1  1  0
  8  9  1  0
 10  8  2  0
 11  9  1  0
 11 12  1  0
 13 11  2  0
 14 12  2  0
 15 13  1  0
 15 16  1  0
 16 14  1  0
 17 19  2  0
 17 15  1  0
 18 16  2  0
 19 18  1  0
 20 21  1  0
 22 21  1  0
 22 24  1  0
 22 23  1  0
 24 23  1  0
M  RAD  8   4   2   5   2   6   2  12   2  13   2  14   2  17   2  21   3
M  RAD  3  22   2  23   3  24   3
M  END
>  <REMARK>  (1) 
 SMILES O=C(Nc1ccc2nncn2c1)c1c(Cl)cccc1OCC1CC1
 SMILES IDX 13 1 14 2 15 3 16 4 17 5 18 6 19 7 2 8 3 9 1 10 4 12 5 13
 SMILES IDX 12 14 6 15 11 16 7 17 10 18 8 19 9 20 20 21 21 22 22 23
 SMILES IDX 23 24 24 25
 H PARENT 3 11

>  <TORSDO>  (1) 
F 5

$$$$
