/home/pchatterjee/Documents/git/vs_workflow/DiffDock/diffdock_run/pdbqt_scrubbed/Z3590543759.pdbqt
     RDKit          3D

 24 27  0  0  0  0  0  0  0  0999 V2000
    6.7834   48.4888   54.8673 C   0  0  0  0  0  0  0  0  0  0  0  0
    7.2323   49.5807   55.5545 C   0  0  0  0  0  0  0  0  0  0  0  0
    8.8242   50.2284   55.2669 Cl  0  0  0  0  0  0  0  0  0  0  0  0
    6.4638   50.2582   56.5060 C   0  0  0  0  0  3  0  0  0  0  0  0
    5.1885   49.8525   56.8058 C   0  0  0  0  0  3  0  0  0  0  0  0
    4.7260   48.7538   56.1188 C   0  0  0  0  0  3  0  0  0  0  0  0
    5.4767   48.0812   55.1805 C   0  0  0  0  0  0  0  0  0  0  0  0
    7.4872   47.7050   53.8961 C   0  0  0  0  0  0  0  0  0  0  0  0
    7.1567   47.5109   52.5380 N   0  0  0  0  0  0  0  0  0  0  0  0
    8.5558   47.0886   54.2637 O   0  0  0  0  0  0  0  0  0  0  0  0
    7.9250   46.5634   51.7914 C   0  0  0  0  0  0  0  0  0  0  0  0
    9.3210   46.5901   51.8509 C   0  0  0  0  0  3  0  0  0  0  0  0
    7.2889   45.6225   51.0121 C   0  0  0  0  0  3  0  0  0  0  0  0
   10.0213   45.6534   51.1112 C   0  0  0  0  0  3  0  0  0  0  0  0
    8.0302   44.7218   50.3027 N   0  0  0  0  0  0  0  0  0  0  0  0
    9.3780   44.7270   50.3434 C   0  0  0  0  0  0  0  0  0  0  0  0
    7.6859   43.7168   49.4794 C   0  0  0  0  0  3  0  0  0  0  0  0
    9.8603   43.7560   49.5700 N   0  0  0  0  0  0  0  0  0  0  0  0
    8.8173   43.1455   49.0473 N   0  0  0  0  0  0  0  0  0  0  0  0
    4.8798   46.9905   54.5665 O   0  0  0  0  0  0  0  0  0  0  0  0
    3.4559   47.0270   54.3806 C   0  0  0  0  0  2  0  0  0  0  0  0
    3.0833   45.7644   53.5957 C   0  0  0  0  0  3  0  0  0  0  0  0
    2.2783   45.8720   52.3538 C   0  0  0  0  0  2  0  0  0  0  0  0
    3.7830   45.8045   52.2017 C   0  0  0  0  0  2  0  0  0  0  0  0
  1  7  1  0
  2  1  2  0
  2  4  1  0
  3  2  1  0
  4  5  2  0
  5  6  1  0
  7 20  1  0
  7  6  2  0
  8  1  1  0
  8  9  1  0
 10  8  2  0
 11  9  1  0
 11 12  1  0
 13 11  2  0
 14 12  2  0
 15 13  1  0
 15 16  1  0
 16 14  1  0
 17 19  2  0
 17 15  1  0
 18 16  2  0
 19 18  1  0
 20 21  1  0
 22 21  1  0
 22 24  1  0
 22 23  1  0
 24 23  1  0
M  RAD  8   4   2   5   2   6   2  12   2  13   2  14   2  17   2  21   3
M  RAD  3  22   2  23   3  24   3
M  END
>  <REMARK>  (1) 
 SMILES O=C(Nc1ccc2nncn2c1)c1c(Cl)cccc1OCC1CC1
 SMILES IDX 13 1 14 2 15 3 16 4 17 5 18 6 19 7 2 8 3 9 1 10 4 12 5 13
 SMILES IDX 12 14 6 15 11 16 7 17 10 18 8 19 9 20 20 21 21 22 22 23
 SMILES IDX 23 24 24 25
 H PARENT 3 11

>  <TORSDO>  (1) 
F 5

$$$$
