/home/pchatterjee/Documents/git/vs_workflow/DiffDock/diffdock_run/pdbqt_scrubbed/Z3590543759.pdbqt
     RDKit          3D

 24 27  0  0  0  0  0  0  0  0999 V2000
    2.6688   44.5861   52.0997 C   0  0  0  0  0  0  0  0  0  0  0  0
    1.9037   45.5808   52.6395 C   0  0  0  0  0  0  0  0  0  0  0  0
    2.5709   47.1626   52.9382 Cl  0  0  0  0  0  0  0  0  0  0  0  0
    0.5550   45.4181   52.9706 C   0  0  0  0  0  3  0  0  0  0  0  0
   -0.0856   44.2231   52.7653 C   0  0  0  0  0  3  0  0  0  0  0  0
    0.6755   43.2143   52.2212 C   0  0  0  0  0  3  0  0  0  0  0  0
    2.0042   43.3666   51.8927 C   0  0  0  0  0  0  0  0  0  0  0  0
    4.0569   44.6310   51.7477 C   0  0  0  0  0  0  0  0  0  0  0  0
    4.6430   44.3248   50.5011 N   0  0  0  0  0  0  0  0  0  0  0  0
    4.9058   44.9904   52.6463 O   0  0  0  0  0  0  0  0  0  0  0  0
    6.0619   44.4556   50.3789 C   0  0  0  0  0  0  0  0  0  0  0  0
    6.7626   43.6651   49.4638 C   0  0  0  0  0  3  0  0  0  0  0  0
    6.7399   45.3618   51.1639 C   0  0  0  0  0  3  0  0  0  0  0  0
    8.1344   43.8273   49.3815 C   0  0  0  0  0  3  0  0  0  0  0  0
    8.0944   45.4800   51.0407 N   0  0  0  0  0  0  0  0  0  0  0  0
    8.7932   44.7290   50.1654 C   0  0  0  0  0  0  0  0  0  0  0  0
    8.9938   46.2619   51.6621 C   0  0  0  0  0  3  0  0  0  0  0  0
   10.0879   45.0323   50.2379 N   0  0  0  0  0  0  0  0  0  0  0  0
   10.1985   45.9700   51.1556 N   0  0  0  0  0  0  0  0  0  0  0  0
    2.6453   42.2627   51.3511 O   0  0  0  0  0  0  0  0  0  0  0  0
    2.1501   41.7495   50.1042 C   0  0  0  0  0  2  0  0  0  0  0  0
    3.0418   40.5589   49.7346 C   0  0  0  0  0  3  0  0  0  0  0  0
    3.3947   40.3072   48.3154 C   0  0  0  0  0  2  0  0  0  0  0  0
    4.3866   41.0904   49.1488 C   0  0  0  0  0  2  0  0  0  0  0  0
  1  7  1  0
  2  1  2  0
  2  4  1  0
  3  2  1  0
  4  5  2  0
  5  6  1  0
  7 20  1  0
  7  6  2  0
  8  1  1  0
  8  9  1  0
 10  8  2  0
 11  9  1  0
 11 12  1  0
 13 11  2  0
 14 12  2  0
 15 13  1  0
 15 16  1  0
 16 14  1  0
 17 19  2  0
 17 15  1  0
 18 16  2  0
 19 18  1  0
 20 21  1  0
 22 21  1  0
 22 24  1  0
 22 23  1  0
 24 23  1  0
M  RAD  8   4   2   5   2   6   2  12   2  13   2  14   2  17   2  21   3
M  RAD  3  22   2  23   3  24   3
M  END
>  <REMARK>  (1) 
 SMILES O=C(Nc1ccc2nncn2c1)c1c(Cl)cccc1OCC1CC1
 SMILES IDX 13 1 14 2 15 3 16 4 17 5 18 6 19 7 2 8 3 9 1 10 4 12 5 13
 SMILES IDX 12 14 6 15 11 16 7 17 10 18 8 19 9 20 20 21 21 22 22 23
 SMILES IDX 23 24 24 25
 H PARENT 3 11

>  <TORSDO>  (1) 
F 5

$$$$
