/home/pchatterjee/Documents/git/vs_workflow/DiffDock/diffdock_run/pdbqt_scrubbed/Z3590543759.pdbqt
     RDKit          3D

 24 27  0  0  0  0  0  0  0  0999 V2000
    7.3357   48.4926   55.0164 C   0  0  0  0  0  0  0  0  0  0  0  0
    7.9068   49.4248   55.8355 C   0  0  0  0  0  0  0  0  0  0  0  0
    9.5930   49.8377   55.6845 Cl  0  0  0  0  0  0  0  0  0  0  0  0
    7.1984   50.1162   56.8231 C   0  0  0  0  0  3  0  0  0  0  0  0
    5.8610   49.8895   57.0253 C   0  0  0  0  0  3  0  0  0  0  0  0
    5.2754   48.9529   56.2051 C   0  0  0  0  0  3  0  0  0  0  0  0
    5.9662   48.2678   55.2306 C   0  0  0  0  0  0  0  0  0  0  0  0
    7.9651   47.7092   53.9952 C   0  0  0  0  0  0  0  0  0  0  0  0
    7.5739   47.5724   52.6462 N   0  0  0  0  0  0  0  0  0  0  0  0
    9.0179   47.0348   54.3015 O   0  0  0  0  0  0  0  0  0  0  0  0
    8.2671   46.6137   51.8427 C   0  0  0  0  0  0  0  0  0  0  0  0
    9.6644   46.5999   51.8167 C   0  0  0  0  0  3  0  0  0  0  0  0
    7.5574   45.7020   51.0928 C   0  0  0  0  0  3  0  0  0  0  0  0
   10.2905   45.6538   51.0243 C   0  0  0  0  0  3  0  0  0  0  0  0
    8.2273   44.7904   50.3285 N   0  0  0  0  0  0  0  0  0  0  0  0
    9.5746   44.7567   50.2865 C   0  0  0  0  0  0  0  0  0  0  0  0
    7.8041   43.8070   49.5160 C   0  0  0  0  0  3  0  0  0  0  0  0
    9.9802   43.7829   49.4734 N   0  0  0  0  0  0  0  0  0  0  0  0
    8.8898   43.2096   49.0085 N   0  0  0  0  0  0  0  0  0  0  0  0
    5.2451   47.3530   54.4783 O   0  0  0  0  0  0  0  0  0  0  0  0
    3.8586   47.1671   54.8048 C   0  0  0  0  0  2  0  0  0  0  0  0
    3.3075   46.1392   53.8104 C   0  0  0  0  0  3  0  0  0  0  0  0
    2.0876   46.4466   53.0235 C   0  0  0  0  0  2  0  0  0  0  0  0
    3.4241   46.7140   52.3645 C   0  0  0  0  0  2  0  0  0  0  0  0
  1  7  1  0
  2  1  2  0
  2  4  1  0
  3  2  1  0
  4  5  2  0
  5  6  1  0
  7 20  1  0
  7  6  2  0
  8  1  1  0
  8  9  1  0
 10  8  2  0
 11  9  1  0
 11 12  1  0
 13 11  2  0
 14 12  2  0
 15 13  1  0
 15 16  1  0
 16 14  1  0
 17 19  2  0
 17 15  1  0
 18 16  2  0
 19 18  1  0
 20 21  1  0
 22 21  1  0
 22 24  1  0
 22 23  1  0
 24 23  1  0
M  RAD  8   4   2   5   2   6   2  12   2  13   2  14   2  17   2  21   3
M  RAD  3  22   2  23   3  24   3
M  END
>  <REMARK>  (1) 
 SMILES O=C(Nc1ccc2nncn2c1)c1c(Cl)cccc1OCC1CC1
 SMILES IDX 13 1 14 2 15 3 16 4 17 5 18 6 19 7 2 8 3 9 1 10 4 12 5 13
 SMILES IDX 12 14 6 15 11 16 7 17 10 18 8 19 9 20 20 21 21 22 22 23
 SMILES IDX 23 24 24 25
 H PARENT 3 11

>  <TORSDO>  (1) 
F 5

$$$$
