/home/pchatterjee/Documents/git/vs_workflow/DiffDock/diffdock_run/pdbqt_scrubbed/Z3590543759.pdbqt
     RDKit          3D

 24 27  0  0  0  0  0  0  0  0999 V2000
    3.7397   45.3000   53.7101 C   0  0  0  0  0  0  0  0  0  0  0  0
    3.2020   45.8602   54.8340 C   0  0  0  0  0  0  0  0  0  0  0  0
    4.1603   46.8780   55.8743 Cl  0  0  0  0  0  0  0  0  0  0  0  0
    1.8702   45.6802   55.2198 C   0  0  0  0  0  3  0  0  0  0  0  0
    1.0134   44.9139   54.4717 C   0  0  0  0  0  3  0  0  0  0  0  0
    1.5445   44.3454   53.3369 C   0  0  0  0  0  3  0  0  0  0  0  0
    2.8549   44.5177   52.9504 C   0  0  0  0  0  0  0  0  0  0  0  0
    5.0878   45.3938   53.2340 C   0  0  0  0  0  0  0  0  0  0  0  0
    5.6992   46.4838   52.5787 N   0  0  0  0  0  0  0  0  0  0  0  0
    5.8700   44.3860   53.4057 O   0  0  0  0  0  0  0  0  0  0  0  0
    6.9758   46.2683   51.9710 C   0  0  0  0  0  0  0  0  0  0  0  0
    8.0653   47.0685   52.3257 C   0  0  0  0  0  3  0  0  0  0  0  0
    7.1327   45.2707   51.0343 C   0  0  0  0  0  3  0  0  0  0  0  0
    9.2802   46.8222   51.7107 C   0  0  0  0  0  3  0  0  0  0  0  0
    8.3548   45.0720   50.4591 N   0  0  0  0  0  0  0  0  0  0  0  0
    9.4213   45.8304   50.7844 C   0  0  0  0  0  0  0  0  0  0  0  0
    8.7886   44.1941   49.5384 C   0  0  0  0  0  3  0  0  0  0  0  0
   10.4873   45.4387   50.0889 N   0  0  0  0  0  0  0  0  0  0  0  0
   10.0888   44.4384   49.3310 N   0  0  0  0  0  0  0  0  0  0  0  0
    3.2512   43.8846   51.7822 O   0  0  0  0  0  0  0  0  0  0  0  0
    2.2409   43.2149   51.0112 C   0  0  0  0  0  2  0  0  0  0  0  0
    2.9624   42.5219   49.8500 C   0  0  0  0  0  3  0  0  0  0  0  0
    4.4136   42.2278   49.9464 C   0  0  0  0  0  2  0  0  0  0  0  0
    3.4543   41.1177   50.3195 C   0  0  0  0  0  2  0  0  0  0  0  0
  1  7  1  0
  2  1  2  0
  2  4  1  0
  3  2  1  0
  4  5  2  0
  5  6  1  0
  7 20  1  0
  7  6  2  0
  8  1  1  0
  8  9  1  0
 10  8  2  0
 11  9  1  0
 11 12  1  0
 13 11  2  0
 14 12  2  0
 15 13  1  0
 15 16  1  0
 16 14  1  0
 17 19  2  0
 17 15  1  0
 18 16  2  0
 19 18  1  0
 20 21  1  0
 22 21  1  0
 22 24  1  0
 22 23  1  0
 24 23  1  0
M  RAD  8   4   2   5   2   6   2  12   2  13   2  14   2  17   2  21   3
M  RAD  3  22   2  23   3  24   3
M  END
>  <REMARK>  (1) 
 SMILES O=C(Nc1ccc2nncn2c1)c1c(Cl)cccc1OCC1CC1
 SMILES IDX 13 1 14 2 15 3 16 4 17 5 18 6 19 7 2 8 3 9 1 10 4 12 5 13
 SMILES IDX 12 14 6 15 11 16 7 17 10 18 8 19 9 20 20 21 21 22 22 23
 SMILES IDX 23 24 24 25
 H PARENT 3 11

>  <TORSDO>  (1) 
F 5

$$$$
