/home/pchatterjee/Documents/git/vs_workflow/DiffDock/diffdock_run/pdbqt_scrubbed/Z3590543759.pdbqt
     RDKit          3D

 24 27  0  0  0  0  0  0  0  0999 V2000
    3.7816   45.3849   53.7381 C   0  0  0  0  0  0  0  0  0  0  0  0
    3.1271   45.7686   54.8741 C   0  0  0  0  0  0  0  0  0  0  0  0
    3.9270   46.7290   56.0883 Cl  0  0  0  0  0  0  0  0  0  0  0  0
    1.7929   45.4442   55.1382 C   0  0  0  0  0  3  0  0  0  0  0  0
    1.0539   44.7068   54.2489 C   0  0  0  0  0  3  0  0  0  0  0  0
    1.7032   44.3156   53.1007 C   0  0  0  0  0  3  0  0  0  0  0  0
    3.0168   44.6309   52.8335 C   0  0  0  0  0  0  0  0  0  0  0  0
    5.1451   45.6357   53.3763 C   0  0  0  0  0  0  0  0  0  0  0  0
    5.6291   46.5257   52.3939 N   0  0  0  0  0  0  0  0  0  0  0  0
    6.0721   44.9947   53.9982 O   0  0  0  0  0  0  0  0  0  0  0  0
    6.9313   46.2832   51.8549 C   0  0  0  0  0  0  0  0  0  0  0  0
    8.0062   47.0958   52.2256 C   0  0  0  0  0  3  0  0  0  0  0  0
    7.1276   45.2471   50.9687 C   0  0  0  0  0  3  0  0  0  0  0  0
    9.2472   46.8223   51.6778 C   0  0  0  0  0  3  0  0  0  0  0  0
    8.3741   45.0227   50.4590 N   0  0  0  0  0  0  0  0  0  0  0  0
    9.4271   45.7925   50.8009 C   0  0  0  0  0  0  0  0  0  0  0  0
    8.8465   44.1066   49.5965 C   0  0  0  0  0  3  0  0  0  0  0  0
   10.5225   45.3704   50.1720 N   0  0  0  0  0  0  0  0  0  0  0  0
   10.1556   44.3400   49.4389 N   0  0  0  0  0  0  0  0  0  0  0  0
    3.5398   44.1694   51.6351 O   0  0  0  0  0  0  0  0  0  0  0  0
    2.8442   43.1021   50.9713 C   0  0  0  0  0  2  0  0  0  0  0  0
    3.5991   42.8319   49.6651 C   0  0  0  0  0  3  0  0  0  0  0  0
    5.0539   43.1103   49.5763 C   0  0  0  0  0  2  0  0  0  0  0  0
    4.6375   41.6916   49.9017 C   0  0  0  0  0  2  0  0  0  0  0  0
  1  7  1  0
  2  1  2  0
  2  4  1  0
  3  2  1  0
  4  5  2  0
  5  6  1  0
  7 20  1  0
  7  6  2  0
  8  1  1  0
  8  9  1  0
 10  8  2  0
 11  9  1  0
 11 12  1  0
 13 11  2  0
 14 12  2  0
 15 13  1  0
 15 16  1  0
 16 14  1  0
 17 19  2  0
 17 15  1  0
 18 16  2  0
 19 18  1  0
 20 21  1  0
 22 21  1  0
 22 24  1  0
 22 23  1  0
 24 23  1  0
M  RAD  8   4   2   5   2   6   2  12   2  13   2  14   2  17   2  21   3
M  RAD  3  22   2  23   3  24   3
M  END
>  <REMARK>  (1) 
 SMILES O=C(Nc1ccc2nncn2c1)c1c(Cl)cccc1OCC1CC1
 SMILES IDX 13 1 14 2 15 3 16 4 17 5 18 6 19 7 2 8 3 9 1 10 4 12 5 13
 SMILES IDX 12 14 6 15 11 16 7 17 10 18 8 19 9 20 20 21 21 22 22 23
 SMILES IDX 23 24 24 25
 H PARENT 3 11

>  <TORSDO>  (1) 
F 5

$$$$
