/home/pchatterjee/Documents/git/vs_workflow/DiffDock/diffdock_run/pdbqt_scrubbed/Z3590543759.pdbqt
     RDKit          3D

 24 27  0  0  0  0  0  0  0  0999 V2000
    7.2066   48.3383   54.5839 C   0  0  0  0  0  0  0  0  0  0  0  0
    7.8266   49.1708   55.4719 C   0  0  0  0  0  0  0  0  0  0  0  0
    9.5641   49.2936   55.5224 Cl  0  0  0  0  0  0  0  0  0  0  0  0
    7.1340   49.9824   56.3757 C   0  0  0  0  0  3  0  0  0  0  0  0
    5.7632   49.9854   56.4184 C   0  0  0  0  0  3  0  0  0  0  0  0
    5.1284   49.1509   55.5275 C   0  0  0  0  0  3  0  0  0  0  0  0
    5.8034   48.3486   54.6347 C   0  0  0  0  0  0  0  0  0  0  0  0
    7.8104   47.4489   53.6367 C   0  0  0  0  0  0  0  0  0  0  0  0
    7.7924   47.5435   52.2288 N   0  0  0  0  0  0  0  0  0  0  0  0
    8.4584   46.4289   54.0803 O   0  0  0  0  0  0  0  0  0  0  0  0
    8.3816   46.4776   51.4792 C   0  0  0  0  0  0  0  0  0  0  0  0
    9.7715   46.3848   51.3660 C   0  0  0  0  0  3  0  0  0  0  0  0
    7.5788   45.5404   50.8673 C   0  0  0  0  0  3  0  0  0  0  0  0
   10.2952   45.3361   50.6305 C   0  0  0  0  0  3  0  0  0  0  0  0
    8.1497   44.5262   50.1537 N   0  0  0  0  0  0  0  0  0  0  0  0
    9.4878   44.4148   50.0297 C   0  0  0  0  0  0  0  0  0  0  0  0
    7.6248   43.4961   49.4684 C   0  0  0  0  0  3  0  0  0  0  0  0
    9.7890   43.3488   49.2903 N   0  0  0  0  0  0  0  0  0  0  0  0
    8.6429   42.7954   48.9530 N   0  0  0  0  0  0  0  0  0  0  0  0
    5.0317   47.5591   53.7956 O   0  0  0  0  0  0  0  0  0  0  0  0
    3.6109   47.5524   54.0072 C   0  0  0  0  0  2  0  0  0  0  0  0
    3.0114   46.6396   52.9317 C   0  0  0  0  0  3  0  0  0  0  0  0
    3.7599   45.4444   52.4700 C   0  0  0  0  0  2  0  0  0  0  0  0
    2.7234   45.2380   53.5539 C   0  0  0  0  0  2  0  0  0  0  0  0
  1  7  1  0
  2  1  2  0
  2  4  1  0
  3  2  1  0
  4  5  2  0
  5  6  1  0
  7 20  1  0
  7  6  2  0
  8  1  1  0
  8  9  1  0
 10  8  2  0
 11  9  1  0
 11 12  1  0
 13 11  2  0
 14 12  2  0
 15 13  1  0
 15 16  1  0
 16 14  1  0
 17 19  2  0
 17 15  1  0
 18 16  2  0
 19 18  1  0
 20 21  1  0
 22 21  1  0
 22 24  1  0
 22 23  1  0
 24 23  1  0
M  RAD  8   4   2   5   2   6   2  12   2  13   2  14   2  17   2  21   3
M  RAD  3  22   2  23   3  24   3
M  END
>  <REMARK>  (1) 
 SMILES O=C(Nc1ccc2nncn2c1)c1c(Cl)cccc1OCC1CC1
 SMILES IDX 13 1 14 2 15 3 16 4 17 5 18 6 19 7 2 8 3 9 1 10 4 12 5 13
 SMILES IDX 12 14 6 15 11 16 7 17 10 18 8 19 9 20 20 21 21 22 22 23
 SMILES IDX 23 24 24 25
 H PARENT 3 11

>  <TORSDO>  (1) 
F 5

$$$$
