/home/pchatterjee/Documents/git/vs_workflow/DiffDock/diffdock_run/pdbqt_scrubbed/Z3590543759.pdbqt
     RDKit          3D

 24 27  0  0  0  0  0  0  0  0999 V2000
    5.9407   48.2276   54.2386 C   0  0  0  0  0  0  0  0  0  0  0  0
    6.3421   49.3676   54.8751 C   0  0  0  0  0  0  0  0  0  0  0  0
    7.9747   49.9556   54.7157 Cl  0  0  0  0  0  0  0  0  0  0  0  0
    5.4926   50.1425   55.6706 C   0  0  0  0  0  3  0  0  0  0  0  0
    4.1803   49.7904   55.8572 C   0  0  0  0  0  3  0  0  0  0  0  0
    3.7651   48.6440   55.2198 C   0  0  0  0  0  3  0  0  0  0  0  0
    4.5956   47.8754   54.4350 C   0  0  0  0  0  0  0  0  0  0  0  0
    6.7250   47.3464   53.4254 C   0  0  0  0  0  0  0  0  0  0  0  0
    7.2036   47.5738   52.1175 N   0  0  0  0  0  0  0  0  0  0  0  0
    7.0569   46.2000   53.9078 O   0  0  0  0  0  0  0  0  0  0  0  0
    8.0538   46.5825   51.5346 C   0  0  0  0  0  0  0  0  0  0  0  0
    9.4424   46.7329   51.5837 C   0  0  0  0  0  3  0  0  0  0  0  0
    7.5042   45.4771   50.9235 C   0  0  0  0  0  3  0  0  0  0  0  0
   10.2238   45.7477   51.0061 C   0  0  0  0  0  3  0  0  0  0  0  0
    8.3232   44.5357   50.3696 N   0  0  0  0  0  0  0  0  0  0  0  0
    9.6657   44.6580   50.4039 C   0  0  0  0  0  0  0  0  0  0  0  0
    8.0701   43.3841   49.7246 C   0  0  0  0  0  3  0  0  0  0  0  0
   10.2330   43.6156   49.7995 N   0  0  0  0  0  0  0  0  0  0  0  0
    9.2484   42.8441   49.3884 N   0  0  0  0  0  0  0  0  0  0  0  0
    4.0390   46.7462   53.8539 O   0  0  0  0  0  0  0  0  0  0  0  0
    2.8031   46.9047   53.1391 C   0  0  0  0  0  2  0  0  0  0  0  0
    2.3729   45.5038   52.6902 C   0  0  0  0  0  3  0  0  0  0  0  0
    3.0903   44.8255   51.5824 C   0  0  0  0  0  2  0  0  0  0  0  0
    3.5228   44.4942   52.9948 C   0  0  0  0  0  2  0  0  0  0  0  0
  1  7  1  0
  2  1  2  0
  2  4  1  0
  3  2  1  0
  4  5  2  0
  5  6  1  0
  7 20  1  0
  7  6  2  0
  8  1  1  0
  8  9  1  0
 10  8  2  0
 11  9  1  0
 11 12  1  0
 13 11  2  0
 14 12  2  0
 15 13  1  0
 15 16  1  0
 16 14  1  0
 17 19  2  0
 17 15  1  0
 18 16  2  0
 19 18  1  0
 20 21  1  0
 22 21  1  0
 22 24  1  0
 22 23  1  0
 24 23  1  0
M  RAD  8   4   2   5   2   6   2  12   2  13   2  14   2  17   2  21   3
M  RAD  3  22   2  23   3  24   3
M  END
>  <REMARK>  (1) 
 SMILES O=C(Nc1ccc2nncn2c1)c1c(Cl)cccc1OCC1CC1
 SMILES IDX 13 1 14 2 15 3 16 4 17 5 18 6 19 7 2 8 3 9 1 10 4 12 5 13
 SMILES IDX 12 14 6 15 11 16 7 17 10 18 8 19 9 20 20 21 21 22 22 23
 SMILES IDX 23 24 24 25
 H PARENT 3 11

>  <TORSDO>  (1) 
F 5

$$$$
