/home/pchatterjee/Documents/git/vs_workflow/DiffDock/diffdock_run/pdbqt_scrubbed/Z3590543759.pdbqt
     RDKit          3D

 24 27  0  0  0  0  0  0  0  0999 V2000
    7.3014   48.6015   54.7880 C   0  0  0  0  0  0  0  0  0  0  0  0
    7.8967   49.4059   55.7178 C   0  0  0  0  0  0  0  0  0  0  0  0
    9.6315   49.5458   55.8028 Cl  0  0  0  0  0  0  0  0  0  0  0  0
    7.1796   50.1743   56.6400 C   0  0  0  0  0  3  0  0  0  0  0  0
    5.8084   50.1606   56.6592 C   0  0  0  0  0  3  0  0  0  0  0  0
    5.1984   49.3542   55.7262 C   0  0  0  0  0  3  0  0  0  0  0  0
    5.8975   48.5944   54.8150 C   0  0  0  0  0  0  0  0  0  0  0  0
    7.9313   47.7560   53.8179 C   0  0  0  0  0  0  0  0  0  0  0  0
    7.5497   47.5472   52.4754 N   0  0  0  0  0  0  0  0  0  0  0  0
    8.9749   47.0900   54.1706 O   0  0  0  0  0  0  0  0  0  0  0  0
    8.3053   46.6101   51.7033 C   0  0  0  0  0  0  0  0  0  0  0  0
    9.6994   46.6995   51.6602 C   0  0  0  0  0  3  0  0  0  0  0  0
    7.6590   45.6173   51.0005 C   0  0  0  0  0  3  0  0  0  0  0  0
   10.3872   45.7704   50.8995 C   0  0  0  0  0  3  0  0  0  0  0  0
    8.3882   44.7270   50.2660 N   0  0  0  0  0  0  0  0  0  0  0  0
    9.7338   44.7922   50.2083 C   0  0  0  0  0  0  0  0  0  0  0  0
    8.0324   43.6815   49.5000 C   0  0  0  0  0  3  0  0  0  0  0  0
   10.2036   43.8182   49.4309 N   0  0  0  0  0  0  0  0  0  0  0  0
    9.1551   43.1461   49.0038 N   0  0  0  0  0  0  0  0  0  0  0  0
    5.1492   47.8294   53.9331 O   0  0  0  0  0  0  0  0  0  0  0  0
    3.7224   47.9943   53.9527 C   0  0  0  0  0  2  0  0  0  0  0  0
    3.1606   47.0866   52.8528 C   0  0  0  0  0  3  0  0  0  0  0  0
    3.4993   45.6420   52.8365 C   0  0  0  0  0  2  0  0  0  0  0  0
    2.1964   46.0419   53.4957 C   0  0  0  0  0  2  0  0  0  0  0  0
  1  7  1  0
  2  1  2  0
  2  4  1  0
  3  2  1  0
  4  5  2  0
  5  6  1  0
  7 20  1  0
  7  6  2  0
  8  1  1  0
  8  9  1  0
 10  8  2  0
 11  9  1  0
 11 12  1  0
 13 11  2  0
 14 12  2  0
 15 13  1  0
 15 16  1  0
 16 14  1  0
 17 19  2  0
 17 15  1  0
 18 16  2  0
 19 18  1  0
 20 21  1  0
 22 21  1  0
 22 24  1  0
 22 23  1  0
 24 23  1  0
M  RAD  8   4   2   5   2   6   2  12   2  13   2  14   2  17   2  21   3
M  RAD  3  22   2  23   3  24   3
M  END
>  <REMARK>  (1) 
 SMILES O=C(Nc1ccc2nncn2c1)c1c(Cl)cccc1OCC1CC1
 SMILES IDX 13 1 14 2 15 3 16 4 17 5 18 6 19 7 2 8 3 9 1 10 4 12 5 13
 SMILES IDX 12 14 6 15 11 16 7 17 10 18 8 19 9 20 20 21 21 22 22 23
 SMILES IDX 23 24 24 25
 H PARENT 3 11

>  <TORSDO>  (1) 
F 5

$$$$
