/home/pchatterjee/Documents/git/vs_workflow/DiffDock/diffdock_run/pdbqt_scrubbed/Z1013695804.pdbqt
     RDKit          3D

 24 27  0  0  0  0  0  0  0  0999 V2000
    6.8969   42.2154   48.6036 N   0  0  0  0  0  0  0  0  0  0  0  0
    5.5965   41.6674   48.4188 C   0  0  0  0  0  0  0  0  0  0  0  0
    3.0586   40.6500   48.1997 C   0  0  0  0  0  0  0  0  0  0  0  0
    3.9018   40.5598   47.1110 C   0  0  0  0  0  3  0  0  0  0  0  0
    3.4270   41.2275   49.3971 C   0  0  0  0  0  3  0  0  0  0  0  0
    5.1939   41.0823   47.2350 C   0  0  0  0  0  3  0  0  0  0  0  0
    4.7203   41.7452   49.5067 C   0  0  0  0  0  3  0  0  0  0  0  0
    1.8072   40.1523   48.1022 F   0  0  0  0  0  0  0  0  0  0  0  0
    7.2217   43.1989   49.5497 C   0  0  0  0  0  0  0  0  0  0  0  0
    6.2963   43.6772   50.4016 N   0  0  0  0  0  0  0  0  0  0  0  0
    8.4784   43.6751   49.6103 N   0  0  0  0  0  0  0  0  0  0  0  0
    6.5617   44.6183   51.3233 C   0  0  0  0  0  0  0  0  0  0  0  0
    8.7941   44.6317   50.5306 C   0  0  0  0  0  0  0  0  0  0  0  0
    7.8333   45.1113   51.3966 C   0  0  0  0  0  0  0  0  0  0  0  0
   10.0284   45.1424   50.6366 N   0  0  0  0  0  0  0  0  0  0  0  0
    8.0973   46.0511   52.3176 N   0  0  0  0  0  0  0  0  0  0  0  0
   10.2942   46.0930   51.5684 C   0  0  0  0  0  3  0  0  0  0  0  0
    9.3166   46.5631   52.4303 C   0  0  0  0  0  3  0  0  0  0  0  0
    5.4990   45.0423   52.1661 N   0  0  0  0  0  0  0  0  0  0  0  0
    5.4491   46.4326   52.6249 C   0  0  0  0  0  2  0  0  0  0  0  0
    4.4352   44.1615   52.6105 C   0  0  0  0  0  2  0  0  0  0  0  0
    3.9575   46.7306   52.8001 C   0  0  0  0  0  2  0  0  0  0  0  0
    3.1474   44.5630   51.9196 C   0  0  0  0  0  2  0  0  0  0  0  0
    3.1312   46.0676   51.7504 C   0  0  0  0  0  2  0  0  0  0  0  0
  1  2  1  0
  1  9  1  0
  2  7  2  0
  3  5  2  0
  4  6  2  0
  4  3  1  0
  5  7  1  0
  6  2  1  0
  8  3  1  0
  9 10  2  0
 10 12  1  0
 11  9  1  0
 11 13  2  0
 12 19  1  0
 13 14  1  0
 14 12  2  0
 14 16  1  0
 15 13  1  0
 15 17  2  0
 17 18  1  0
 18 16  2  0
 19 20  1  0
 20 22  1  0
 21 19  1  0
 21 23  1  0
 23 24  1  0
 24 22  1  0
M  RAD  8   4   2   5   2   6   2   7   2  17   2  18   2  20   3  21   3
M  RAD  3  22   3  23   3  24   3
M  END
>  <REMARK>  (1) 
 SMILES Fc1ccc(Nc2nc(N3CCCCC3)c3nccnc3n2)cc1
 SMILES IDX 6 1 5 3 2 4 3 5 24 6 4 7 23 8 1 9 7 10 8 11 22 12 9 13 21 14
 SMILES IDX 16 15 20 16 17 17 19 18 18 19 10 20 11 21 15 22 12 23 14 24
 SMILES IDX 13 25
 H PARENT 6 2

>  <TORSDO>  (1) 
F 3

$$$$
