/home/pchatterjee/Documents/git/vs_workflow/DiffDock/diffdock_run/pdbqt_scrubbed/Z1013695804.pdbqt
     RDKit          3D

 24 27  0  0  0  0  0  0  0  0999 V2000
    6.9225   42.1015   48.8484 N   0  0  0  0  0  0  0  0  0  0  0  0
    5.6377   41.5082   48.6976 C   0  0  0  0  0  0  0  0  0  0  0  0
    3.2005   40.3235   48.2728 C   0  0  0  0  0  0  0  0  0  0  0  0
    3.4335   40.9363   49.4871 C   0  0  0  0  0  3  0  0  0  0  0  0
    4.1331   40.2756   47.2574 C   0  0  0  0  0  3  0  0  0  0  0  0
    4.6805   41.5370   49.6919 C   0  0  0  0  0  3  0  0  0  0  0  0
    5.3741   40.8797   47.4759 C   0  0  0  0  0  3  0  0  0  0  0  0
    2.0040   39.7374   48.0535 F   0  0  0  0  0  0  0  0  0  0  0  0
    7.1899   43.2410   49.6217 C   0  0  0  0  0  0  0  0  0  0  0  0
    6.1924   43.9628   50.1648 N   0  0  0  0  0  0  0  0  0  0  0  0
    8.4634   43.6227   49.8267 N   0  0  0  0  0  0  0  0  0  0  0  0
    6.4010   45.0602   50.9118 C   0  0  0  0  0  0  0  0  0  0  0  0
    8.7233   44.7310   50.5789 C   0  0  0  0  0  0  0  0  0  0  0  0
    7.6889   45.4598   51.1285 C   0  0  0  0  0  0  0  0  0  0  0  0
    9.9711   45.1578   50.8161 N   0  0  0  0  0  0  0  0  0  0  0  0
    7.8961   46.5559   51.8746 N   0  0  0  0  0  0  0  0  0  0  0  0
   10.1794   46.2667   51.5709 C   0  0  0  0  0  3  0  0  0  0  0  0
    9.1283   46.9866   52.1152 C   0  0  0  0  0  3  0  0  0  0  0  0
    5.2646   45.7375   51.4306 N   0  0  0  0  0  0  0  0  0  0  0  0
    3.9287   45.3923   50.9388 C   0  0  0  0  0  2  0  0  0  0  0  0
    5.3487   46.7747   52.4417 C   0  0  0  0  0  2  0  0  0  0  0  0
    2.9963   45.6664   52.1219 C   0  0  0  0  0  2  0  0  0  0  0  0
    4.7804   46.2386   53.7404 C   0  0  0  0  0  2  0  0  0  0  0  0
    3.6295   45.3071   53.4235 C   0  0  0  0  0  2  0  0  0  0  0  0
  1  2  1  0
  1  9  1  0
  2  7  2  0
  3  5  2  0
  4  6  2  0
  4  3  1  0
  5  7  1  0
  6  2  1  0
  8  3  1  0
  9 10  2  0
 10 12  1  0
 11  9  1  0
 11 13  2  0
 12 19  1  0
 13 14  1  0
 14 12  2  0
 14 16  1  0
 15 13  1  0
 15 17  2  0
 17 18  1  0
 18 16  2  0
 19 20  1  0
 20 22  1  0
 21 19  1  0
 21 23  1  0
 23 24  1  0
 24 22  1  0
M  RAD  8   4   2   5   2   6   2   7   2  17   2  18   2  20   3  21   3
M  RAD  3  22   3  23   3  24   3
M  END
>  <REMARK>  (1) 
 SMILES Fc1ccc(Nc2nc(N3CCCCC3)c3nccnc3n2)cc1
 SMILES IDX 6 1 5 3 2 4 3 5 24 6 4 7 23 8 1 9 7 10 8 11 22 12 9 13 21 14
 SMILES IDX 16 15 20 16 17 17 19 18 18 19 10 20 11 21 15 22 12 23 14 24
 SMILES IDX 13 25
 H PARENT 6 2

>  <TORSDO>  (1) 
F 3

$$$$
