/home/pchatterjee/Documents/git/vs_workflow/DiffDock/diffdock_run/pdbqt_scrubbed/Z1013695804.pdbqt
     RDKit          3D

 24 27  0  0  0  0  0  0  0  0999 V2000
    6.9897   42.1392   48.6895 N   0  0  0  0  0  0  0  0  0  0  0  0
    5.7245   41.4969   48.5780 C   0  0  0  0  0  0  0  0  0  0  0  0
    3.2615   40.2919   48.5031 C   0  0  0  0  0  0  0  0  0  0  0  0
    4.0298   40.2948   47.3566 C   0  0  0  0  0  3  0  0  0  0  0  0
    3.6694   40.8658   49.6894 C   0  0  0  0  0  3  0  0  0  0  0  0
    5.2843   40.9125   47.4074 C   0  0  0  0  0  3  0  0  0  0  0  0
    4.9244   41.4791   49.7255 C   0  0  0  0  0  3  0  0  0  0  0  0
    2.0476   39.7013   48.4768 F   0  0  0  0  0  0  0  0  0  0  0  0
    7.2845   43.1705   49.5936 C   0  0  0  0  0  0  0  0  0  0  0  0
    6.3378   43.6750   50.4061 N   0  0  0  0  0  0  0  0  0  0  0  0
    8.5333   43.6669   49.6531 N   0  0  0  0  0  0  0  0  0  0  0  0
    6.5743   44.6620   51.2869 C   0  0  0  0  0  0  0  0  0  0  0  0
    8.8199   44.6700   50.5326 C   0  0  0  0  0  0  0  0  0  0  0  0
    7.8376   45.1759   51.3585 C   0  0  0  0  0  0  0  0  0  0  0  0
   10.0452   45.2027   50.6353 N   0  0  0  0  0  0  0  0  0  0  0  0
    8.0726   46.1616   52.2384 N   0  0  0  0  0  0  0  0  0  0  0  0
   10.2817   46.1996   51.5257 C   0  0  0  0  0  3  0  0  0  0  0  0
    9.2828   46.6957   52.3477 C   0  0  0  0  0  3  0  0  0  0  0  0
    5.4912   45.1099   52.0905 N   0  0  0  0  0  0  0  0  0  0  0  0
    5.4739   46.4911   52.5781 C   0  0  0  0  0  2  0  0  0  0  0  0
    4.3751   44.2626   52.4666 C   0  0  0  0  0  2  0  0  0  0  0  0
    3.9885   46.8440   52.6929 C   0  0  0  0  0  2  0  0  0  0  0  0
    3.1367   44.7290   51.7280 C   0  0  0  0  0  2  0  0  0  0  0  0
    3.1861   46.2363   51.5924 C   0  0  0  0  0  2  0  0  0  0  0  0
  1  2  1  0
  1  9  1  0
  2  7  2  0
  3  5  2  0
  4  6  2  0
  4  3  1  0
  5  7  1  0
  6  2  1  0
  8  3  1  0
  9 10  2  0
 10 12  1  0
 11  9  1  0
 11 13  2  0
 12 19  1  0
 13 14  1  0
 14 12  2  0
 14 16  1  0
 15 13  1  0
 15 17  2  0
 17 18  1  0
 18 16  2  0
 19 20  1  0
 20 22  1  0
 21 19  1  0
 21 23  1  0
 23 24  1  0
 24 22  1  0
M  RAD  8   4   2   5   2   6   2   7   2  17   2  18   2  20   3  21   3
M  RAD  3  22   3  23   3  24   3
M  END
>  <REMARK>  (1) 
 SMILES Fc1ccc(Nc2nc(N3CCCCC3)c3nccnc3n2)cc1
 SMILES IDX 6 1 5 3 2 4 3 5 24 6 4 7 23 8 1 9 7 10 8 11 22 12 9 13 21 14
 SMILES IDX 16 15 20 16 17 17 19 18 18 19 10 20 11 21 15 22 12 23 14 24
 SMILES IDX 13 25
 H PARENT 6 2

>  <TORSDO>  (1) 
F 3

$$$$
