/home/pchatterjee/Documents/git/vs_workflow/DiffDock/diffdock_run/pdbqt_scrubbed/Z1013695804.pdbqt
     RDKit          3D

 24 27  0  0  0  0  0  0  0  0999 V2000
   16.0085   82.8719   71.4076 N   0  0  0  0  0  0  0  0  0  0  0  0
   17.1830   83.2567   70.7019 C   0  0  0  0  0  0  0  0  0  0  0  0
   19.3674   84.0010   69.2192 C   0  0  0  0  0  0  0  0  0  0  0  0
   19.5259   83.8083   70.5765 C   0  0  0  0  0  3  0  0  0  0  0  0
   18.1629   83.8381   68.5667 C   0  0  0  0  0  3  0  0  0  0  0  0
   18.4043   83.4288   71.3220 C   0  0  0  0  0  3  0  0  0  0  0  0
   17.0514   83.4589   69.3239 C   0  0  0  0  0  3  0  0  0  0  0  0
   20.4364   84.3675   68.4803 F   0  0  0  0  0  0  0  0  0  0  0  0
   14.7291   83.3979   71.1751 C   0  0  0  0  0  0  0  0  0  0  0  0
   14.5085   84.2766   70.1800 N   0  0  0  0  0  0  0  0  0  0  0  0
   13.7019   83.0207   71.9575 N   0  0  0  0  0  0  0  0  0  0  0  0
   13.3010   84.8062   69.9206 C   0  0  0  0  0  0  0  0  0  0  0  0
   12.4574   83.5326   71.7312 C   0  0  0  0  0  0  0  0  0  0  0  0
   12.2486   84.4325   70.7067 C   0  0  0  0  0  0  0  0  0  0  0  0
   11.3979   83.1931   72.4781 N   0  0  0  0  0  0  0  0  0  0  0  0
   11.0431   84.9619   70.4467 N   0  0  0  0  0  0  0  0  0  0  0  0
   10.1791   83.7293   72.2142 C   0  0  0  0  0  3  0  0  0  0  0  0
    9.9876   84.6320   71.1808 C   0  0  0  0  0  3  0  0  0  0  0  0
   13.1954   85.7244   68.8412 N   0  0  0  0  0  0  0  0  0  0  0  0
   11.9793   86.5268   68.6893 C   0  0  0  0  0  2  0  0  0  0  0  0
   14.2433   85.9203   67.8571 C   0  0  0  0  0  2  0  0  0  0  0  0
   12.4496   87.8228   68.0235 C   0  0  0  0  0  2  0  0  0  0  0  0
   14.8660   87.2853   68.0712 C   0  0  0  0  0  2  0  0  0  0  0  0
   13.7890   88.2495   68.5219 C   0  0  0  0  0  2  0  0  0  0  0  0
  1  2  1  0
  1  9  1  0
  2  7  2  0
  3  5  2  0
  4  6  2  0
  4  3  1  0
  5  7  1  0
  6  2  1  0
  8  3  1  0
  9 10  2  0
 10 12  1  0
 11  9  1  0
 11 13  2  0
 12 19  1  0
 13 14  1  0
 14 12  2  0
 14 16  1  0
 15 13  1  0
 15 17  2  0
 17 18  1  0
 18 16  2  0
 19 20  1  0
 20 22  1  0
 21 19  1  0
 21 23  1  0
 23 24  1  0
 24 22  1  0
M  RAD  8   4   2   5   2   6   2   7   2  17   2  18   2  20   3  21   3
M  RAD  3  22   3  23   3  24   3
M  END
>  <REMARK>  (1) 
 SMILES Fc1ccc(Nc2nc(N3CCCCC3)c3nccnc3n2)cc1
 SMILES IDX 6 1 5 3 2 4 3 5 24 6 4 7 23 8 1 9 7 10 8 11 22 12 9 13 21 14
 SMILES IDX 16 15 20 16 17 17 19 18 18 19 10 20 11 21 15 22 12 23 14 24
 SMILES IDX 13 25
 H PARENT 6 2

>  <TORSDO>  (1) 
F 3

$$$$
