/home/pchatterjee/Documents/git/vs_workflow/DiffDock/diffdock_run/pdbqt_scrubbed/Z1013695804.pdbqt
     RDKit          3D

 24 27  0  0  0  0  0  0  0  0999 V2000
    6.9466   42.1413   48.6908 N   0  0  0  0  0  0  0  0  0  0  0  0
    5.6721   41.5207   48.5633 C   0  0  0  0  0  0  0  0  0  0  0  0
    3.2493   40.2933   48.1791 C   0  0  0  0  0  0  0  0  0  0  0  0
    3.5259   40.8340   49.4183 C   0  0  0  0  0  3  0  0  0  0  0  0
    4.1314   40.3382   47.1193 C   0  0  0  0  0  3  0  0  0  0  0  0
    4.7650   41.4574   49.6019 C   0  0  0  0  0  3  0  0  0  0  0  0
    5.3651   40.9639   47.3172 C   0  0  0  0  0  3  0  0  0  0  0  0
    2.0596   39.6870   47.9795 F   0  0  0  0  0  0  0  0  0  0  0  0
    7.2144   43.2560   49.4991 C   0  0  0  0  0  0  0  0  0  0  0  0
    6.2183   43.9476   50.0826 N   0  0  0  0  0  0  0  0  0  0  0  0
    8.4870   43.6442   49.6975 N   0  0  0  0  0  0  0  0  0  0  0  0
    6.4273   45.0206   50.8640 C   0  0  0  0  0  0  0  0  0  0  0  0
    8.7472   44.7286   50.4838 C   0  0  0  0  0  0  0  0  0  0  0  0
    7.7143   45.4265   51.0745 C   0  0  0  0  0  0  0  0  0  0  0  0
    9.9942   45.1605   50.7164 N   0  0  0  0  0  0  0  0  0  0  0  0
    7.9219   46.4982   51.8551 N   0  0  0  0  0  0  0  0  0  0  0  0
   10.2030   46.2446   51.5061 C   0  0  0  0  0  3  0  0  0  0  0  0
    9.1532   46.9337   52.0914 C   0  0  0  0  0  3  0  0  0  0  0  0
    5.2923   45.6671   51.4238 N   0  0  0  0  0  0  0  0  0  0  0  0
    3.9519   45.3192   50.9462 C   0  0  0  0  0  2  0  0  0  0  0  0
    5.3821   46.6744   52.4640 C   0  0  0  0  0  2  0  0  0  0  0  0
    3.0383   45.5454   52.1539 C   0  0  0  0  0  2  0  0  0  0  0  0
    4.8450   46.0922   53.7561 C   0  0  0  0  0  2  0  0  0  0  0  0
    3.7002   45.1556   53.4323 C   0  0  0  0  0  2  0  0  0  0  0  0
  1  2  1  0
  1  9  1  0
  2  7  2  0
  3  5  2  0
  4  6  2  0
  4  3  1  0
  5  7  1  0
  6  2  1  0
  8  3  1  0
  9 10  2  0
 10 12  1  0
 11  9  1  0
 11 13  2  0
 12 19  1  0
 13 14  1  0
 14 12  2  0
 14 16  1  0
 15 13  1  0
 15 17  2  0
 17 18  1  0
 18 16  2  0
 19 20  1  0
 20 22  1  0
 21 19  1  0
 21 23  1  0
 23 24  1  0
 24 22  1  0
M  RAD  8   4   2   5   2   6   2   7   2  17   2  18   2  20   3  21   3
M  RAD  3  22   3  23   3  24   3
M  END
>  <REMARK>  (1) 
 SMILES Fc1ccc(Nc2nc(N3CCCCC3)c3nccnc3n2)cc1
 SMILES IDX 6 1 5 3 2 4 3 5 24 6 4 7 23 8 1 9 7 10 8 11 22 12 9 13 21 14
 SMILES IDX 16 15 20 16 17 17 19 18 18 19 10 20 11 21 15 22 12 23 14 24
 SMILES IDX 13 25
 H PARENT 6 2

>  <TORSDO>  (1) 
F 3

$$$$
