/home/pchatterjee/Documents/git/vs_workflow/DiffDock/diffdock_run/pdbqt_scrubbed/Z1013695804.pdbqt
     RDKit          3D

 24 27  0  0  0  0  0  0  0  0999 V2000
    7.0288   42.2639   48.5593 N   0  0  0  0  0  0  0  0  0  0  0  0
    5.7592   41.6482   48.3734 C   0  0  0  0  0  0  0  0  0  0  0  0
    3.2870   40.4796   48.1575 C   0  0  0  0  0  0  0  0  0  0  0  0
    4.0630   40.5963   47.0223 C   0  0  0  0  0  3  0  0  0  0  0  0
    3.6914   40.9218   49.4001 C   0  0  0  0  0  3  0  0  0  0  0  0
    5.3221   41.1942   47.1451 C   0  0  0  0  0  3  0  0  0  0  0  0
    4.9512   41.5168   49.5079 C   0  0  0  0  0  3  0  0  0  0  0  0
    2.0685   39.9059   48.0620 F   0  0  0  0  0  0  0  0  0  0  0  0
    7.2794   43.3264   49.4404 C   0  0  0  0  0  0  0  0  0  0  0  0
    6.2704   44.0244   49.9933 N   0  0  0  0  0  0  0  0  0  0  0  0
    8.5483   43.6569   49.7408 N   0  0  0  0  0  0  0  0  0  0  0  0
    6.4628   45.0486   50.8416 C   0  0  0  0  0  0  0  0  0  0  0  0
    8.7918   44.6904   50.5978 C   0  0  0  0  0  0  0  0  0  0  0  0
    7.7458   45.3957   51.1559 C   0  0  0  0  0  0  0  0  0  0  0  0
   10.0343   45.0638   50.9330 N   0  0  0  0  0  0  0  0  0  0  0  0
    7.9368   46.4188   52.0032 N   0  0  0  0  0  0  0  0  0  0  0  0
   10.2262   46.0988   51.7901 C   0  0  0  0  0  3  0  0  0  0  0  0
    9.1636   46.7962   52.3413 C   0  0  0  0  0  3  0  0  0  0  0  0
    5.3154   45.7079   51.3595 N   0  0  0  0  0  0  0  0  0  0  0  0
    3.9880   45.3635   50.8443 C   0  0  0  0  0  2  0  0  0  0  0  0
    5.3797   46.7254   52.3917 C   0  0  0  0  0  2  0  0  0  0  0  0
    3.0392   45.6078   52.0209 C   0  0  0  0  0  2  0  0  0  0  0  0
    4.7993   46.1599   53.6724 C   0  0  0  0  0  2  0  0  0  0  0  0
    3.6589   45.2271   53.3230 C   0  0  0  0  0  2  0  0  0  0  0  0
  1  2  1  0
  1  9  1  0
  2  7  2  0
  3  5  2  0
  4  6  2  0
  4  3  1  0
  5  7  1  0
  6  2  1  0
  8  3  1  0
  9 10  2  0
 10 12  1  0
 11  9  1  0
 11 13  2  0
 12 19  1  0
 13 14  1  0
 14 12  2  0
 14 16  1  0
 15 13  1  0
 15 17  2  0
 17 18  1  0
 18 16  2  0
 19 20  1  0
 20 22  1  0
 21 19  1  0
 21 23  1  0
 23 24  1  0
 24 22  1  0
M  RAD  8   4   2   5   2   6   2   7   2  17   2  18   2  20   3  21   3
M  RAD  3  22   3  23   3  24   3
M  END
>  <REMARK>  (1) 
 SMILES Fc1ccc(Nc2nc(N3CCCCC3)c3nccnc3n2)cc1
 SMILES IDX 6 1 5 3 2 4 3 5 24 6 4 7 23 8 1 9 7 10 8 11 22 12 9 13 21 14
 SMILES IDX 16 15 20 16 17 17 19 18 18 19 10 20 11 21 15 22 12 23 14 24
 SMILES IDX 13 25
 H PARENT 6 2

>  <TORSDO>  (1) 
F 3

$$$$
