/home/pchatterjee/Documents/git/vs_workflow/DiffDock/diffdock_run/pdbqt_scrubbed/Z1013695804.pdbqt
     RDKit          3D

 24 27  0  0  0  0  0  0  0  0999 V2000
    7.0159   42.0861   48.7255 N   0  0  0  0  0  0  0  0  0  0  0  0
    5.7473   41.4732   48.5241 C   0  0  0  0  0  0  0  0  0  0  0  0
    3.2712   40.3193   48.2760 C   0  0  0  0  0  0  0  0  0  0  0  0
    4.0954   40.3570   47.1697 C   0  0  0  0  0  3  0  0  0  0  0  0
    3.6292   40.8337   49.5050 C   0  0  0  0  0  3  0  0  0  0  0  0
    5.3560   40.9482   47.3088 C   0  0  0  0  0  3  0  0  0  0  0  0
    4.8910   41.4211   49.6292 C   0  0  0  0  0  3  0  0  0  0  0  0
    2.0504   39.7535   48.1644 F   0  0  0  0  0  0  0  0  0  0  0  0
    7.2431   43.1995   49.5480 C   0  0  0  0  0  0  0  0  0  0  0  0
    6.2198   43.8759   50.1014 N   0  0  0  0  0  0  0  0  0  0  0  0
    8.5036   43.6017   49.7907 N   0  0  0  0  0  0  0  0  0  0  0  0
    6.3897   44.9470   50.8949 C   0  0  0  0  0  0  0  0  0  0  0  0
    8.7244   44.6848   50.5908 C   0  0  0  0  0  0  0  0  0  0  0  0
    7.6639   45.3670   51.1502 C   0  0  0  0  0  0  0  0  0  0  0  0
    9.9576   45.1303   50.8670 N   0  0  0  0  0  0  0  0  0  0  0  0
    7.8324   46.4369   51.9428 N   0  0  0  0  0  0  0  0  0  0  0  0
   10.1268   46.2125   51.6688 C   0  0  0  0  0  3  0  0  0  0  0  0
    9.0499   46.8857   52.2223 C   0  0  0  0  0  3  0  0  0  0  0  0
    5.2290   45.5768   51.4197 N   0  0  0  0  0  0  0  0  0  0  0  0
    3.9062   45.1805   50.9307 C   0  0  0  0  0  2  0  0  0  0  0  0
    5.2750   46.6128   52.4344 C   0  0  0  0  0  2  0  0  0  0  0  0
    2.9675   45.4131   52.1177 C   0  0  0  0  0  2  0  0  0  0  0  0
    4.7327   46.0499   53.7328 C   0  0  0  0  0  2  0  0  0  0  0  0
    3.6187   45.0745   53.4160 C   0  0  0  0  0  2  0  0  0  0  0  0
  1  2  1  0
  1  9  1  0
  2  7  2  0
  3  5  2  0
  4  6  2  0
  4  3  1  0
  5  7  1  0
  6  2  1  0
  8  3  1  0
  9 10  2  0
 10 12  1  0
 11  9  1  0
 11 13  2  0
 12 19  1  0
 13 14  1  0
 14 12  2  0
 14 16  1  0
 15 13  1  0
 15 17  2  0
 17 18  1  0
 18 16  2  0
 19 20  1  0
 20 22  1  0
 21 19  1  0
 21 23  1  0
 23 24  1  0
 24 22  1  0
M  RAD  8   4   2   5   2   6   2   7   2  17   2  18   2  20   3  21   3
M  RAD  3  22   3  23   3  24   3
M  END
>  <REMARK>  (1) 
 SMILES Fc1ccc(Nc2nc(N3CCCCC3)c3nccnc3n2)cc1
 SMILES IDX 6 1 5 3 2 4 3 5 24 6 4 7 23 8 1 9 7 10 8 11 22 12 9 13 21 14
 SMILES IDX 16 15 20 16 17 17 19 18 18 19 10 20 11 21 15 22 12 23 14 24
 SMILES IDX 13 25
 H PARENT 6 2

>  <TORSDO>  (1) 
F 3

$$$$
