/home/pchatterjee/Documents/git/vs_workflow/DiffDock/diffdock_run/pdbqt_scrubbed/Z1013695804.pdbqt
     RDKit          3D

 24 27  0  0  0  0  0  0  0  0999 V2000
    6.9415   42.4195   48.5783 N   0  0  0  0  0  0  0  0  0  0  0  0
    5.6883   41.7659   48.4108 C   0  0  0  0  0  0  0  0  0  0  0  0
    3.2489   40.5247   48.2308 C   0  0  0  0  0  0  0  0  0  0  0  0
    4.0085   40.6558   47.0861 C   0  0  0  0  0  3  0  0  0  0  0  0
    3.6541   40.9872   49.4657 C   0  0  0  0  0  3  0  0  0  0  0  0
    5.2510   41.2908   47.1907 C   0  0  0  0  0  3  0  0  0  0  0  0
    4.8971   41.6192   49.5552 C   0  0  0  0  0  3  0  0  0  0  0  0
    2.0465   39.9153   48.1530 F   0  0  0  0  0  0  0  0  0  0  0  0
    7.1853   43.4566   49.4909 C   0  0  0  0  0  0  0  0  0  0  0  0
    6.1719   44.1291   50.0667 N   0  0  0  0  0  0  0  0  0  0  0  0
    8.4521   43.7882   49.7989 N   0  0  0  0  0  0  0  0  0  0  0  0
    6.3577   45.1285   50.9455 C   0  0  0  0  0  0  0  0  0  0  0  0
    8.6891   44.7970   50.6866 C   0  0  0  0  0  0  0  0  0  0  0  0
    7.6385   45.4764   51.2679 C   0  0  0  0  0  0  0  0  0  0  0  0
    9.9292   45.1702   51.0306 N   0  0  0  0  0  0  0  0  0  0  0  0
    7.8230   46.4747   52.1456 N   0  0  0  0  0  0  0  0  0  0  0  0
   10.1145   46.1801   51.9185 C   0  0  0  0  0  3  0  0  0  0  0  0
    9.0474   46.8516   52.4927 C   0  0  0  0  0  3  0  0  0  0  0  0
    5.2061   45.7622   51.4854 N   0  0  0  0  0  0  0  0  0  0  0  0
    3.8868   45.4712   50.9192 C   0  0  0  0  0  2  0  0  0  0  0  0
    5.2584   46.7022   52.5894 C   0  0  0  0  0  2  0  0  0  0  0  0
    2.9153   45.6415   52.0903 C   0  0  0  0  0  2  0  0  0  0  0  0
    4.6447   46.0531   53.8137 C   0  0  0  0  0  2  0  0  0  0  0  0
    3.5027   45.1611   53.3742 C   0  0  0  0  0  2  0  0  0  0  0  0
  1  2  1  0
  1  9  1  0
  2  7  2  0
  3  5  2  0
  4  6  2  0
  4  3  1  0
  5  7  1  0
  6  2  1  0
  8  3  1  0
  9 10  2  0
 10 12  1  0
 11  9  1  0
 11 13  2  0
 12 19  1  0
 13 14  1  0
 14 12  2  0
 14 16  1  0
 15 13  1  0
 15 17  2  0
 17 18  1  0
 18 16  2  0
 19 20  1  0
 20 22  1  0
 21 19  1  0
 21 23  1  0
 23 24  1  0
 24 22  1  0
M  RAD  8   4   2   5   2   6   2   7   2  17   2  18   2  20   3  21   3
M  RAD  3  22   3  23   3  24   3
M  END
>  <REMARK>  (1) 
 SMILES Fc1ccc(Nc2nc(N3CCCCC3)c3nccnc3n2)cc1
 SMILES IDX 6 1 5 3 2 4 3 5 24 6 4 7 23 8 1 9 7 10 8 11 22 12 9 13 21 14
 SMILES IDX 16 15 20 16 17 17 19 18 18 19 10 20 11 21 15 22 12 23 14 24
 SMILES IDX 13 25
 H PARENT 6 2

>  <TORSDO>  (1) 
F 3

$$$$
