/home/pchatterjee/Documents/git/vs_workflow/DiffDock/diffdock_run/pdbqt_scrubbed/Z1013695804.pdbqt
     RDKit          3D

 24 27  0  0  0  0  0  0  0  0999 V2000
    6.8981   42.2327   48.7461 N   0  0  0  0  0  0  0  0  0  0  0  0
    5.6146   41.6499   48.5497 C   0  0  0  0  0  0  0  0  0  0  0  0
    3.1805   40.4950   48.0343 C   0  0  0  0  0  0  0  0  0  0  0  0
    3.4080   41.0229   49.2890 C   0  0  0  0  0  3  0  0  0  0  0  0
    4.1173   40.5181   47.0219 C   0  0  0  0  0  3  0  0  0  0  0  0
    4.6535   41.6093   49.5397 C   0  0  0  0  0  3  0  0  0  0  0  0
    5.3566   41.1068   47.2865 C   0  0  0  0  0  3  0  0  0  0  0  0
    1.9857   39.9243   47.7704 F   0  0  0  0  0  0  0  0  0  0  0  0
    7.1555   43.3371   49.5718 C   0  0  0  0  0  0  0  0  0  0  0  0
    6.1513   44.0323   50.1367 N   0  0  0  0  0  0  0  0  0  0  0  0
    8.4262   43.7115   49.8059 N   0  0  0  0  0  0  0  0  0  0  0  0
    6.3502   45.0958   50.9337 C   0  0  0  0  0  0  0  0  0  0  0  0
    8.6763   44.7859   50.6091 C   0  0  0  0  0  0  0  0  0  0  0  0
    7.6351   45.4877   51.1805 C   0  0  0  0  0  0  0  0  0  0  0  0
    9.9209   45.2039   50.8772 N   0  0  0  0  0  0  0  0  0  0  0  0
    7.8326   46.5499   51.9765 N   0  0  0  0  0  0  0  0  0  0  0  0
   10.1194   46.2785   51.6826 C   0  0  0  0  0  3  0  0  0  0  0  0
    9.0615   46.9716   52.2480 C   0  0  0  0  0  3  0  0  0  0  0  0
    5.2074   45.7474   51.4710 N   0  0  0  0  0  0  0  0  0  0  0  0
    3.8788   45.4356   50.9386 C   0  0  0  0  0  2  0  0  0  0  0  0
    5.2777   46.7257   52.5401 C   0  0  0  0  0  2  0  0  0  0  0  0
    2.9276   45.6465   52.1197 C   0  0  0  0  0  2  0  0  0  0  0  0
    4.6862   46.1198   53.7970 C   0  0  0  0  0  2  0  0  0  0  0  0
    3.5379   45.2121   53.4093 C   0  0  0  0  0  2  0  0  0  0  0  0
  1  2  1  0
  1  9  1  0
  2  7  2  0
  3  5  2  0
  4  6  2  0
  4  3  1  0
  5  7  1  0
  6  2  1  0
  8  3  1  0
  9 10  2  0
 10 12  1  0
 11  9  1  0
 11 13  2  0
 12 19  1  0
 13 14  1  0
 14 12  2  0
 14 16  1  0
 15 13  1  0
 15 17  2  0
 17 18  1  0
 18 16  2  0
 19 20  1  0
 20 22  1  0
 21 19  1  0
 21 23  1  0
 23 24  1  0
 24 22  1  0
M  RAD  8   4   2   5   2   6   2   7   2  17   2  18   2  20   3  21   3
M  RAD  3  22   3  23   3  24   3
M  END
>  <REMARK>  (1) 
 SMILES Fc1ccc(Nc2nc(N3CCCCC3)c3nccnc3n2)cc1
 SMILES IDX 6 1 5 3 2 4 3 5 24 6 4 7 23 8 1 9 7 10 8 11 22 12 9 13 21 14
 SMILES IDX 16 15 20 16 17 17 19 18 18 19 10 20 11 21 15 22 12 23 14 24
 SMILES IDX 13 25
 H PARENT 6 2

>  <TORSDO>  (1) 
F 3

$$$$
