/home/pchatterjee/Documents/git/vs_workflow/DiffDock/diffdock_run/pdbqt_scrubbed/Z1013695804.pdbqt
     RDKit          3D

 24 27  0  0  0  0  0  0  0  0999 V2000
 2336.6382 8204.1221 2359.8875 N   0  0  0  0  0  0  0  0  0  0  0  0
 2335.4028 8204.1699 2360.5969 C   0  0  0  0  0  0  0  0  0  0  0  0
 2333.0334 8204.4072 2361.9512 C   0  0  0  0  0  0  0  0  0  0  0  0
 2333.5605 8203.1416 2361.7605 C   0  0  0  0  0  3  0  0  0  0  0  0
 2333.6384 8205.5557 2361.4954 C   0  0  0  0  0  3  0  0  0  0  0  0
 2334.7712 8203.0361 2361.0676 C   0  0  0  0  0  3  0  0  0  0  0  0
 2334.8474 8205.4365 2360.8052 C   0  0  0  0  0  3  0  0  0  0  0  0
 2331.8638 8204.5332 2362.6169 F   0  0  0  0  0  0  0  0  0  0  0  0
 2337.8789 8203.8223 2360.4636 C   0  0  0  0  0  0  0  0  0  0  0  0
 2338.4092 8204.6035 2361.4236 N   0  0  0  0  0  0  0  0  0  0  0  0
 2338.5574 8202.7314 2360.0574 N   0  0  0  0  0  0  0  0  0  0  0  0
 2339.5967 8204.3516 2362.0027 C   0  0  0  0  0  0  0  0  0  0  0  0
 2339.7637 8202.4375 2360.6189 C   0  0  0  0  0  0  0  0  0  0  0  0
 2340.2935 8203.2510 2361.6006 C   0  0  0  0  0  0  0  0  0  0  0  0
 2340.4832 8201.3643 2360.2554 N   0  0  0  0  0  0  0  0  0  0  0  0
 2341.4785 8203.0010 2362.1816 N   0  0  0  0  0  0  0  0  0  0  0  0
 2341.6797 8201.1152 2360.8435 C   0  0  0  0  0  3  0  0  0  0  0  0
 2342.1970 8201.9443 2361.8276 C   0  0  0  0  0  3  0  0  0  0  0  0
 2340.0498 8205.2529 2363.0039 N   0  0  0  0  0  0  0  0  0  0  0  0
 2339.2134 8205.5137 2364.1777 C   0  0  0  0  0  2  0  0  0  0  0  0
 2341.3196 8205.9492 2362.9307 C   0  0  0  0  0  2  0  0  0  0  0  0
 2340.2063 8205.8340 2365.3015 C   0  0  0  0  0  2  0  0  0  0  0  0
 2342.2507 8205.3770 2363.9792 C   0  0  0  0  0  2  0  0  0  0  0  0
 2341.4412 8205.0000 2365.2036 C   0  0  0  0  0  2  0  0  0  0  0  0
  1  2  1  0
  1  9  1  0
  2  7  2  0
  3  5  2  0
  4  6  2  0
  4  3  1  0
  5  7  1  0
  6  2  1  0
  8  3  1  0
  9 10  2  0
 10 12  1  0
 11  9  1  0
 11 13  2  0
 12 19  1  0
 13 14  1  0
 14 12  2  0
 14 16  1  0
 15 13  1  0
 15 17  2  0
 17 18  1  0
 18 16  2  0
 19 20  1  0
 20 22  1  0
 21 19  1  0
 21 23  1  0
 23 24  1  0
 24 22  1  0
M  RAD  8   4   2   5   2   6   2   7   2  17   2  18   2  20   3  21   3
M  RAD  3  22   3  23   3  24   3
M  END
>  <REMARK>  (1) 
 SMILES Fc1ccc(Nc2nc(N3CCCCC3)c3nccnc3n2)cc1
 SMILES IDX 6 1 5 3 2 4 3 5 24 6 4 7 23 8 1 9 7 10 8 11 22 12 9 13 21 14
 SMILES IDX 16 15 20 16 17 17 19 18 18 19 10 20 11 21 15 22 12 23 14 24
 SMILES IDX 13 25
 H PARENT 6 2

>  <TORSDO>  (1) 
F 3

$$$$
