/home/pchatterjee/Documents/git/vs_workflow/DiffDock/diffdock_run/pdbqt_scrubbed/5329564.pdbqt
     RDKit          3D

 28 31  0  0  1  0  0  0  0  0999 V2000
    7.7264   43.4241   49.3592 C   0  0  0  0  0  0  0  0  0  0  0  0
    6.7155   43.9555   50.1952 N   0  0  0  0  0  0  0  0  0  0  0  0
    7.0089   44.9227   51.0216 C   0  0  0  0  0  0  0  0  0  0  0  0
    8.3028   45.4636   51.0849 C   0  0  0  0  0  3  0  0  0  0  0  0
    8.9493   45.9519   52.2240 N   0  0  0  0  0  0  0  0  0  0  0  0
   10.2401   46.3949   51.6264 C   0  0  0  0  0  2  0  0  0  0  0  0
   10.4524   45.4054   50.5829 N   0  0  0  0  0  0  0  0  0  0  0  0
    9.3204   44.8504   50.2589 C   0  0  0  0  0  0  0  0  0  0  0  0
    8.9526   43.8163   49.3531 N   0  0  0  0  0  0  0  0  0  0  0  0
    7.3830   42.3785   48.4511 N   0  0  0  0  0  0  0  0  0  0  0  0
    6.0891   41.7483   48.4844 C   0  0  0  0  0  0  0  0  0  0  0  0
    3.6115   40.5100   48.4963 C   0  0  0  0  0  0  0  0  0  0  0  0
    4.4915   40.2992   47.4281 C   0  0  0  0  0  3  0  0  0  0  0  0
    3.9701   41.3328   49.5469 C   0  0  0  0  0  3  0  0  0  0  0  0
    5.7420   40.9287   47.4296 C   0  0  0  0  0  3  0  0  0  0  0  0
    5.2178   41.9667   49.5577 C   0  0  0  0  0  3  0  0  0  0  0  0
    2.0591   39.6995   48.4471 S   0  0  2  0  0  0  0  0  0  0  0  0
    0.7669   40.7582   49.0571 C   0  0  0  0  0  1  0  0  0  0  0  0
    2.0641   38.4857   49.3623 O   0  0  0  0  0  0  0  0  0  0  0  0
    1.7351   39.2201   47.0813 O   0  0  0  0  0  0  0  0  0  0  0  0
    5.9736   45.4039   51.8335 O   0  0  0  0  0  0  0  0  0  0  0  0
    4.8060   44.6207   51.9563 C   0  0  0  0  0  2  0  0  0  0  0  0
    3.6527   45.3084   52.5991 C   0  0  0  0  0  3  0  0  0  0  0  0
    3.5242   45.0551   54.0857 C   0  0  0  0  0  2  0  0  0  0  0  0
    3.5304   46.7773   52.2692 C   0  0  0  0  0  2  0  0  0  0  0  0
    4.2951   46.0593   54.8959 C   0  0  0  0  0  2  0  0  0  0  0  0
    2.8452   47.4842   53.4380 C   0  0  0  0  0  2  0  0  0  0  0  0
    3.8006   47.4576   54.5982 C   0  0  0  0  0  2  0  0  0  0  0  0
  1  2  1  0
  2  3  2  0
  3 21  1  0
  4  8  1  0
  4  3  1  0
  4  5  1  0
  6  5  1  0
  7  6  1  0
  8  7  2  0
  9  1  2  0
  9  8  1  0
 10  1  1  0
 11 10  1  0
 11 16  2  0
 12 14  2  0
 13 15  2  0
 13 12  1  0
 14 16  1  0
 15 11  1  0
 17 18  1  1
 17 19  2  0
 17 12  1  0
 20 17  2  0
 21 22  1  0
 22 23  1  0
 23 25  1  0
 24 23  1  0
 26 24  1  0
 26 28  1  0
 27 25  1  0
 28 27  1  0
M  RAD  8   4   2   6   3  13   2  14   2  15   2  16   2  18   2  22   3
M  RAD  6  23   2  24   3  25   3  26   3  27   3  28   3
M  END
>  <REMARK>  (1) 
 SMILES CS(=O)(=O)c1ccc(Nc2nc(OCC3CCCCC3)c3[nH]cnc3n2)cc1
 SMILES IDX 10 1 11 2 12 3 21 4 22 5 23 6 24 7 25 8 26 9 9 11 8 13 5 14
 SMILES IDX 6 15 28 16 7 17 27 18 2 19 1 20 3 21 4 22 13 23 14 24 15 25
 SMILES IDX 16 26 20 27 17 28 19 29 18 30
 H PARENT 22 10 9 12

>  <TORSDO>  (1) 
F 6

$$$$
