/home/pchatterjee/Documents/git/vs_workflow/DiffDock/diffdock_run/pdbqt_scrubbed/5329564.pdbqt
     RDKit          3D

 28 31  0  0  1  0  0  0  0  0999 V2000
    7.7270   43.7651   49.5151 C   0  0  0  0  0  0  0  0  0  0  0  0
    6.7265   44.2701   50.3794 N   0  0  0  0  0  0  0  0  0  0  0  0
    7.0357   45.1942   51.2482 C   0  0  0  0  0  0  0  0  0  0  0  0
    8.3368   45.7149   51.3305 C   0  0  0  0  0  3  0  0  0  0  0  0
    8.9943   46.1416   52.4880 N   0  0  0  0  0  0  0  0  0  0  0  0
   10.2883   46.5951   51.9056 C   0  0  0  0  0  2  0  0  0  0  0  0
   10.4835   45.6524   50.8165 N   0  0  0  0  0  0  0  0  0  0  0  0
    9.3431   45.1275   50.4725 C   0  0  0  0  0  0  0  0  0  0  0  0
    8.9581   44.1413   49.5214 N   0  0  0  0  0  0  0  0  0  0  0  0
    7.3664   42.7671   48.5612 N   0  0  0  0  0  0  0  0  0  0  0  0
    6.1061   42.0753   48.6365 C   0  0  0  0  0  0  0  0  0  0  0  0
    3.6906   40.7229   48.7268 C   0  0  0  0  0  0  0  0  0  0  0  0
    4.4968   40.6353   47.5857 C   0  0  0  0  0  3  0  0  0  0  0  0
    4.0914   41.4805   49.8107 C   0  0  0  0  0  3  0  0  0  0  0  0
    5.7163   41.3218   47.5479 C   0  0  0  0  0  3  0  0  0  0  0  0
    5.3087   42.1705   49.7828 C   0  0  0  0  0  3  0  0  0  0  0  0
    2.1743   39.8454   48.7244 S   0  0  2  0  0  0  0  0  0  0  0  0
    0.9258   40.7262   49.6344 C   0  0  0  0  0  1  0  0  0  0  0  0
    2.3329   38.5085   49.4302 O   0  0  0  0  0  0  0  0  0  0  0  0
    1.7078   39.5628   47.3449 O   0  0  0  0  0  0  0  0  0  0  0  0
    6.0100   45.6506   52.0862 O   0  0  0  0  0  0  0  0  0  0  0  0
    5.1558   44.6932   52.6737 C   0  0  0  0  0  2  0  0  0  0  0  0
    3.7861   44.6330   52.0935 C   0  0  0  0  0  3  0  0  0  0  0  0
    2.7549   43.9861   52.9928 C   0  0  0  0  0  2  0  0  0  0  0  0
    3.2870   45.9372   51.5178 C   0  0  0  0  0  2  0  0  0  0  0  0
    2.0921   44.9860   53.8985 C   0  0  0  0  0  2  0  0  0  0  0  0
    1.7624   45.9634   51.6193 C   0  0  0  0  0  2  0  0  0  0  0  0
    1.4135   46.0608   53.0783 C   0  0  0  0  0  2  0  0  0  0  0  0
  1  2  1  0
  2  3  2  0
  3 21  1  0
  4  8  1  0
  4  3  1  0
  4  5  1  0
  6  5  1  0
  7  6  1  0
  8  7  2  0
  9  1  2  0
  9  8  1  0
 10  1  1  0
 11 10  1  0
 11 16  2  0
 12 14  2  0
 13 15  2  0
 13 12  1  0
 14 16  1  0
 15 11  1  0
 17 18  1  1
 17 19  2  0
 17 12  1  0
 20 17  2  0
 21 22  1  0
 22 23  1  0
 23 25  1  0
 24 23  1  0
 26 24  1  0
 26 28  1  0
 27 25  1  0
 28 27  1  0
M  RAD  8   4   2   6   3  13   2  14   2  15   2  16   2  18   2  22   3
M  RAD  6  23   2  24   3  25   3  26   3  27   3  28   3
M  END
>  <REMARK>  (1) 
 SMILES CS(=O)(=O)c1ccc(Nc2nc(OCC3CCCCC3)c3[nH]cnc3n2)cc1
 SMILES IDX 10 1 11 2 12 3 21 4 22 5 23 6 24 7 25 8 26 9 9 11 8 13 5 14
 SMILES IDX 6 15 28 16 7 17 27 18 2 19 1 20 3 21 4 22 13 23 14 24 15 25
 SMILES IDX 16 26 20 27 17 28 19 29 18 30
 H PARENT 22 10 9 12

>  <TORSDO>  (1) 
F 6

$$$$
