/home/pchatterjee/Documents/git/vs_workflow/DiffDock/diffdock_run/pdbqt_scrubbed/5329564.pdbqt
     RDKit          3D

 28 31  0  0  1  0  0  0  0  0999 V2000
    7.9494   43.5330   49.4558 C   0  0  0  0  0  0  0  0  0  0  0  0
    6.8879   44.1470   50.1623 N   0  0  0  0  0  0  0  0  0  0  0  0
    7.1502   45.1059   51.0085 C   0  0  0  0  0  0  0  0  0  0  0  0
    8.4627   45.5577   51.2184 C   0  0  0  0  0  3  0  0  0  0  0  0
    9.0048   46.0200   52.4210 N   0  0  0  0  0  0  0  0  0  0  0  0
   10.3844   46.3628   51.9752 C   0  0  0  0  0  2  0  0  0  0  0  0
   10.6467   45.3432   50.9730 N   0  0  0  0  0  0  0  0  0  0  0  0
    9.5240   44.8617   50.5234 C   0  0  0  0  0  0  0  0  0  0  0  0
    9.1925   43.8399   49.5901 N   0  0  0  0  0  0  0  0  0  0  0  0
    7.6416   42.4979   48.5232 N   0  0  0  0  0  0  0  0  0  0  0  0
    6.3406   41.8826   48.4850 C   0  0  0  0  0  0  0  0  0  0  0  0
    3.8256   40.7223   48.4648 C   0  0  0  0  0  0  0  0  0  0  0  0
    4.2264   41.4996   49.5579 C   0  0  0  0  0  3  0  0  0  0  0  0
    4.6768   40.5289   47.3936 C   0  0  0  0  0  3  0  0  0  0  0  0
    5.4992   42.0827   49.5605 C   0  0  0  0  0  3  0  0  0  0  0  0
    5.9512   41.1075   47.3866 C   0  0  0  0  0  3  0  0  0  0  0  0
    2.2236   40.0147   48.5099 S   0  0  2  0  0  0  0  0  0  0  0  0
    1.0070   41.2197   48.9899 C   0  0  0  0  0  1  0  0  0  0  0  0
    2.1560   38.9191   49.5615 O   0  0  0  0  0  0  0  0  0  0  0  0
    1.8600   39.4004   47.2096 O   0  0  0  0  0  0  0  0  0  0  0  0
    6.0638   45.6712   51.6887 O   0  0  0  0  0  0  0  0  0  0  0  0
    4.9209   44.8703   51.8984 C   0  0  0  0  0  2  0  0  0  0  0  0
    4.0209   45.3330   52.9902 C   0  0  0  0  0  3  0  0  0  0  0  0
    3.4374   46.7130   52.7758 C   0  0  0  0  0  2  0  0  0  0  0  0
    2.9633   44.3361   53.4011 C   0  0  0  0  0  2  0  0  0  0  0  0
    2.1384   46.6632   52.0213 C   0  0  0  0  0  2  0  0  0  0  0  0
    1.7538   45.1011   53.9371 C   0  0  0  0  0  2  0  0  0  0  0  0
    1.1311   45.8231   52.7749 C   0  0  0  0  0  2  0  0  0  0  0  0
  1  2  1  0
  2  3  2  0
  3 21  1  0
  4  8  1  0
  4  3  1  0
  4  5  1  0
  6  5  1  0
  7  6  1  0
  8  7  2  0
  9  1  2  0
  9  8  1  0
 10  1  1  0
 11 10  1  0
 11 16  2  0
 12 14  2  0
 13 15  2  0
 13 12  1  0
 14 16  1  0
 15 11  1  0
 17 18  1  1
 17 19  2  0
 17 12  1  0
 20 17  2  0
 21 22  1  0
 22 23  1  0
 23 25  1  0
 24 23  1  0
 26 24  1  0
 26 28  1  0
 27 25  1  0
 28 27  1  0
M  RAD  8   4   2   6   3  13   2  14   2  15   2  16   2  18   2  22   3
M  RAD  6  23   2  24   3  25   3  26   3  27   3  28   3
M  END
>  <REMARK>  (1) 
 SMILES CS(=O)(=O)c1ccc(Nc2nc(OCC3CCCCC3)c3[nH]cnc3n2)cc1
 SMILES IDX 10 1 11 2 12 3 21 4 22 5 23 6 24 7 25 8 26 9 9 11 8 13 5 14
 SMILES IDX 6 15 28 16 7 17 27 18 2 19 1 20 3 21 4 22 13 23 14 24 15 25
 SMILES IDX 16 26 20 27 17 28 19 29 18 30
 H PARENT 22 10 9 12

>  <TORSDO>  (1) 
F 6

$$$$
