/home/pchatterjee/Documents/git/vs_workflow/DiffDock/diffdock_run/pdbqt_scrubbed/5329564.pdbqt
     RDKit          3D

 28 31  0  0  1  0  0  0  0  0999 V2000
    7.7461   43.7012   49.3520 C   0  0  0  0  0  0  0  0  0  0  0  0
    6.7744   44.1833   50.2610 N   0  0  0  0  0  0  0  0  0  0  0  0
    7.1066   45.1003   51.1288 C   0  0  0  0  0  0  0  0  0  0  0  0
    8.4037   45.6359   51.1670 C   0  0  0  0  0  3  0  0  0  0  0  0
    9.1009   46.0562   52.3033 N   0  0  0  0  0  0  0  0  0  0  0  0
   10.3658   46.5327   51.6767 C   0  0  0  0  0  2  0  0  0  0  0  0
   10.5291   45.6059   50.5689 N   0  0  0  0  0  0  0  0  0  0  0  0
    9.3824   45.0714   50.2629 C   0  0  0  0  0  0  0  0  0  0  0  0
    8.9721   44.0924   49.3151 N   0  0  0  0  0  0  0  0  0  0  0  0
    7.3601   42.7107   48.4002 N   0  0  0  0  0  0  0  0  0  0  0  0
    6.1192   41.9916   48.5244 C   0  0  0  0  0  0  0  0  0  0  0  0
    3.7274   40.6262   48.8199 C   0  0  0  0  0  0  0  0  0  0  0  0
    4.2565   41.3476   49.8967 C   0  0  0  0  0  3  0  0  0  0  0  0
    4.3906   40.5900   47.6081 C   0  0  0  0  0  3  0  0  0  0  0  0
    5.4658   42.0350   49.7393 C   0  0  0  0  0  3  0  0  0  0  0  0
    5.6002   41.2740   47.4407 C   0  0  0  0  0  3  0  0  0  0  0  0
    2.2118   39.7833   49.0678 S   0  0  2  0  0  0  0  0  0  0  0  0
    0.9560   40.8911   49.6667 C   0  0  0  0  0  1  0  0  0  0  0  0
    2.3661   38.7167   50.1399 O   0  0  0  0  0  0  0  0  0  0  0  0
    1.7557   39.1025   47.8314 O   0  0  0  0  0  0  0  0  0  0  0  0
    6.1092   45.5339   52.0120 O   0  0  0  0  0  0  0  0  0  0  0  0
    5.2010   44.5761   52.5113 C   0  0  0  0  0  2  0  0  0  0  0  0
    3.7705   44.8431   52.1977 C   0  0  0  0  0  3  0  0  0  0  0  0
    2.7994   44.3634   53.2549 C   0  0  0  0  0  2  0  0  0  0  0  0
    3.4730   46.2598   51.7664 C   0  0  0  0  0  2  0  0  0  0  0  0
    2.5411   45.4133   54.2991 C   0  0  0  0  0  2  0  0  0  0  0  0
    2.0333   46.5954   52.1537 C   0  0  0  0  0  2  0  0  0  0  0  0
    1.9782   46.6606   53.6545 C   0  0  0  0  0  2  0  0  0  0  0  0
  1  2  1  0
  2  3  2  0
  3 21  1  0
  4  8  1  0
  4  3  1  0
  4  5  1  0
  6  5  1  0
  7  6  1  0
  8  7  2  0
  9  1  2  0
  9  8  1  0
 10  1  1  0
 11 10  1  0
 11 16  2  0
 12 14  2  0
 13 15  2  0
 13 12  1  0
 14 16  1  0
 15 11  1  0
 17 18  1  1
 17 19  2  0
 17 12  1  0
 20 17  2  0
 21 22  1  0
 22 23  1  0
 23 25  1  0
 24 23  1  0
 26 24  1  0
 26 28  1  0
 27 25  1  0
 28 27  1  0
M  RAD  8   4   2   6   3  13   2  14   2  15   2  16   2  18   2  22   3
M  RAD  6  23   2  24   3  25   3  26   3  27   3  28   3
M  END
>  <REMARK>  (1) 
 SMILES CS(=O)(=O)c1ccc(Nc2nc(OCC3CCCCC3)c3[nH]cnc3n2)cc1
 SMILES IDX 10 1 11 2 12 3 21 4 22 5 23 6 24 7 25 8 26 9 9 11 8 13 5 14
 SMILES IDX 6 15 28 16 7 17 27 18 2 19 1 20 3 21 4 22 13 23 14 24 15 25
 SMILES IDX 16 26 20 27 17 28 19 29 18 30
 H PARENT 22 10 9 12

>  <TORSDO>  (1) 
F 6

$$$$
