/home/pchatterjee/Documents/git/vs_workflow/DiffDock/diffdock_run/pdbqt_scrubbed/5329564.pdbqt
     RDKit          3D

 28 31  0  0  1  0  0  0  0  0999 V2000
    7.7830   43.5163   49.5108 C   0  0  0  0  0  0  0  0  0  0  0  0
    6.7127   43.9757   50.3149 N   0  0  0  0  0  0  0  0  0  0  0  0
    6.9188   44.9448   51.1650 C   0  0  0  0  0  0  0  0  0  0  0  0
    8.1761   45.5577   51.2850 C   0  0  0  0  0  3  0  0  0  0  0  0
    8.7505   46.0639   52.4545 N   0  0  0  0  0  0  0  0  0  0  0  0
   10.0350   46.5894   51.9127 C   0  0  0  0  0  2  0  0  0  0  0  0
   10.3427   45.6304   50.8646 N   0  0  0  0  0  0  0  0  0  0  0  0
    9.2575   45.0168   50.4901 C   0  0  0  0  0  0  0  0  0  0  0  0
    8.9839   43.9779   49.5568 N   0  0  0  0  0  0  0  0  0  0  0  0
    7.5347   42.4673   48.5760 N   0  0  0  0  0  0  0  0  0  0  0  0
    6.2781   41.7652   48.5499 C   0  0  0  0  0  0  0  0  0  0  0  0
    3.8461   40.4396   48.5515 C   0  0  0  0  0  0  0  0  0  0  0  0
    4.1732   41.2981   49.6078 C   0  0  0  0  0  3  0  0  0  0  0  0
    4.7289   40.2480   47.5059 C   0  0  0  0  0  3  0  0  0  0  0  0
    5.4044   41.9644   49.5996 C   0  0  0  0  0  3  0  0  0  0  0  0
    5.9622   40.9095   47.4884 C   0  0  0  0  0  3  0  0  0  0  0  0
    2.2936   39.6297   48.6087 S   0  0  2  0  0  0  0  0  0  0  0  0
    1.1342   40.5419   49.6018 C   0  0  0  0  0  1  0  0  0  0  0  0
    2.4277   38.2703   49.2754 O   0  0  0  0  0  0  0  0  0  0  0  0
    1.7451   39.4017   47.2495 O   0  0  0  0  0  0  0  0  0  0  0  0
    5.8279   45.3532   51.9433 O   0  0  0  0  0  0  0  0  0  0  0  0
    4.7885   44.4259   52.1699 C   0  0  0  0  0  2  0  0  0  0  0  0
    3.4468   45.0291   52.3978 C   0  0  0  0  0  3  0  0  0  0  0  0
    2.9284   44.8828   53.8123 C   0  0  0  0  0  2  0  0  0  0  0  0
    3.2967   46.4439   51.8906 C   0  0  0  0  0  2  0  0  0  0  0  0
    3.3522   46.0288   54.6878 C   0  0  0  0  0  2  0  0  0  0  0  0
    2.2532   47.1608   52.7464 C   0  0  0  0  0  2  0  0  0  0  0  0
    2.8433   47.3344   54.1181 C   0  0  0  0  0  2  0  0  0  0  0  0
  1  2  1  0
  2  3  2  0
  3 21  1  0
  4  8  1  0
  4  3  1  0
  4  5  1  0
  6  5  1  0
  7  6  1  0
  8  7  2  0
  9  1  2  0
  9  8  1  0
 10  1  1  0
 11 10  1  0
 11 16  2  0
 12 14  2  0
 13 15  2  0
 13 12  1  0
 14 16  1  0
 15 11  1  0
 17 18  1  1
 17 19  2  0
 17 12  1  0
 20 17  2  0
 21 22  1  0
 22 23  1  0
 23 25  1  0
 24 23  1  0
 26 24  1  0
 26 28  1  0
 27 25  1  0
 28 27  1  0
M  RAD  8   4   2   6   3  13   2  14   2  15   2  16   2  18   2  22   3
M  RAD  6  23   2  24   3  25   3  26   3  27   3  28   3
M  END
>  <REMARK>  (1) 
 SMILES CS(=O)(=O)c1ccc(Nc2nc(OCC3CCCCC3)c3[nH]cnc3n2)cc1
 SMILES IDX 10 1 11 2 12 3 21 4 22 5 23 6 24 7 25 8 26 9 9 11 8 13 5 14
 SMILES IDX 6 15 28 16 7 17 27 18 2 19 1 20 3 21 4 22 13 23 14 24 15 25
 SMILES IDX 16 26 20 27 17 28 19 29 18 30
 H PARENT 22 10 9 12

>  <TORSDO>  (1) 
F 6

$$$$
