/home/pchatterjee/Documents/git/vs_workflow/DiffDock/diffdock_run/pdbqt_scrubbed/5329564.pdbqt
     RDKit          3D

 28 31  0  0  1  0  0  0  0  0999 V2000
    7.9228   43.7504   49.3975 C   0  0  0  0  0  0  0  0  0  0  0  0
    6.8768   44.4274   50.0688 N   0  0  0  0  0  0  0  0  0  0  0  0
    7.1507   45.4885   50.7783 C   0  0  0  0  0  0  0  0  0  0  0  0
    8.4596   45.9871   50.8735 C   0  0  0  0  0  3  0  0  0  0  0  0
    9.0394   46.6049   51.9853 N   0  0  0  0  0  0  0  0  0  0  0  0
   10.3909   46.9154   51.4410 C   0  0  0  0  0  2  0  0  0  0  0  0
   10.6361   45.7845   50.5613 N   0  0  0  0  0  0  0  0  0  0  0  0
    9.5077   45.2302   50.2238 C   0  0  0  0  0  0  0  0  0  0  0  0
    9.1627   44.0946   49.4387 N   0  0  0  0  0  0  0  0  0  0  0  0
    7.6018   42.6022   48.6137 N   0  0  0  0  0  0  0  0  0  0  0  0
    6.3009   41.9887   48.6763 C   0  0  0  0  0  0  0  0  0  0  0  0
    3.8108   40.7779   48.7475 C   0  0  0  0  0  0  0  0  0  0  0  0
    4.7097   40.4644   47.7211 C   0  0  0  0  0  3  0  0  0  0  0  0
    4.1568   41.6886   49.7274 C   0  0  0  0  0  3  0  0  0  0  0  0
    5.9664   41.0807   47.6922 C   0  0  0  0  0  3  0  0  0  0  0  0
    5.4107   42.3102   49.7074 C   0  0  0  0  0  3  0  0  0  0  0  0
    2.2513   39.9796   48.7389 S   0  0  2  0  0  0  0  0  0  0  0  0
    1.0008   41.0142   49.4660 C   0  0  0  0  0  1  0  0  0  0  0  0
    2.2932   38.7221   49.5918 O   0  0  0  0  0  0  0  0  0  0  0  0
    1.8537   39.5703   47.3696 O   0  0  0  0  0  0  0  0  0  0  0  0
    6.0799   46.1135   51.4305 O   0  0  0  0  0  0  0  0  0  0  0  0
    4.9662   45.3235   51.7873 C   0  0  0  0  0  2  0  0  0  0  0  0
    4.2058   45.8078   52.9720 C   0  0  0  0  0  3  0  0  0  0  0  0
    3.1160   46.8071   52.6486 C   0  0  0  0  0  2  0  0  0  0  0  0
    3.7101   44.7176   53.8923 C   0  0  0  0  0  2  0  0  0  0  0  0
    1.8048   46.1336   52.3545 C   0  0  0  0  0  2  0  0  0  0  0  0
    2.4414   45.2072   54.5894 C   0  0  0  0  0  2  0  0  0  0  0  0
    1.3667   45.3066   53.5430 C   0  0  0  0  0  2  0  0  0  0  0  0
  1  2  1  0
  2  3  2  0
  3 21  1  0
  4  8  1  0
  4  3  1  0
  4  5  1  0
  6  5  1  0
  7  6  1  0
  8  7  2  0
  9  1  2  0
  9  8  1  0
 10  1  1  0
 11 10  1  0
 11 16  2  0
 12 14  2  0
 13 15  2  0
 13 12  1  0
 14 16  1  0
 15 11  1  0
 17 18  1  1
 17 19  2  0
 17 12  1  0
 20 17  2  0
 21 22  1  0
 22 23  1  0
 23 25  1  0
 24 23  1  0
 26 24  1  0
 26 28  1  0
 27 25  1  0
 28 27  1  0
M  RAD  8   4   2   6   3  13   2  14   2  15   2  16   2  18   2  22   3
M  RAD  6  23   2  24   3  25   3  26   3  27   3  28   3
M  END
>  <REMARK>  (1) 
 SMILES CS(=O)(=O)c1ccc(Nc2nc(OCC3CCCCC3)c3[nH]cnc3n2)cc1
 SMILES IDX 10 1 11 2 12 3 21 4 22 5 23 6 24 7 25 8 26 9 9 11 8 13 5 14
 SMILES IDX 6 15 28 16 7 17 27 18 2 19 1 20 3 21 4 22 13 23 14 24 15 25
 SMILES IDX 16 26 20 27 17 28 19 29 18 30
 H PARENT 22 10 9 12

>  <TORSDO>  (1) 
F 6

$$$$
