/home/pchatterjee/Documents/git/vs_workflow/DiffDock/diffdock_run/pdbqt_scrubbed/5329564.pdbqt
     RDKit          3D

 28 31  0  0  1  0  0  0  0  0999 V2000
    7.9152   43.6493   49.5741 C   0  0  0  0  0  0  0  0  0  0  0  0
    6.9130   44.2657   50.3605 N   0  0  0  0  0  0  0  0  0  0  0  0
    7.2261   45.2819   51.1179 C   0  0  0  0  0  0  0  0  0  0  0  0
    8.5335   45.7921   51.1539 C   0  0  0  0  0  3  0  0  0  0  0  0
    9.1846   46.3440   52.2608 N   0  0  0  0  0  0  0  0  0  0  0  0
   10.4911   46.7089   51.6448 C   0  0  0  0  0  2  0  0  0  0  0  0
   10.6843   45.6417   50.6770 N   0  0  0  0  0  0  0  0  0  0  0  0
    9.5403   45.0945   50.3835 C   0  0  0  0  0  0  0  0  0  0  0  0
    9.1515   44.0079   49.5509 N   0  0  0  0  0  0  0  0  0  0  0  0
    7.5507   42.5503   48.7403 N   0  0  0  0  0  0  0  0  0  0  0  0
    6.2482   41.9427   48.8238 C   0  0  0  0  0  0  0  0  0  0  0  0
    3.7538   40.7438   48.9345 C   0  0  0  0  0  0  0  0  0  0  0  0
    4.6286   40.4382   47.8851 C   0  0  0  0  0  3  0  0  0  0  0  0
    4.1258   41.6407   49.9175 C   0  0  0  0  0  3  0  0  0  0  0  0
    5.8876   41.0484   47.8363 C   0  0  0  0  0  3  0  0  0  0  0  0
    5.3823   42.2561   49.8778 C   0  0  0  0  0  3  0  0  0  0  0  0
    2.1902   39.9536   48.9501 S   0  0  2  0  0  0  0  0  0  0  0  0
    0.9248   41.0543   49.5417 C   0  0  0  0  0  1  0  0  0  0  0  0
    2.1983   38.7785   49.9144 O   0  0  0  0  0  0  0  0  0  0  0  0
    1.8318   39.4231   47.6120 O   0  0  0  0  0  0  0  0  0  0  0  0
    6.1982   45.8473   51.8836 O   0  0  0  0  0  0  0  0  0  0  0  0
    5.3479   44.9784   52.6002 C   0  0  0  0  0  2  0  0  0  0  0  0
    3.9963   44.7898   52.0053 C   0  0  0  0  0  3  0  0  0  0  0  0
    3.0880   43.8736   52.7967 C   0  0  0  0  0  2  0  0  0  0  0  0
    3.2958   46.0691   51.6126 C   0  0  0  0  0  2  0  0  0  0  0  0
    2.2914   44.6241   53.8269 C   0  0  0  0  0  2  0  0  0  0  0  0
    1.7867   45.8464   51.7033 C   0  0  0  0  0  2  0  0  0  0  0  0
    1.4456   45.6853   53.1585 C   0  0  0  0  0  2  0  0  0  0  0  0
  1  2  1  0
  2  3  2  0
  3 21  1  0
  4  8  1  0
  4  3  1  0
  4  5  1  0
  6  5  1  0
  7  6  1  0
  8  7  2  0
  9  1  2  0
  9  8  1  0
 10  1  1  0
 11 10  1  0
 11 16  2  0
 12 14  2  0
 13 15  2  0
 13 12  1  0
 14 16  1  0
 15 11  1  0
 17 18  1  1
 17 19  2  0
 17 12  1  0
 20 17  2  0
 21 22  1  0
 22 23  1  0
 23 25  1  0
 24 23  1  0
 26 24  1  0
 26 28  1  0
 27 25  1  0
 28 27  1  0
M  RAD  8   4   2   6   3  13   2  14   2  15   2  16   2  18   2  22   3
M  RAD  6  23   2  24   3  25   3  26   3  27   3  28   3
M  END
>  <REMARK>  (1) 
 SMILES CS(=O)(=O)c1ccc(Nc2nc(OCC3CCCCC3)c3[nH]cnc3n2)cc1
 SMILES IDX 10 1 11 2 12 3 21 4 22 5 23 6 24 7 25 8 26 9 9 11 8 13 5 14
 SMILES IDX 6 15 28 16 7 17 27 18 2 19 1 20 3 21 4 22 13 23 14 24 15 25
 SMILES IDX 16 26 20 27 17 28 19 29 18 30
 H PARENT 22 10 9 12

>  <TORSDO>  (1) 
F 6

$$$$
