/home/pchatterjee/Documents/git/vs_workflow/DiffDock/diffdock_run/pdbqt_scrubbed/5329564.pdbqt
     RDKit          3D

 28 31  0  0  1  0  0  0  0  0999 V2000
    7.8266   43.8291   49.3457 C   0  0  0  0  0  0  0  0  0  0  0  0
    6.7611   44.3928   50.0873 N   0  0  0  0  0  0  0  0  0  0  0  0
    6.9939   45.4069   50.8757 C   0  0  0  0  0  0  0  0  0  0  0  0
    8.2766   45.9662   50.9889 C   0  0  0  0  0  3  0  0  0  0  0  0
    8.8467   46.5234   52.1372 N   0  0  0  0  0  0  0  0  0  0  0  0
   10.1682   46.9489   51.5969 C   0  0  0  0  0  2  0  0  0  0  0  0
   10.4537   45.9069   50.6245 N   0  0  0  0  0  0  0  0  0  0  0  0
    9.3490   45.3214   50.2623 C   0  0  0  0  0  0  0  0  0  0  0  0
    9.0474   44.2353   49.3936 N   0  0  0  0  0  0  0  0  0  0  0  0
    7.5497   42.7316   48.4769 N   0  0  0  0  0  0  0  0  0  0  0  0
    6.3162   41.9946   48.5661 C   0  0  0  0  0  0  0  0  0  0  0  0
    3.9526   40.5554   48.6830 C   0  0  0  0  0  0  0  0  0  0  0  0
    4.7532   40.4898   47.5365 C   0  0  0  0  0  3  0  0  0  0  0  0
    4.3332   41.3342   49.7591 C   0  0  0  0  0  3  0  0  0  0  0  0
    5.9464   41.2202   47.4852 C   0  0  0  0  0  3  0  0  0  0  0  0
    5.5243   42.0682   49.7177 C   0  0  0  0  0  3  0  0  0  0  0  0
    2.4695   39.6229   48.6975 S   0  0  2  0  0  0  0  0  0  0  0  0
    1.2862   40.3236   49.8252 C   0  0  0  0  0  1  0  0  0  0  0  0
    2.7333   38.2128   49.2002 O   0  0  0  0  0  0  0  0  0  0  0  0
    1.8844   39.5044   47.3396 O   0  0  0  0  0  0  0  0  0  0  0  0
    5.9059   45.9189   51.5945 O   0  0  0  0  0  0  0  0  0  0  0  0
    4.8259   45.0539   51.8718 C   0  0  0  0  0  2  0  0  0  0  0  0
    3.9496   45.4832   52.9960 C   0  0  0  0  0  3  0  0  0  0  0  0
    3.0974   46.6973   52.6951 C   0  0  0  0  0  2  0  0  0  0  0  0
    3.1401   44.3734   53.6242 C   0  0  0  0  0  2  0  0  0  0  0  0
    1.7728   46.3195   52.0935 C   0  0  0  0  0  2  0  0  0  0  0  0
    1.8565   44.9712   54.1990 C   0  0  0  0  0  2  0  0  0  0  0  0
    1.0116   45.4155   53.0378 C   0  0  0  0  0  2  0  0  0  0  0  0
  1  2  1  0
  2  3  2  0
  3 21  1  0
  4  8  1  0
  4  3  1  0
  4  5  1  0
  6  5  1  0
  7  6  1  0
  8  7  2  0
  9  1  2  0
  9  8  1  0
 10  1  1  0
 11 10  1  0
 11 16  2  0
 12 14  2  0
 13 15  2  0
 13 12  1  0
 14 16  1  0
 15 11  1  0
 17 18  1  1
 17 19  2  0
 17 12  1  0
 20 17  2  0
 21 22  1  0
 22 23  1  0
 23 25  1  0
 24 23  1  0
 26 24  1  0
 26 28  1  0
 27 25  1  0
 28 27  1  0
M  RAD  8   4   2   6   3  13   2  14   2  15   2  16   2  18   2  22   3
M  RAD  6  23   2  24   3  25   3  26   3  27   3  28   3
M  END
>  <REMARK>  (1) 
 SMILES CS(=O)(=O)c1ccc(Nc2nc(OCC3CCCCC3)c3[nH]cnc3n2)cc1
 SMILES IDX 10 1 11 2 12 3 21 4 22 5 23 6 24 7 25 8 26 9 9 11 8 13 5 14
 SMILES IDX 6 15 28 16 7 17 27 18 2 19 1 20 3 21 4 22 13 23 14 24 15 25
 SMILES IDX 16 26 20 27 17 28 19 29 18 30
 H PARENT 22 10 9 12

>  <TORSDO>  (1) 
F 6

$$$$
