/home/pchatterjee/Documents/git/vs_workflow/DiffDock/diffdock_run/pdbqt_scrubbed/5329564.pdbqt
     RDKit          3D

 28 31  0  0  1  0  0  0  0  0999 V2000
    9.3178   66.2642   82.0381 C   0  0  0  0  0  0  0  0  0  0  0  0
   10.4343   65.5908   82.5885 N   0  0  0  0  0  0  0  0  0  0  0  0
   11.6178   66.1354   82.5041 C   0  0  0  0  0  0  0  0  0  0  0  0
   11.8055   67.3872   81.8969 C   0  0  0  0  0  3  0  0  0  0  0  0
   12.9181   67.7985   81.1573 N   0  0  0  0  0  0  0  0  0  0  0  0
   12.5168   69.1953   80.8299 C   0  0  0  0  0  2  0  0  0  0  0  0
   11.0771   69.0732   80.6710 N   0  0  0  0  0  0  0  0  0  0  0  0
   10.6491   68.0123   81.2922 C   0  0  0  0  0  0  0  0  0  0  0  0
    9.3730   67.3977   81.4302 N   0  0  0  0  0  0  0  0  0  0  0  0
    8.0300   65.6611   82.1544 N   0  0  0  0  0  0  0  0  0  0  0  0
    7.7555   64.6606   83.1526 C   0  0  0  0  0  0  0  0  0  0  0  0
    7.2724   62.7570   85.1057 C   0  0  0  0  0  0  0  0  0  0  0  0
    8.3143   63.6773   85.2711 C   0  0  0  0  0  3  0  0  0  0  0  0
    6.4815   62.7910   83.9731 C   0  0  0  0  0  3  0  0  0  0  0  0
    8.5520   64.6363   84.2794 C   0  0  0  0  0  3  0  0  0  0  0  0
    6.7110   63.7459   82.9758 C   0  0  0  0  0  3  0  0  0  0  0  0
    7.0160   61.5772   86.3751 S   0  0  2  0  0  0  0  0  0  0  0  0
    5.9894   62.2419   87.6662 C   0  0  0  0  0  1  0  0  0  0  0  0
    8.3344   61.2176   87.0407 O   0  0  0  0  0  0  0  0  0  0  0  0
    6.4331   60.3205   85.8446 O   0  0  0  0  0  0  0  0  0  0  0  0
   12.6894   65.4212   83.0558 O   0  0  0  0  0  0  0  0  0  0  0  0
   12.4434   64.1158   83.5320 C   0  0  0  0  0  2  0  0  0  0  0  0
   12.4912   63.9676   85.0126 C   0  0  0  0  0  3  0  0  0  0  0  0
   12.3253   62.5455   85.5035 C   0  0  0  0  0  2  0  0  0  0  0  0
   13.6591   64.6564   85.6781 C   0  0  0  0  0  2  0  0  0  0  0  0
   13.6426   61.8290   85.6069 C   0  0  0  0  0  2  0  0  0  0  0  0
   14.0043   63.9011   86.9609 C   0  0  0  0  0  2  0  0  0  0  0  0
   14.5619   62.5650   86.5563 C   0  0  0  0  0  2  0  0  0  0  0  0
  1  2  1  0
  2  3  2  0
  3 21  1  0
  4  8  1  0
  4  3  1  0
  4  5  1  0
  6  5  1  0
  7  6  1  0
  8  7  2  0
  9  1  2  0
  9  8  1  0
 10  1  1  0
 11 10  1  0
 11 16  2  0
 12 14  2  0
 13 15  2  0
 13 12  1  0
 14 16  1  0
 15 11  1  0
 17 18  1  1
 17 19  2  0
 17 12  1  0
 20 17  2  0
 21 22  1  0
 22 23  1  0
 23 25  1  0
 24 23  1  0
 26 24  1  0
 26 28  1  0
 27 25  1  0
 28 27  1  0
M  RAD  8   4   2   6   3  13   2  14   2  15   2  16   2  18   2  22   3
M  RAD  6  23   2  24   3  25   3  26   3  27   3  28   3
M  END
>  <REMARK>  (1) 
 SMILES CS(=O)(=O)c1ccc(Nc2nc(OCC3CCCCC3)c3[nH]cnc3n2)cc1
 SMILES IDX 10 1 11 2 12 3 21 4 22 5 23 6 24 7 25 8 26 9 9 11 8 13 5 14
 SMILES IDX 6 15 28 16 7 17 27 18 2 19 1 20 3 21 4 22 13 23 14 24 15 25
 SMILES IDX 16 26 20 27 17 28 19 29 18 30
 H PARENT 22 10 9 12

>  <TORSDO>  (1) 
F 6

$$$$
