/home/pchatterjee/Documents/git/vs_workflow/DiffDock/diffdock_run/pdbqt_scrubbed/5329564.pdbqt
     RDKit          3D

 28 31  0  0  1  0  0  0  0  0999 V2000
    7.8339   43.7691   49.4327 C   0  0  0  0  0  0  0  0  0  0  0  0
    6.8926   44.3751   50.2986 N   0  0  0  0  0  0  0  0  0  0  0  0
    7.2816   45.3241   51.1063 C   0  0  0  0  0  0  0  0  0  0  0  0
    8.6117   45.7731   51.1206 C   0  0  0  0  0  3  0  0  0  0  0  0
    9.3302   46.2213   52.2327 N   0  0  0  0  0  0  0  0  0  0  0  0
   10.6272   46.5690   51.5874 C   0  0  0  0  0  2  0  0  0  0  0  0
   10.7331   45.5610   50.5454 N   0  0  0  0  0  0  0  0  0  0  0  0
    9.5544   45.0850   50.2652 C   0  0  0  0  0  0  0  0  0  0  0  0
    9.0836   44.0741   49.3811 N   0  0  0  0  0  0  0  0  0  0  0  0
    7.3867   42.7449   48.5456 N   0  0  0  0  0  0  0  0  0  0  0  0
    6.0792   42.1565   48.6747 C   0  0  0  0  0  0  0  0  0  0  0  0
    3.5723   40.9952   48.8719 C   0  0  0  0  0  0  0  0  0  0  0  0
    4.3950   40.6973   47.7792 C   0  0  0  0  0  3  0  0  0  0  0  0
    4.0021   41.8660   49.8550 C   0  0  0  0  0  3  0  0  0  0  0  0
    5.6607   41.2883   47.6868 C   0  0  0  0  0  3  0  0  0  0  0  0
    5.2657   42.4621   49.7718 C   0  0  0  0  0  3  0  0  0  0  0  0
    1.9979   40.2298   48.9412 S   0  0  2  0  0  0  0  0  0  0  0  0
    0.9640   41.0063   50.1621 C   0  0  0  0  0  1  0  0  0  0  0  0
    2.1309   38.7792   49.3758 O   0  0  0  0  0  0  0  0  0  0  0  0
    1.3290   40.2335   47.6172 O   0  0  0  0  0  0  0  0  0  0  0  0
    6.3116   45.8817   51.9493 O   0  0  0  0  0  0  0  0  0  0  0  0
    5.3284   45.0253   52.4893 C   0  0  0  0  0  2  0  0  0  0  0  0
    3.9982   45.0979   51.8248 C   0  0  0  0  0  3  0  0  0  0  0  0
    3.0845   43.9299   52.1274 C   0  0  0  0  0  2  0  0  0  0  0  0
    3.2859   46.4206   51.9817 C   0  0  0  0  0  2  0  0  0  0  0  0
    2.2449   44.1746   53.3498 C   0  0  0  0  0  2  0  0  0  0  0  0
    1.7792   46.1735   51.9196 C   0  0  0  0  0  2  0  0  0  0  0  0
    1.3994   45.4146   53.1603 C   0  0  0  0  0  2  0  0  0  0  0  0
  1  2  1  0
  2  3  2  0
  3 21  1  0
  4  8  1  0
  4  3  1  0
  4  5  1  0
  6  5  1  0
  7  6  1  0
  8  7  2  0
  9  1  2  0
  9  8  1  0
 10  1  1  0
 11 10  1  0
 11 16  2  0
 12 14  2  0
 13 15  2  0
 13 12  1  0
 14 16  1  0
 15 11  1  0
 17 18  1  1
 17 19  2  0
 17 12  1  0
 20 17  2  0
 21 22  1  0
 22 23  1  0
 23 25  1  0
 24 23  1  0
 26 24  1  0
 26 28  1  0
 27 25  1  0
 28 27  1  0
M  RAD  8   4   2   6   3  13   2  14   2  15   2  16   2  18   2  22   3
M  RAD  6  23   2  24   3  25   3  26   3  27   3  28   3
M  END
>  <REMARK>  (1) 
 SMILES CS(=O)(=O)c1ccc(Nc2nc(OCC3CCCCC3)c3[nH]cnc3n2)cc1
 SMILES IDX 10 1 11 2 12 3 21 4 22 5 23 6 24 7 25 8 26 9 9 11 8 13 5 14
 SMILES IDX 6 15 28 16 7 17 27 18 2 19 1 20 3 21 4 22 13 23 14 24 15 25
 SMILES IDX 16 26 20 27 17 28 19 29 18 30
 H PARENT 22 10 9 12

>  <TORSDO>  (1) 
F 6

$$$$
