/home/pchatterjee/Documents/git/vs_workflow/DiffDock/diffdock_run/pdbqt_scrubbed/Z3807133138.pdbqt
     RDKit          3D

 24 27  0  0  1  0  0  0  0  0999 V2000
    7.9373   47.6860   52.9784 N   0  0  0  0  0  0  0  0  0  0  0  0
    9.2220   48.3340   52.8665 C   0  0  0  0  0  2  0  0  0  0  0  0
   10.1421   47.2672   52.2517 C   0  0  0  0  0  2  0  0  0  0  0  0
    9.2433   46.0490   52.1464 C   0  0  0  0  0  3  0  0  0  0  0  0
    7.9089   46.7541   51.8362 C   0  0  0  0  0  2  0  0  0  0  0  0
    6.8963   47.8038   53.9141 C   0  0  0  0  0  0  0  0  0  0  0  0
    7.2159   48.2080   55.0857 O   0  0  0  0  0  0  0  0  0  0  0  0
    5.5095   47.4931   53.6037 C   0  0  0  0  0  0  0  0  0  0  0  0
    4.8138   48.2245   52.6645 C   0  0  0  0  0  3  0  0  0  0  0  0
    4.8334   46.4545   54.2269 C   0  0  0  0  0  0  0  0  0  0  0  0
    3.4980   47.9774   52.3196 C   0  0  0  0  0  3  0  0  0  0  0  0
    5.2251   45.5580   55.1667 N   0  0  0  0  0  0  0  0  0  0  0  0
    3.5056   46.1993   53.8822 C   0  0  0  0  0  0  0  0  0  0  0  0
    2.8575   46.9569   52.9402 C   0  0  0  0  0  3  0  0  0  0  0  0
    4.1713   44.7678   55.4067 C   0  0  0  0  0  3  0  0  0  0  0  0
    3.1210   45.1426   54.6360 N   0  0  0  0  0  0  0  0  0  0  0  0
    9.6162   45.1409   51.1077 N   0  0  0  0  0  0  0  0  0  0  0  0
    8.6455   44.4237   50.3899 C   0  0  0  0  0  0  0  0  0  0  0  0
    7.4115   44.3182   50.8829 N   0  0  0  0  0  0  0  0  0  0  0  0
    8.9963   43.8490   49.2238 N   0  0  0  0  0  0  0  0  0  0  0  0
    6.4163   43.6343   50.2652 C   0  0  0  0  0  3  0  0  0  0  0  0
    8.0470   43.1541   48.5653 C   0  0  0  0  0  3  0  0  0  0  0  0
    6.7482   43.0256   49.0547 C   0  0  0  0  0  0  0  0  0  0  0  0
    5.5760   42.1027   48.1325 Cl  0  0  0  0  0  0  0  0  0  0  0  0
  1  2  1  0
  3  2  1  0
  4 17  1  0
  4  3  1  0
  5  1  1  0
  5  4  1  0
  6  1  1  0
  6  7  2  0
  8  9  2  0
  8  6  1  0
 10  8  1  0
 11  9  1  0
 12 10  1  0
 13 14  1  0
 13 10  2  0
 14 11  2  0
 15 12  1  0
 16 15  2  0
 16 13  1  0
 18 20  1  0
 18 17  1  0
 19 18  2  0
 21 23  2  0
 21 19  1  0
 22 20  2  0
 23 22  1  0
 24 23  1  0
M  RAD  8   2   3   3   3   4   2   5   3   9   2  11   2  14   2  15   2
M  RAD  2  21   2  22   2
M  END
>  <REMARK>  (1) 
 SMILES O=C(c1cccc2nc[nH]c12)N1CC[C@H](Nc2ncc(Cl)cn2)C1
 SMILES IDX 12 1 13 2 14 3 15 4 24 5 2 6 1 7 3 8 4 9 11 10 5 11 10 12
 SMILES IDX 7 13 6 14 9 15 8 16 16 18 17 20 18 21 23 22 19 23 22 24
 SMILES IDX 20 25 21 26
 H PARENT 10 17 16 19

>  <TORSDO>  (1) 
F 4

$$$$
