/home/pchatterjee/Documents/git/vs_workflow/DiffDock/diffdock_run/pdbqt_scrubbed/Z3807133138.pdbqt
     RDKit          3D

 24 27  0  0  1  0  0  0  0  0999 V2000
    4.2048   42.1950   50.6868 N   0  0  0  0  0  0  0  0  0  0  0  0
    4.5208   40.8336   50.3268 C   0  0  0  0  0  2  0  0  0  0  0  0
    5.6823   40.9564   49.3276 C   0  0  0  0  0  2  0  0  0  0  0  0
    5.8531   42.4563   49.1729 C   0  0  0  0  0  3  0  0  0  0  0  0
    5.5008   42.8932   50.6078 C   0  0  0  0  0  2  0  0  0  0  0  0
    2.9968   42.8294   51.0209 C   0  0  0  0  0  0  0  0  0  0  0  0
    1.9172   42.2180   50.7066 O   0  0  0  0  0  0  0  0  0  0  0  0
    2.9351   44.1178   51.6934 C   0  0  0  0  0  0  0  0  0  0  0  0
    2.3635   45.2108   51.0771 C   0  0  0  0  0  3  0  0  0  0  0  0
    3.4372   44.3020   52.9733 C   0  0  0  0  0  0  0  0  0  0  0  0
    2.2680   46.4595   51.6626 C   0  0  0  0  0  3  0  0  0  0  0  0
    4.0384   43.4474   53.8385 N   0  0  0  0  0  0  0  0  0  0  0  0
    3.3427   45.5597   53.5700 C   0  0  0  0  0  0  0  0  0  0  0  0
    2.7640   46.6162   52.9140 C   0  0  0  0  0  3  0  0  0  0  0  0
    4.3165   44.1512   54.9429 C   0  0  0  0  0  3  0  0  0  0  0  0
    3.9009   45.4333   54.7970 N   0  0  0  0  0  0  0  0  0  0  0  0
    7.1762   42.8549   48.8078 N   0  0  0  0  0  0  0  0  0  0  0  0
    7.8884   43.7902   49.5757 C   0  0  0  0  0  0  0  0  0  0  0  0
    9.2036   43.6417   49.7343 N   0  0  0  0  0  0  0  0  0  0  0  0
    7.2148   44.8085   50.1437 N   0  0  0  0  0  0  0  0  0  0  0  0
    9.9676   44.4877   50.4694 C   0  0  0  0  0  3  0  0  0  0  0  0
    7.9232   45.6813   50.8879 C   0  0  0  0  0  3  0  0  0  0  0  0
    9.2988   45.5531   51.0726 C   0  0  0  0  0  0  0  0  0  0  0  0
   10.1416   46.7347   52.0573 Cl  0  0  0  0  0  0  0  0  0  0  0  0
  1  2  1  0
  3  2  1  0
  4 17  1  0
  4  3  1  0
  5  1  1  0
  5  4  1  0
  6  1  1  0
  6  7  2  0
  8  9  2  0
  8  6  1  0
 10  8  1  0
 11  9  1  0
 12 10  1  0
 13 14  1  0
 13 10  2  0
 14 11  2  0
 15 12  1  0
 16 15  2  0
 16 13  1  0
 18 20  1  0
 18 17  1  0
 19 18  2  0
 21 23  2  0
 21 19  1  0
 22 20  2  0
 23 22  1  0
 24 23  1  0
M  RAD  8   2   3   3   3   4   2   5   3   9   2  11   2  14   2  15   2
M  RAD  2  21   2  22   2
M  END
>  <REMARK>  (1) 
 SMILES O=C(c1cccc2nc[nH]c12)N1CC[C@H](Nc2ncc(Cl)cn2)C1
 SMILES IDX 12 1 13 2 14 3 15 4 24 5 2 6 1 7 3 8 4 9 11 10 5 11 10 12
 SMILES IDX 7 13 6 14 9 15 8 16 16 18 17 20 18 21 23 22 19 23 22 24
 SMILES IDX 20 25 21 26
 H PARENT 10 17 16 19

>  <TORSDO>  (1) 
F 4

$$$$
