/home/pchatterjee/Documents/git/vs_workflow/DiffDock/diffdock_run/pdbqt_scrubbed/Z3807133138.pdbqt
     RDKit          3D

 24 27  0  0  1  0  0  0  0  0999 V2000
    4.2598   42.3702   50.6203 N   0  0  0  0  0  0  0  0  0  0  0  0
    4.5948   41.0074   50.2836 C   0  0  0  0  0  2  0  0  0  0  0  0
    5.7478   41.1296   49.2745 C   0  0  0  0  0  2  0  0  0  0  0  0
    5.8940   42.6289   49.0907 C   0  0  0  0  0  3  0  0  0  0  0  0
    5.5441   43.0870   50.5195 C   0  0  0  0  0  2  0  0  0  0  0  0
    3.0442   42.9919   50.9507 C   0  0  0  0  0  0  0  0  0  0  0  0
    1.9723   42.3927   50.5895 O   0  0  0  0  0  0  0  0  0  0  0  0
    2.9664   44.2541   51.6693 C   0  0  0  0  0  0  0  0  0  0  0  0
    2.3470   45.3508   51.1080 C   0  0  0  0  0  3  0  0  0  0  0  0
    3.5003   44.4088   52.9403 C   0  0  0  0  0  0  0  0  0  0  0  0
    2.2341   46.5755   51.7394 C   0  0  0  0  0  3  0  0  0  0  0  0
    4.1498   43.5426   53.7577 N   0  0  0  0  0  0  0  0  0  0  0  0
    3.3884   45.6420   53.5831 C   0  0  0  0  0  0  0  0  0  0  0  0
    2.7618   46.7034   52.9811 C   0  0  0  0  0  3  0  0  0  0  0  0
    4.4404   44.2160   54.8778 C   0  0  0  0  0  3  0  0  0  0  0  0
    3.9854   45.4898   54.7887 N   0  0  0  0  0  0  0  0  0  0  0  0
    7.2082   43.0412   48.7093 N   0  0  0  0  0  0  0  0  0  0  0  0
    7.9149   43.9937   49.4610 C   0  0  0  0  0  0  0  0  0  0  0  0
    9.2138   43.8092   49.6970 N   0  0  0  0  0  0  0  0  0  0  0  0
    7.2517   45.0653   49.9355 N   0  0  0  0  0  0  0  0  0  0  0  0
    9.9706   44.6690   50.4236 C   0  0  0  0  0  3  0  0  0  0  0  0
    7.9535   45.9542   50.6669 C   0  0  0  0  0  3  0  0  0  0  0  0
    9.3122   45.7894   50.9309 C   0  0  0  0  0  0  0  0  0  0  0  0
   10.1474   46.9955   51.8921 Cl  0  0  0  0  0  0  0  0  0  0  0  0
  1  2  1  0
  3  2  1  0
  4 17  1  0
  4  3  1  0
  5  1  1  0
  5  4  1  0
  6  1  1  0
  6  7  2  0
  8  9  2  0
  8  6  1  0
 10  8  1  0
 11  9  1  0
 12 10  1  0
 13 14  1  0
 13 10  2  0
 14 11  2  0
 15 12  1  0
 16 15  2  0
 16 13  1  0
 18 20  1  0
 18 17  1  0
 19 18  2  0
 21 23  2  0
 21 19  1  0
 22 20  2  0
 23 22  1  0
 24 23  1  0
M  RAD  8   2   3   3   3   4   2   5   3   9   2  11   2  14   2  15   2
M  RAD  2  21   2  22   2
M  END
>  <REMARK>  (1) 
 SMILES O=C(c1cccc2nc[nH]c12)N1CC[C@H](Nc2ncc(Cl)cn2)C1
 SMILES IDX 12 1 13 2 14 3 15 4 24 5 2 6 1 7 3 8 4 9 11 10 5 11 10 12
 SMILES IDX 7 13 6 14 9 15 8 16 16 18 17 20 18 21 23 22 19 23 22 24
 SMILES IDX 20 25 21 26
 H PARENT 10 17 16 19

>  <TORSDO>  (1) 
F 4

$$$$
