/home/pchatterjee/Documents/git/vs_workflow/DiffDock/diffdock_run/pdbqt_scrubbed/Z3807133138.pdbqt
     RDKit          3D

 24 27  0  0  1  0  0  0  0  0999 V2000
    4.2779   42.3069   50.5845 N   0  0  0  0  0  0  0  0  0  0  0  0
    4.6816   40.9521   50.2939 C   0  0  0  0  0  2  0  0  0  0  0  0
    5.8276   41.0981   49.2799 C   0  0  0  0  0  2  0  0  0  0  0  0
    5.8978   42.5957   49.0451 C   0  0  0  0  0  3  0  0  0  0  0  0
    5.5244   43.0839   50.4580 C   0  0  0  0  0  2  0  0  0  0  0  0
    3.0322   42.8772   50.8949 C   0  0  0  0  0  0  0  0  0  0  0  0
    1.9921   42.2196   50.5425 O   0  0  0  0  0  0  0  0  0  0  0  0
    2.8904   44.1502   51.5842 C   0  0  0  0  0  0  0  0  0  0  0  0
    2.1401   45.1704   51.0386 C   0  0  0  0  0  3  0  0  0  0  0  0
    3.4914   44.3911   52.8109 C   0  0  0  0  0  0  0  0  0  0  0  0
    1.9609   46.4002   51.6442 C   0  0  0  0  0  3  0  0  0  0  0  0
    4.2681   43.6113   53.6040 N   0  0  0  0  0  0  0  0  0  0  0  0
    3.3132   45.6299   53.4278 C   0  0  0  0  0  0  0  0  0  0  0  0
    2.5562   46.6130   52.8430 C   0  0  0  0  0  3  0  0  0  0  0  0
    4.5712   44.3427   54.6836 C   0  0  0  0  0  3  0  0  0  0  0  0
    3.9999   45.5686   54.5929 N   0  0  0  0  0  0  0  0  0  0  0  0
    7.1898   43.0608   48.6485 N   0  0  0  0  0  0  0  0  0  0  0  0
    7.9125   43.9605   49.4485 C   0  0  0  0  0  0  0  0  0  0  0  0
    9.2391   43.8526   49.5209 N   0  0  0  0  0  0  0  0  0  0  0  0
    7.2378   44.9032   50.1335 N   0  0  0  0  0  0  0  0  0  0  0  0
   10.0147   44.6681   50.2781 C   0  0  0  0  0  3  0  0  0  0  0  0
    7.9575   45.7424   50.9051 C   0  0  0  0  0  3  0  0  0  0  0  0
    9.3453   45.6551   51.0017 C   0  0  0  0  0  0  0  0  0  0  0  0
   10.2023   46.7884   52.0300 Cl  0  0  0  0  0  0  0  0  0  0  0  0
  1  2  1  0
  3  2  1  0
  4 17  1  0
  4  3  1  0
  5  1  1  0
  5  4  1  0
  6  1  1  0
  6  7  2  0
  8  9  2  0
  8  6  1  0
 10  8  1  0
 11  9  1  0
 12 10  1  0
 13 14  1  0
 13 10  2  0
 14 11  2  0
 15 12  1  0
 16 15  2  0
 16 13  1  0
 18 20  1  0
 18 17  1  0
 19 18  2  0
 21 23  2  0
 21 19  1  0
 22 20  2  0
 23 22  1  0
 24 23  1  0
M  RAD  8   2   3   3   3   4   2   5   3   9   2  11   2  14   2  15   2
M  RAD  2  21   2  22   2
M  END
>  <REMARK>  (1) 
 SMILES O=C(c1cccc2nc[nH]c12)N1CC[C@H](Nc2ncc(Cl)cn2)C1
 SMILES IDX 12 1 13 2 14 3 15 4 24 5 2 6 1 7 3 8 4 9 11 10 5 11 10 12
 SMILES IDX 7 13 6 14 9 15 8 16 16 18 17 20 18 21 23 22 19 23 22 24
 SMILES IDX 20 25 21 26
 H PARENT 10 17 16 19

>  <TORSDO>  (1) 
F 4

$$$$
