/home/pchatterjee/Documents/git/vs_workflow/DiffDock/diffdock_run/pdbqt_scrubbed/Z3807133138.pdbqt
     RDKit          3D

 24 27  0  0  1  0  0  0  0  0999 V2000
    4.3164   41.3952   49.9642 N   0  0  0  0  0  0  0  0  0  0  0  0
    4.5179   40.5612   48.8037 C   0  0  0  0  0  2  0  0  0  0  0  0
    5.6292   41.2653   48.0087 C   0  0  0  0  0  2  0  0  0  0  0  0
    5.8941   42.5223   48.8164 C   0  0  0  0  0  3  0  0  0  0  0  0
    5.6512   41.9615   50.2308 C   0  0  0  0  0  2  0  0  0  0  0  0
    3.1749   41.6991   50.7245 C   0  0  0  0  0  0  0  0  0  0  0  0
    3.3602   42.3567   51.8068 O   0  0  0  0  0  0  0  0  0  0  0  0
    1.8307   41.3047   50.3326 C   0  0  0  0  0  0  0  0  0  0  0  0
    1.5933   40.0727   49.7607 C   0  0  0  0  0  3  0  0  0  0  0  0
    0.7377   42.1381   50.5200 C   0  0  0  0  0  0  0  0  0  0  0  0
    0.3408   39.6353   49.3718 C   0  0  0  0  0  3  0  0  0  0  0  0
    0.6315   43.3809   51.0534 N   0  0  0  0  0  0  0  0  0  0  0  0
   -0.5291   41.7018   50.1308 C   0  0  0  0  0  0  0  0  0  0  0  0
   -0.7127   40.4655   49.5656 C   0  0  0  0  0  3  0  0  0  0  0  0
   -0.6637   43.7147   50.9950 C   0  0  0  0  0  3  0  0  0  0  0  0
   -1.3811   42.7078   50.4389 N   0  0  0  0  0  0  0  0  0  0  0  0
    7.2197   43.0366   48.6712 N   0  0  0  0  0  0  0  0  0  0  0  0
    7.7340   43.9787   49.5766 C   0  0  0  0  0  0  0  0  0  0  0  0
    6.8938   44.7408   50.2766 N   0  0  0  0  0  0  0  0  0  0  0  0
    9.0698   44.0938   49.7015 N   0  0  0  0  0  0  0  0  0  0  0  0
    7.3018   45.6843   51.1616 C   0  0  0  0  0  3  0  0  0  0  0  0
    9.5337   45.0177   50.5668 C   0  0  0  0  0  3  0  0  0  0  0  0
    8.6810   45.8295   51.3129 C   0  0  0  0  0  0  0  0  0  0  0  0
    9.3708   47.0060   52.4158 Cl  0  0  0  0  0  0  0  0  0  0  0  0
  1  2  1  0
  3  2  1  0
  4 17  1  0
  4  3  1  0
  5  1  1  0
  5  4  1  0
  6  1  1  0
  6  7  2  0
  8  9  2  0
  8  6  1  0
 10  8  1  0
 11  9  1  0
 12 10  1  0
 13 14  1  0
 13 10  2  0
 14 11  2  0
 15 12  1  0
 16 15  2  0
 16 13  1  0
 18 20  1  0
 18 17  1  0
 19 18  2  0
 21 23  2  0
 21 19  1  0
 22 20  2  0
 23 22  1  0
 24 23  1  0
M  RAD  8   2   3   3   3   4   2   5   3   9   2  11   2  14   2  15   2
M  RAD  2  21   2  22   2
M  END
>  <REMARK>  (1) 
 SMILES O=C(c1cccc2nc[nH]c12)N1CC[C@H](Nc2ncc(Cl)cn2)C1
 SMILES IDX 12 1 13 2 14 3 15 4 24 5 2 6 1 7 3 8 4 9 11 10 5 11 10 12
 SMILES IDX 7 13 6 14 9 15 8 16 16 18 17 20 18 21 23 22 19 23 22 24
 SMILES IDX 20 25 21 26
 H PARENT 10 17 16 19

>  <TORSDO>  (1) 
F 4

$$$$
