/home/pchatterjee/Documents/git/vs_workflow/DiffDock/diffdock_run/pdbqt_scrubbed/Z3807133138.pdbqt
     RDKit          3D

 24 27  0  0  1  0  0  0  0  0999 V2000
    4.1366   42.2337   50.6903 N   0  0  0  0  0  0  0  0  0  0  0  0
    4.4263   40.8863   50.2623 C   0  0  0  0  0  2  0  0  0  0  0  0
    5.5426   41.0430   49.2173 C   0  0  0  0  0  2  0  0  0  0  0  0
    5.7170   42.5470   49.1150 C   0  0  0  0  0  3  0  0  0  0  0  0
    5.4327   42.9277   50.5807 C   0  0  0  0  0  2  0  0  0  0  0  0
    2.9494   42.8607   51.1038 C   0  0  0  0  0  0  0  0  0  0  0  0
    1.8556   42.2394   50.8674 O   0  0  0  0  0  0  0  0  0  0  0  0
    2.9239   44.1520   51.7730 C   0  0  0  0  0  0  0  0  0  0  0  0
    2.2447   45.2195   51.2248 C   0  0  0  0  0  3  0  0  0  0  0  0
    3.5690   44.3643   52.9825 C   0  0  0  0  0  0  0  0  0  0  0  0
    2.1766   46.4693   51.8118 C   0  0  0  0  0  3  0  0  0  0  0  0
    4.2989   43.5382   53.7731 N   0  0  0  0  0  0  0  0  0  0  0  0
    3.5029   45.6232   53.5806 C   0  0  0  0  0  0  0  0  0  0  0  0
    2.8132   46.6536   52.9940 C   0  0  0  0  0  3  0  0  0  0  0  0
    4.6826   44.2607   54.8330 C   0  0  0  0  0  3  0  0  0  0  0  0
    4.2081   45.5265   54.7322 N   0  0  0  0  0  0  0  0  0  0  0  0
    7.0251   42.9529   48.7067 N   0  0  0  0  0  0  0  0  0  0  0  0
    7.8122   43.7838   49.5201 C   0  0  0  0  0  0  0  0  0  0  0  0
    7.2271   44.7439   50.2362 N   0  0  0  0  0  0  0  0  0  0  0  0
    9.1450   43.5932   49.5421 N   0  0  0  0  0  0  0  0  0  0  0  0
    7.9097   45.5999   51.0369 C   0  0  0  0  0  3  0  0  0  0  0  0
    9.8758   44.4165   50.3203 C   0  0  0  0  0  3  0  0  0  0  0  0
    9.2936   45.4294   51.0806 C   0  0  0  0  0  0  0  0  0  0  0  0
   10.3204   46.4551   52.0654 Cl  0  0  0  0  0  0  0  0  0  0  0  0
  1  2  1  0
  3  2  1  0
  4 17  1  0
  4  3  1  0
  5  1  1  0
  5  4  1  0
  6  1  1  0
  6  7  2  0
  8  9  2  0
  8  6  1  0
 10  8  1  0
 11  9  1  0
 12 10  1  0
 13 14  1  0
 13 10  2  0
 14 11  2  0
 15 12  1  0
 16 15  2  0
 16 13  1  0
 18 20  1  0
 18 17  1  0
 19 18  2  0
 21 23  2  0
 21 19  1  0
 22 20  2  0
 23 22  1  0
 24 23  1  0
M  RAD  8   2   3   3   3   4   2   5   3   9   2  11   2  14   2  15   2
M  RAD  2  21   2  22   2
M  END
>  <REMARK>  (1) 
 SMILES O=C(c1cccc2nc[nH]c12)N1CC[C@H](Nc2ncc(Cl)cn2)C1
 SMILES IDX 12 1 13 2 14 3 15 4 24 5 2 6 1 7 3 8 4 9 11 10 5 11 10 12
 SMILES IDX 7 13 6 14 9 15 8 16 16 18 17 20 18 21 23 22 19 23 22 24
 SMILES IDX 20 25 21 26
 H PARENT 10 17 16 19

>  <TORSDO>  (1) 
F 4

$$$$
