/home/pchatterjee/Documents/git/vs_workflow/DiffDock/diffdock_run/pdbqt_scrubbed/Z3807133138.pdbqt
     RDKit          3D

 24 27  0  0  1  0  0  0  0  0999 V2000
    4.2787   41.6796   49.6594 N   0  0  0  0  0  0  0  0  0  0  0  0
    4.9116   40.5198   49.0789 C   0  0  0  0  0  2  0  0  0  0  0  0
    6.0814   41.0864   48.2583 C   0  0  0  0  0  2  0  0  0  0  0  0
    5.9258   42.5874   48.4183 C   0  0  0  0  0  3  0  0  0  0  0  0
    5.3903   42.6266   49.8625 C   0  0  0  0  0  2  0  0  0  0  0  0
    2.9407   41.9695   49.9739 C   0  0  0  0  0  0  0  0  0  0  0  0
    2.7370   42.8990   50.8300 O   0  0  0  0  0  0  0  0  0  0  0  0
    1.8140   41.2708   49.3753 C   0  0  0  0  0  0  0  0  0  0  0  0
    1.0071   40.4494   50.1339 C   0  0  0  0  0  3  0  0  0  0  0  0
    1.4998   41.4023   48.0306 C   0  0  0  0  0  0  0  0  0  0  0  0
   -0.0810   39.7625   49.6283 C   0  0  0  0  0  3  0  0  0  0  0  0
    2.0736   42.1249   47.0363 N   0  0  0  0  0  0  0  0  0  0  0  0
    0.4021   40.7126   47.5147 C   0  0  0  0  0  0  0  0  0  0  0  0
   -0.3702   39.9069   48.3122 C   0  0  0  0  0  3  0  0  0  0  0  0
    1.3586   41.8904   45.9290 C   0  0  0  0  0  3  0  0  0  0  0  0
    0.3414   41.0368   46.2017 N   0  0  0  0  0  0  0  0  0  0  0  0
    7.1492   43.3147   48.2874 N   0  0  0  0  0  0  0  0  0  0  0  0
    7.6780   44.0421   49.3657 C   0  0  0  0  0  0  0  0  0  0  0  0
    6.8503   44.5827   50.2599 N   0  0  0  0  0  0  0  0  0  0  0  0
    9.0140   44.1841   49.4575 N   0  0  0  0  0  0  0  0  0  0  0  0
    7.2719   45.3115   51.3233 C   0  0  0  0  0  3  0  0  0  0  0  0
    9.4910   44.9009   50.4948 C   0  0  0  0  0  3  0  0  0  0  0  0
    8.6515   45.4784   51.4459 C   0  0  0  0  0  0  0  0  0  0  0  0
    9.3578   46.3953   52.7636 Cl  0  0  0  0  0  0  0  0  0  0  0  0
  1  2  1  0
  3  2  1  0
  4 17  1  0
  4  3  1  0
  5  1  1  0
  5  4  1  0
  6  1  1  0
  6  7  2  0
  8  9  2  0
  8  6  1  0
 10  8  1  0
 11  9  1  0
 12 10  1  0
 13 14  1  0
 13 10  2  0
 14 11  2  0
 15 12  1  0
 16 15  2  0
 16 13  1  0
 18 20  1  0
 18 17  1  0
 19 18  2  0
 21 23  2  0
 21 19  1  0
 22 20  2  0
 23 22  1  0
 24 23  1  0
M  RAD  8   2   3   3   3   4   2   5   3   9   2  11   2  14   2  15   2
M  RAD  2  21   2  22   2
M  END
>  <REMARK>  (1) 
 SMILES O=C(c1cccc2nc[nH]c12)N1CC[C@H](Nc2ncc(Cl)cn2)C1
 SMILES IDX 12 1 13 2 14 3 15 4 24 5 2 6 1 7 3 8 4 9 11 10 5 11 10 12
 SMILES IDX 7 13 6 14 9 15 8 16 16 18 17 20 18 21 23 22 19 23 22 24
 SMILES IDX 20 25 21 26
 H PARENT 10 17 16 19

>  <TORSDO>  (1) 
F 4

$$$$
