/home/pchatterjee/Documents/git/vs_workflow/DiffDock/diffdock_run/pdbqt_scrubbed/Z3807133138.pdbqt
     RDKit          3D

 24 27  0  0  1  0  0  0  0  0999 V2000
    7.8402   47.3323   53.0695 N   0  0  0  0  0  0  0  0  0  0  0  0
    8.9468   48.0730   52.5131 C   0  0  0  0  0  2  0  0  0  0  0  0
    9.8944   46.9969   51.9595 C   0  0  0  0  0  2  0  0  0  0  0  0
    9.2143   45.6978   52.3502 C   0  0  0  0  0  3  0  0  0  0  0  0
    7.7444   46.1380   52.2104 C   0  0  0  0  0  2  0  0  0  0  0  0
    7.0019   47.5686   54.1716 C   0  0  0  0  0  0  0  0  0  0  0  0
    7.3808   48.4643   55.0038 O   0  0  0  0  0  0  0  0  0  0  0  0
    5.7549   46.8522   54.3900 C   0  0  0  0  0  0  0  0  0  0  0  0
    5.5927   46.0325   55.4868 C   0  0  0  0  0  3  0  0  0  0  0  0
    4.6820   46.9646   53.5180 C   0  0  0  0  0  0  0  0  0  0  0  0
    4.4330   45.3295   55.7551 C   0  0  0  0  0  3  0  0  0  0  0  0
    4.5170   47.6805   52.3776 N   0  0  0  0  0  0  0  0  0  0  0  0
    3.5083   46.2585   53.7840 C   0  0  0  0  0  0  0  0  0  0  0  0
    3.3971   45.4553   54.8903 C   0  0  0  0  0  3  0  0  0  0  0  0
    3.2777   47.4259   51.9399 C   0  0  0  0  0  3  0  0  0  0  0  0
    2.6524   46.5663   52.7812 N   0  0  0  0  0  0  0  0  0  0  0  0
    9.5225   44.5997   51.4888 N   0  0  0  0  0  0  0  0  0  0  0  0
    8.5656   44.0880   50.5976 C   0  0  0  0  0  0  0  0  0  0  0  0
    8.9666   43.3807   49.5413 N   0  0  0  0  0  0  0  0  0  0  0  0
    7.2636   44.3401   50.8312 N   0  0  0  0  0  0  0  0  0  0  0  0
    8.1142   42.8610   48.6230 C   0  0  0  0  0  3  0  0  0  0  0  0
    6.3696   43.8490   49.9496 C   0  0  0  0  0  3  0  0  0  0  0  0
    6.7574   43.1060   48.8358 C   0  0  0  0  0  0  0  0  0  0  0  0
    5.5269   42.5052   47.7399 Cl  0  0  0  0  0  0  0  0  0  0  0  0
  1  2  1  0
  3  2  1  0
  4 17  1  0
  4  3  1  0
  5  1  1  0
  5  4  1  0
  6  1  1  0
  6  7  2  0
  8  9  2  0
  8  6  1  0
 10  8  1  0
 11  9  1  0
 12 10  1  0
 13 14  1  0
 13 10  2  0
 14 11  2  0
 15 12  1  0
 16 15  2  0
 16 13  1  0
 18 20  1  0
 18 17  1  0
 19 18  2  0
 21 23  2  0
 21 19  1  0
 22 20  2  0
 23 22  1  0
 24 23  1  0
M  RAD  8   2   3   3   3   4   2   5   3   9   2  11   2  14   2  15   2
M  RAD  2  21   2  22   2
M  END
>  <REMARK>  (1) 
 SMILES O=C(c1cccc2nc[nH]c12)N1CC[C@H](Nc2ncc(Cl)cn2)C1
 SMILES IDX 12 1 13 2 14 3 15 4 24 5 2 6 1 7 3 8 4 9 11 10 5 11 10 12
 SMILES IDX 7 13 6 14 9 15 8 16 16 18 17 20 18 21 23 22 19 23 22 24
 SMILES IDX 20 25 21 26
 H PARENT 10 17 16 19

>  <TORSDO>  (1) 
F 4

$$$$
