/home/pchatterjee/Documents/git/vs_workflow/DiffDock/diffdock_run/pdbqt_scrubbed/Z3807133138.pdbqt
     RDKit          3D

 24 27  0  0  1  0  0  0  0  0999 V2000
    4.1222   42.4059   50.5591 N   0  0  0  0  0  0  0  0  0  0  0  0
    4.5071   41.0978   50.0863 C   0  0  0  0  0  2  0  0  0  0  0  0
    5.6248   41.3676   49.0662 C   0  0  0  0  0  2  0  0  0  0  0  0
    5.6998   42.8827   49.0225 C   0  0  0  0  0  3  0  0  0  0  0  0
    5.3705   43.1877   50.4965 C   0  0  0  0  0  2  0  0  0  0  0  0
    2.8902   42.9368   50.9760 C   0  0  0  0  0  0  0  0  0  0  0  0
    1.8485   42.2308   50.7424 O   0  0  0  0  0  0  0  0  0  0  0  0
    2.7643   44.2219   51.6457 C   0  0  0  0  0  0  0  0  0  0  0  0
    1.9550   45.2121   51.1298 C   0  0  0  0  0  3  0  0  0  0  0  0
    3.4399   44.5046   52.8237 C   0  0  0  0  0  0  0  0  0  0  0  0
    1.7872   46.4512   51.7194 C   0  0  0  0  0  3  0  0  0  0  0  0
    4.2862   43.7609   53.5794 N   0  0  0  0  0  0  0  0  0  0  0  0
    3.2736   45.7530   53.4242 C   0  0  0  0  0  0  0  0  0  0  0  0
    2.4560   46.7050   52.8705 C   0  0  0  0  0  3  0  0  0  0  0  0
    4.6431   44.5238   54.6202 C   0  0  0  0  0  3  0  0  0  0  0  0
    4.0377   45.7342   54.5417 N   0  0  0  0  0  0  0  0  0  0  0  0
    6.9834   43.3895   48.6509 N   0  0  0  0  0  0  0  0  0  0  0  0
    7.7422   44.1639   49.5432 C   0  0  0  0  0  0  0  0  0  0  0  0
    9.0716   44.0675   49.5272 N   0  0  0  0  0  0  0  0  0  0  0  0
    7.0990   44.9763   50.4033 N   0  0  0  0  0  0  0  0  0  0  0  0
    9.8814   44.7664   50.3612 C   0  0  0  0  0  3  0  0  0  0  0  0
    7.8536   45.6954   51.2582 C   0  0  0  0  0  3  0  0  0  0  0  0
    9.2452   45.6166   51.2660 C   0  0  0  0  0  0  0  0  0  0  0  0
   10.1489   46.5880   52.4132 Cl  0  0  0  0  0  0  0  0  0  0  0  0
  1  2  1  0
  3  2  1  0
  4 17  1  0
  4  3  1  0
  5  1  1  0
  5  4  1  0
  6  1  1  0
  6  7  2  0
  8  9  2  0
  8  6  1  0
 10  8  1  0
 11  9  1  0
 12 10  1  0
 13 14  1  0
 13 10  2  0
 14 11  2  0
 15 12  1  0
 16 15  2  0
 16 13  1  0
 18 20  1  0
 18 17  1  0
 19 18  2  0
 21 23  2  0
 21 19  1  0
 22 20  2  0
 23 22  1  0
 24 23  1  0
M  RAD  8   2   3   3   3   4   2   5   3   9   2  11   2  14   2  15   2
M  RAD  2  21   2  22   2
M  END
>  <REMARK>  (1) 
 SMILES O=C(c1cccc2nc[nH]c12)N1CC[C@H](Nc2ncc(Cl)cn2)C1
 SMILES IDX 12 1 13 2 14 3 15 4 24 5 2 6 1 7 3 8 4 9 11 10 5 11 10 12
 SMILES IDX 7 13 6 14 9 15 8 16 16 18 17 20 18 21 23 22 19 23 22 24
 SMILES IDX 20 25 21 26
 H PARENT 10 17 16 19

>  <TORSDO>  (1) 
F 4

$$$$
