/home/pchatterjee/Documents/git/vs_workflow/DiffDock/diffdock_run/pdbqt_scrubbed/Z3807133138.pdbqt
     RDKit          3D

 24 27  0  0  1  0  0  0  0  0999 V2000
    8.0178   47.4602   53.2728 N   0  0  0  0  0  0  0  0  0  0  0  0
    9.1686   48.2618   52.9321 C   0  0  0  0  0  2  0  0  0  0  0  0
   10.0999   47.3012   52.1753 C   0  0  0  0  0  2  0  0  0  0  0  0
    9.3627   45.9764   52.2399 C   0  0  0  0  0  3  0  0  0  0  0  0
    7.9146   46.4967   52.1617 C   0  0  0  0  0  2  0  0  0  0  0  0
    7.1473   47.4748   54.3751 C   0  0  0  0  0  0  0  0  0  0  0  0
    7.4675   48.2349   55.3539 O   0  0  0  0  0  0  0  0  0  0  0  0
    5.9304   46.6803   54.4376 C   0  0  0  0  0  0  0  0  0  0  0  0
    5.8331   45.6011   55.2903 C   0  0  0  0  0  3  0  0  0  0  0  0
    4.8226   46.9725   53.6555 C   0  0  0  0  0  0  0  0  0  0  0  0
    4.7049   44.8100   55.4019 C   0  0  0  0  0  3  0  0  0  0  0  0
    4.5944   47.9504   52.7434 N   0  0  0  0  0  0  0  0  0  0  0  0
    3.6805   46.1785   53.7645 C   0  0  0  0  0  0  0  0  0  0  0  0
    3.6340   45.1147   54.6292 C   0  0  0  0  0  3  0  0  0  0  0  0
    3.3473   47.7706   52.2911 C   0  0  0  0  0  3  0  0  0  0  0  0
    2.7790   46.7011   52.9002 N   0  0  0  0  0  0  0  0  0  0  0  0
    9.6660   45.0904   51.1601 N   0  0  0  0  0  0  0  0  0  0  0  0
    8.6454   44.4345   50.4532 C   0  0  0  0  0  0  0  0  0  0  0  0
    7.4129   44.4039   50.9601 N   0  0  0  0  0  0  0  0  0  0  0  0
    8.9473   43.8408   49.2829 N   0  0  0  0  0  0  0  0  0  0  0  0
    6.3709   43.7825   50.3535 C   0  0  0  0  0  3  0  0  0  0  0  0
    7.9501   43.2056   48.6351 C   0  0  0  0  0  3  0  0  0  0  0  0
    6.6515   43.1559   49.1391 C   0  0  0  0  0  0  0  0  0  0  0  0
    5.4149   42.3071   48.2299 Cl  0  0  0  0  0  0  0  0  0  0  0  0
  1  2  1  0
  3  2  1  0
  4 17  1  0
  4  3  1  0
  5  1  1  0
  5  4  1  0
  6  1  1  0
  6  7  2  0
  8  9  2  0
  8  6  1  0
 10  8  1  0
 11  9  1  0
 12 10  1  0
 13 14  1  0
 13 10  2  0
 14 11  2  0
 15 12  1  0
 16 15  2  0
 16 13  1  0
 18 20  1  0
 18 17  1  0
 19 18  2  0
 21 23  2  0
 21 19  1  0
 22 20  2  0
 23 22  1  0
 24 23  1  0
M  RAD  8   2   3   3   3   4   2   5   3   9   2  11   2  14   2  15   2
M  RAD  2  21   2  22   2
M  END
>  <REMARK>  (1) 
 SMILES O=C(c1cccc2nc[nH]c12)N1CC[C@H](Nc2ncc(Cl)cn2)C1
 SMILES IDX 12 1 13 2 14 3 15 4 24 5 2 6 1 7 3 8 4 9 11 10 5 11 10 12
 SMILES IDX 7 13 6 14 9 15 8 16 16 18 17 20 18 21 23 22 19 23 22 24
 SMILES IDX 20 25 21 26
 H PARENT 10 17 16 19

>  <TORSDO>  (1) 
F 4

$$$$
