/home/pchatterjee/Documents/git/vs_workflow/DiffDock/diffdock_run/pdbqt_scrubbed/Z48861625.pdbqt
     RDKit          3D

 25 27  0  0  0  0  0  0  0  0999 V2000
    3.6654   41.3885   48.9809 C   0  0  0  0  0  0  0  0  0  0  0  0
    4.3158   41.2156   47.7770 C   0  0  0  0  0  3  0  0  0  0  0  0
    5.6742   41.5030   47.7122 C   0  0  0  0  0  3  0  0  0  0  0  0
    6.3427   41.9525   48.8443 C   0  0  0  0  0  0  0  0  0  0  0  0
    5.6623   42.1172   50.0428 C   0  0  0  0  0  3  0  0  0  0  0  0
    4.3289   41.8345   50.1041 C   0  0  0  0  0  3  0  0  0  0  0  0
    2.2975   41.1226   49.1348 O   0  0  0  0  0  0  0  0  0  0  0  0
    1.8243   39.9592   48.4470 C   0  0  0  0  0  2  0  0  0  0  0  0
    0.3382   39.8015   48.7237 C   0  0  0  0  0  1  0  0  0  0  0  0
    7.7179   42.2592   48.8386 N   0  0  0  0  0  0  0  0  0  0  0  0
    8.1598   43.3594   49.5989 C   0  0  0  0  0  0  0  0  0  0  0  0
    9.1533   44.0516   49.8509 N   0  0  0  0  0  0  0  0  0  0  0  0
    6.8923   44.2276   50.7102 S   0  0  0  0  0  0  0  0  0  0  0  0
    9.2077   45.0681   50.6653 C   0  0  0  0  0  0  0  0  0  0  0  0
    8.0633   45.4105   51.3075 C   0  0  0  0  0  0  0  0  0  0  0  0
   10.5002   45.8420   50.8896 C   0  0  0  0  0  1  0  0  0  0  0  0
    7.7081   46.4489   52.2695 C   0  0  0  0  0  0  0  0  0  0  0  0
    6.4173   46.7208   52.7307 N   0  0  0  0  0  0  0  0  0  0  0  0
    8.6587   47.1543   52.7146 O   0  0  0  0  0  0  0  0  0  0  0  0
    6.1684   47.7832   53.6433 C   0  0  0  0  0  0  0  0  0  0  0  0
    5.2850   47.6353   54.6914 C   0  0  0  0  0  3  0  0  0  0  0  0
    6.7946   49.0064   53.5259 C   0  0  0  0  0  3  0  0  0  0  0  0
    5.0214   48.6448   55.5933 C   0  0  0  0  0  3  0  0  0  0  0  0
    6.5400   50.0245   54.4211 C   0  0  0  0  0  3  0  0  0  0  0  0
    5.6536   49.8639   55.4658 C   0  0  0  0  0  3  0  0  0  0  0  0
  1  6  2  0
  2  1  1  0
  2  3  2  0
  3  4  1  0
  4  5  2  0
  4 10  1  0
  6  5  1  0
  7  8  1  0
  7  1  1  0
  9  8  1  0
 10 11  1  0
 11 12  2  0
 12 14  1  0
 13 11  1  0
 13 15  1  0
 14 16  1  0
 15 17  1  0
 15 14  2  0
 17 19  2  0
 18 20  1  0
 18 17  1  0
 20 21  2  0
 21 23  1  0
 22 24  2  0
 22 20  1  0
 24 25  1  0
 25 23  2  0
M  RAD  8   2   2   3   2   5   2   6   2   8   3   9   2  16   2  21   2
M  RAD  4  22   2  23   2  24   2  25   2
M  END
>  <REMARK>  (1) 
 SMILES CCOc1ccc(Nc2nc(C)c(C(=O)Nc3ccccc3)s2)cc1
 SMILES IDX 4 1 5 2 6 3 7 4 24 5 25 6 3 7 2 8 1 9 8 10 9 12 10 13 23 14
 SMILES IDX 11 15 13 16 12 17 14 18 16 19 15 20 17 22 18 23 22 24 19 25
 SMILES IDX 21 26 20 27
 H PARENT 8 11 16 21

>  <TORSDO>  (1) 
F 6

$$$$
