/home/pchatterjee/Documents/git/vs_workflow/DiffDock/diffdock_run/pdbqt_scrubbed/Z48861625.pdbqt
     RDKit          3D

 25 27  0  0  0  0  0  0  0  0999 V2000
    3.5169   41.1077   49.1855 C   0  0  0  0  0  0  0  0  0  0  0  0
    4.1274   41.8071   50.2056 C   0  0  0  0  0  3  0  0  0  0  0  0
    5.4278   42.2580   50.0121 C   0  0  0  0  0  3  0  0  0  0  0  0
    6.0800   42.0002   48.8126 C   0  0  0  0  0  0  0  0  0  0  0  0
    5.4408   41.2937   47.8032 C   0  0  0  0  0  3  0  0  0  0  0  0
    4.1642   40.8521   47.9954 C   0  0  0  0  0  3  0  0  0  0  0  0
    2.2083   40.6171   49.2962 O   0  0  0  0  0  0  0  0  0  0  0  0
    1.5299   40.4116   48.0520 C   0  0  0  0  0  2  0  0  0  0  0  0
    0.1133   39.9434   48.3420 C   0  0  0  0  0  1  0  0  0  0  0  0
    7.3971   42.4320   48.5599 N   0  0  0  0  0  0  0  0  0  0  0  0
    7.9518   43.4131   49.4044 C   0  0  0  0  0  0  0  0  0  0  0  0
    9.0243   43.8886   49.7961 N   0  0  0  0  0  0  0  0  0  0  0  0
    6.7551   44.5079   50.3867 S   0  0  0  0  0  0  0  0  0  0  0  0
    9.1789   44.8653   50.6456 C   0  0  0  0  0  0  0  0  0  0  0  0
    8.0551   45.4249   51.1589 C   0  0  0  0  0  0  0  0  0  0  0  0
   10.5618   45.3609   51.0480 C   0  0  0  0  0  1  0  0  0  0  0  0
    7.7977   46.5041   52.1070 C   0  0  0  0  0  0  0  0  0  0  0  0
    6.5352   46.9750   52.4775 N   0  0  0  0  0  0  0  0  0  0  0  0
    8.8120   47.0498   52.6293 O   0  0  0  0  0  0  0  0  0  0  0  0
    6.3843   47.9651   53.4876 C   0  0  0  0  0  0  0  0  0  0  0  0
    7.1762   49.0935   53.5089 C   0  0  0  0  0  3  0  0  0  0  0  0
    5.4443   47.8463   54.4898 C   0  0  0  0  0  3  0  0  0  0  0  0
    7.0556   50.0717   54.4735 C   0  0  0  0  0  3  0  0  0  0  0  0
    5.3132   48.8172   55.4607 C   0  0  0  0  0  3  0  0  0  0  0  0
    6.1118   49.9420   55.4709 C   0  0  0  0  0  3  0  0  0  0  0  0
  1  6  2  0
  2  1  1  0
  2  3  2  0
  3  4  1  0
  4  5  2  0
  4 10  1  0
  6  5  1  0
  7  8  1  0
  7  1  1  0
  9  8  1  0
 10 11  1  0
 11 12  2  0
 12 14  1  0
 13 11  1  0
 13 15  1  0
 14 16  1  0
 15 17  1  0
 15 14  2  0
 17 19  2  0
 18 20  1  0
 18 17  1  0
 20 21  2  0
 21 23  1  0
 22 24  2  0
 22 20  1  0
 24 25  1  0
 25 23  2  0
M  RAD  8   2   2   3   2   5   2   6   2   8   3   9   2  16   2  21   2
M  RAD  4  22   2  23   2  24   2  25   2
M  END
>  <REMARK>  (1) 
 SMILES CCOc1ccc(Nc2nc(C)c(C(=O)Nc3ccccc3)s2)cc1
 SMILES IDX 4 1 5 2 6 3 7 4 24 5 25 6 3 7 2 8 1 9 8 10 9 12 10 13 23 14
 SMILES IDX 11 15 13 16 12 17 14 18 16 19 15 20 17 22 18 23 22 24 19 25
 SMILES IDX 21 26 20 27
 H PARENT 8 11 16 21

>  <TORSDO>  (1) 
F 6

$$$$
