/home/pchatterjee/Documents/git/vs_workflow/DiffDock/diffdock_run/pdbqt_scrubbed/Z48861625.pdbqt
     RDKit          3D

 25 27  0  0  0  0  0  0  0  0999 V2000
    3.6854   41.2955   48.8901 C   0  0  0  0  0  0  0  0  0  0  0  0
    4.3183   41.1060   47.6794 C   0  0  0  0  0  3  0  0  0  0  0  0
    5.6776   41.3829   47.5936 C   0  0  0  0  0  3  0  0  0  0  0  0
    6.3645   41.8388   48.7120 C   0  0  0  0  0  0  0  0  0  0  0  0
    5.7015   42.0203   49.9178 C   0  0  0  0  0  3  0  0  0  0  0  0
    4.3672   41.7478   49.9998 C   0  0  0  0  0  3  0  0  0  0  0  0
    2.3178   41.0410   49.0650 O   0  0  0  0  0  0  0  0  0  0  0  0
    1.8450   39.8285   48.4677 C   0  0  0  0  0  2  0  0  0  0  0  0
    0.3511   39.7114   48.7223 C   0  0  0  0  0  1  0  0  0  0  0  0
    7.7416   42.1355   48.6848 N   0  0  0  0  0  0  0  0  0  0  0  0
    8.2010   43.2423   49.4248 C   0  0  0  0  0  0  0  0  0  0  0  0
    9.1988   43.9393   49.6443 N   0  0  0  0  0  0  0  0  0  0  0  0
    6.9621   44.1144   50.5650 S   0  0  0  0  0  0  0  0  0  0  0  0
    9.2726   44.9616   50.4499 C   0  0  0  0  0  0  0  0  0  0  0  0
    8.1454   45.3050   51.1213 C   0  0  0  0  0  0  0  0  0  0  0  0
   10.5684   45.7410   50.6327 C   0  0  0  0  0  1  0  0  0  0  0  0
    7.8138   46.3491   52.0856 C   0  0  0  0  0  0  0  0  0  0  0  0
    6.5250   46.6790   52.5136 N   0  0  0  0  0  0  0  0  0  0  0  0
    8.7844   47.0021   52.5659 O   0  0  0  0  0  0  0  0  0  0  0  0
    6.3113   47.6514   53.5295 C   0  0  0  0  0  0  0  0  0  0  0  0
    6.9380   48.8788   53.4896 C   0  0  0  0  0  3  0  0  0  0  0  0
    5.4719   47.4163   54.5982 C   0  0  0  0  0  3  0  0  0  0  0  0
    6.7525   49.8431   54.4579 C   0  0  0  0  0  3  0  0  0  0  0  0
    5.2775   48.3721   55.5736 C   0  0  0  0  0  3  0  0  0  0  0  0
    5.9106   49.5967   55.5222 C   0  0  0  0  0  3  0  0  0  0  0  0
  1  6  2  0
  2  1  1  0
  2  3  2  0
  3  4  1  0
  4  5  2  0
  4 10  1  0
  6  5  1  0
  7  8  1  0
  7  1  1  0
  9  8  1  0
 10 11  1  0
 11 12  2  0
 12 14  1  0
 13 11  1  0
 13 15  1  0
 14 16  1  0
 15 17  1  0
 15 14  2  0
 17 19  2  0
 18 20  1  0
 18 17  1  0
 20 21  2  0
 21 23  1  0
 22 24  2  0
 22 20  1  0
 24 25  1  0
 25 23  2  0
M  RAD  8   2   2   3   2   5   2   6   2   8   3   9   2  16   2  21   2
M  RAD  4  22   2  23   2  24   2  25   2
M  END
>  <REMARK>  (1) 
 SMILES CCOc1ccc(Nc2nc(C)c(C(=O)Nc3ccccc3)s2)cc1
 SMILES IDX 4 1 5 2 6 3 7 4 24 5 25 6 3 7 2 8 1 9 8 10 9 12 10 13 23 14
 SMILES IDX 11 15 13 16 12 17 14 18 16 19 15 20 17 22 18 23 22 24 19 25
 SMILES IDX 21 26 20 27
 H PARENT 8 11 16 21

>  <TORSDO>  (1) 
F 6

$$$$
