/home/pchatterjee/Documents/git/vs_workflow/DiffDock/diffdock_run/pdbqt_scrubbed/Z48861625.pdbqt
     RDKit          3D

 25 27  0  0  0  0  0  0  0  0999 V2000
    3.5288   40.9929   49.1224 C   0  0  0  0  0  0  0  0  0  0  0  0
    4.2077   41.5841   50.1673 C   0  0  0  0  0  3  0  0  0  0  0  0
    5.5323   41.9555   49.9692 C   0  0  0  0  0  3  0  0  0  0  0  0
    6.1400   41.7281   48.7405 C   0  0  0  0  0  0  0  0  0  0  0  0
    5.4322   41.1310   47.7066 C   0  0  0  0  0  3  0  0  0  0  0  0
    4.1321   40.7673   47.9034 C   0  0  0  0  0  3  0  0  0  0  0  0
    2.1915   40.5876   49.2357 O   0  0  0  0  0  0  0  0  0  0  0  0
    1.5619   40.2212   48.0029 C   0  0  0  0  0  2  0  0  0  0  0  0
    0.1542   39.7325   48.3023 C   0  0  0  0  0  1  0  0  0  0  0  0
    7.4788   42.0830   48.4818 N   0  0  0  0  0  0  0  0  0  0  0  0
    8.0515   43.1246   49.2373 C   0  0  0  0  0  0  0  0  0  0  0  0
    9.1219   43.6917   49.4867 N   0  0  0  0  0  0  0  0  0  0  0  0
    6.8992   44.1458   50.3440 S   0  0  0  0  0  0  0  0  0  0  0  0
    9.2998   44.6977   50.2966 C   0  0  0  0  0  0  0  0  0  0  0  0
    8.2056   45.1799   50.9366 C   0  0  0  0  0  0  0  0  0  0  0  0
   10.6770   45.3093   50.5181 C   0  0  0  0  0  1  0  0  0  0  0  0
    7.9796   46.2582   51.8937 C   0  0  0  0  0  0  0  0  0  0  0  0
    6.7414   46.6203   52.4311 N   0  0  0  0  0  0  0  0  0  0  0  0
    8.9992   46.9114   52.2585 O   0  0  0  0  0  0  0  0  0  0  0  0
    6.6298   47.6679   53.3868 C   0  0  0  0  0  0  0  0  0  0  0  0
    5.5970   47.6980   54.2995 C   0  0  0  0  0  3  0  0  0  0  0  0
    7.5435   48.6992   53.4475 C   0  0  0  0  0  3  0  0  0  0  0  0
    5.4600   48.6987   55.2386 C   0  0  0  0  0  3  0  0  0  0  0  0
    7.4182   49.7062   54.3817 C   0  0  0  0  0  3  0  0  0  0  0  0
    6.3799   49.7250   55.2898 C   0  0  0  0  0  3  0  0  0  0  0  0
  1  6  2  0
  2  1  1  0
  2  3  2  0
  3  4  1  0
  4  5  2  0
  4 10  1  0
  6  5  1  0
  7  8  1  0
  7  1  1  0
  9  8  1  0
 10 11  1  0
 11 12  2  0
 12 14  1  0
 13 11  1  0
 13 15  1  0
 14 16  1  0
 15 17  1  0
 15 14  2  0
 17 19  2  0
 18 20  1  0
 18 17  1  0
 20 21  2  0
 21 23  1  0
 22 24  2  0
 22 20  1  0
 24 25  1  0
 25 23  2  0
M  RAD  8   2   2   3   2   5   2   6   2   8   3   9   2  16   2  21   2
M  RAD  4  22   2  23   2  24   2  25   2
M  END
>  <REMARK>  (1) 
 SMILES CCOc1ccc(Nc2nc(C)c(C(=O)Nc3ccccc3)s2)cc1
 SMILES IDX 4 1 5 2 6 3 7 4 24 5 25 6 3 7 2 8 1 9 8 10 9 12 10 13 23 14
 SMILES IDX 11 15 13 16 12 17 14 18 16 19 15 20 17 22 18 23 22 24 19 25
 SMILES IDX 21 26 20 27
 H PARENT 8 11 16 21

>  <TORSDO>  (1) 
F 6

$$$$
