/home/pchatterjee/Documents/git/vs_workflow/DiffDock/diffdock_run/pdbqt_scrubbed/Z48861625.pdbqt
     RDKit          3D

 25 27  0  0  0  0  0  0  0  0999 V2000
    3.3994   41.7205   48.6064 C   0  0  0  0  0  0  0  0  0  0  0  0
    3.9839   42.0707   49.8056 C   0  0  0  0  0  3  0  0  0  0  0  0
    5.3577   42.2795   49.8353 C   0  0  0  0  0  3  0  0  0  0  0  0
    6.1066   42.1342   48.6740 C   0  0  0  0  0  0  0  0  0  0  0  0
    5.4914   41.7809   47.4810 C   0  0  0  0  0  3  0  0  0  0  0  0
    4.1427   41.5764   47.4542 C   0  0  0  0  0  3  0  0  0  0  0  0
    2.0215   41.4913   48.4869 O   0  0  0  0  0  0  0  0  0  0  0  0
    1.6577   40.1534   48.1288 C   0  0  0  0  0  2  0  0  0  0  0  0
    0.1433   40.0329   48.1730 C   0  0  0  0  0  1  0  0  0  0  0  0
    7.5012   42.3329   48.6436 N   0  0  0  0  0  0  0  0  0  0  0  0
    8.0453   43.3689   49.4272 C   0  0  0  0  0  0  0  0  0  0  0  0
    9.0910   43.9866   49.6611 N   0  0  0  0  0  0  0  0  0  0  0  0
    6.8857   44.2638   50.6315 S   0  0  0  0  0  0  0  0  0  0  0  0
    9.2458   44.9608   50.5135 C   0  0  0  0  0  0  0  0  0  0  0  0
    8.1548   45.3445   51.2220 C   0  0  0  0  0  0  0  0  0  0  0  0
   10.5936   45.6427   50.7090 C   0  0  0  0  0  1  0  0  0  0  0  0
    7.9092   46.3593   52.2416 C   0  0  0  0  0  0  0  0  0  0  0  0
    6.6539   46.7322   52.7298 N   0  0  0  0  0  0  0  0  0  0  0  0
    8.9272   46.9421   52.7141 O   0  0  0  0  0  0  0  0  0  0  0  0
    6.5221   47.7021   53.7619 C   0  0  0  0  0  0  0  0  0  0  0  0
    5.5567   47.5821   54.7388 C   0  0  0  0  0  3  0  0  0  0  0  0
    7.3482   48.8040   53.8362 C   0  0  0  0  0  3  0  0  0  0  0  0
    5.4024   48.5042   55.7527 C   0  0  0  0  0  3  0  0  0  0  0  0
    7.2046   49.7338   54.8449 C   0  0  0  0  0  3  0  0  0  0  0  0
    6.2345   49.6022   55.8168 C   0  0  0  0  0  3  0  0  0  0  0  0
  1  6  2  0
  2  1  1  0
  2  3  2  0
  3  4  1  0
  4  5  2  0
  4 10  1  0
  6  5  1  0
  7  8  1  0
  7  1  1  0
  9  8  1  0
 10 11  1  0
 11 12  2  0
 12 14  1  0
 13 11  1  0
 13 15  1  0
 14 16  1  0
 15 17  1  0
 15 14  2  0
 17 19  2  0
 18 20  1  0
 18 17  1  0
 20 21  2  0
 21 23  1  0
 22 24  2  0
 22 20  1  0
 24 25  1  0
 25 23  2  0
M  RAD  8   2   2   3   2   5   2   6   2   8   3   9   2  16   2  21   2
M  RAD  4  22   2  23   2  24   2  25   2
M  END
>  <REMARK>  (1) 
 SMILES CCOc1ccc(Nc2nc(C)c(C(=O)Nc3ccccc3)s2)cc1
 SMILES IDX 4 1 5 2 6 3 7 4 24 5 25 6 3 7 2 8 1 9 8 10 9 12 10 13 23 14
 SMILES IDX 11 15 13 16 12 17 14 18 16 19 15 20 17 22 18 23 22 24 19 25
 SMILES IDX 21 26 20 27
 H PARENT 8 11 16 21

>  <TORSDO>  (1) 
F 6

$$$$
