/home/pchatterjee/Documents/git/vs_workflow/DiffDock/diffdock_run/pdbqt_scrubbed/Z48861625.pdbqt
     RDKit          3D

 25 27  0  0  0  0  0  0  0  0999 V2000
    3.5507   41.0674   49.0227 C   0  0  0  0  0  0  0  0  0  0  0  0
    4.1593   41.7256   50.0709 C   0  0  0  0  0  3  0  0  0  0  0  0
    5.4414   42.2276   49.8811 C   0  0  0  0  0  3  0  0  0  0  0  0
    6.0778   42.0600   48.6573 C   0  0  0  0  0  0  0  0  0  0  0  0
    5.4409   41.3932   47.6199 C   0  0  0  0  0  3  0  0  0  0  0  0
    4.1823   40.9012   47.8085 C   0  0  0  0  0  3  0  0  0  0  0  0
    2.2600   40.5302   49.1276 O   0  0  0  0  0  0  0  0  0  0  0  0
    1.2054   41.3956   48.6925 C   0  0  0  0  0  2  0  0  0  0  0  0
   -0.1192   40.6685   48.8563 C   0  0  0  0  0  1  0  0  0  0  0  0
    7.3760   42.5469   48.4071 N   0  0  0  0  0  0  0  0  0  0  0  0
    7.9127   43.5028   49.2914 C   0  0  0  0  0  0  0  0  0  0  0  0
    8.9743   44.0070   49.6764 N   0  0  0  0  0  0  0  0  0  0  0  0
    6.7004   44.4768   50.3763 S   0  0  0  0  0  0  0  0  0  0  0  0
    9.1120   44.9383   50.5782 C   0  0  0  0  0  0  0  0  0  0  0  0
    7.9816   45.4101   51.1604 C   0  0  0  0  0  0  0  0  0  0  0  0
   10.4830   45.4773   50.9652 C   0  0  0  0  0  1  0  0  0  0  0  0
    7.7065   46.4173   52.1800 C   0  0  0  0  0  0  0  0  0  0  0  0
    6.4471   46.7160   52.7069 N   0  0  0  0  0  0  0  0  0  0  0  0
    8.7011   47.0667   52.6141 O   0  0  0  0  0  0  0  0  0  0  0  0
    6.2714   47.7693   53.6466 C   0  0  0  0  0  0  0  0  0  0  0  0
    5.7437   48.9858   53.2690 C   0  0  0  0  0  3  0  0  0  0  0  0
    6.6179   47.6270   54.9739 C   0  0  0  0  0  3  0  0  0  0  0  0
    5.5604   50.0269   54.1546 C   0  0  0  0  0  3  0  0  0  0  0  0
    6.4399   48.6603   55.8701 C   0  0  0  0  0  3  0  0  0  0  0  0
    5.9107   49.8730   55.4797 C   0  0  0  0  0  3  0  0  0  0  0  0
  1  6  2  0
  2  1  1  0
  2  3  2  0
  3  4  1  0
  4  5  2  0
  4 10  1  0
  6  5  1  0
  7  8  1  0
  7  1  1  0
  9  8  1  0
 10 11  1  0
 11 12  2  0
 12 14  1  0
 13 11  1  0
 13 15  1  0
 14 16  1  0
 15 17  1  0
 15 14  2  0
 17 19  2  0
 18 20  1  0
 18 17  1  0
 20 21  2  0
 21 23  1  0
 22 24  2  0
 22 20  1  0
 24 25  1  0
 25 23  2  0
M  RAD  8   2   2   3   2   5   2   6   2   8   3   9   2  16   2  21   2
M  RAD  4  22   2  23   2  24   2  25   2
M  END
>  <REMARK>  (1) 
 SMILES CCOc1ccc(Nc2nc(C)c(C(=O)Nc3ccccc3)s2)cc1
 SMILES IDX 4 1 5 2 6 3 7 4 24 5 25 6 3 7 2 8 1 9 8 10 9 12 10 13 23 14
 SMILES IDX 11 15 13 16 12 17 14 18 16 19 15 20 17 22 18 23 22 24 19 25
 SMILES IDX 21 26 20 27
 H PARENT 8 11 16 21

>  <TORSDO>  (1) 
F 6

$$$$
