/home/pchatterjee/Documents/git/vs_workflow/DiffDock/diffdock_run/pdbqt_scrubbed/Z48861625.pdbqt
     RDKit          3D

 25 27  0  0  0  0  0  0  0  0999 V2000
    3.6900   41.0966   49.0129 C   0  0  0  0  0  0  0  0  0  0  0  0
    4.3206   41.6885   50.0873 C   0  0  0  0  0  3  0  0  0  0  0  0
    5.6419   42.0930   49.9375 C   0  0  0  0  0  3  0  0  0  0  0  0
    6.2942   41.8969   48.7264 C   0  0  0  0  0  0  0  0  0  0  0  0
    5.6344   41.2984   47.6621 C   0  0  0  0  0  3  0  0  0  0  0  0
    4.3375   40.9021   47.8114 C   0  0  0  0  0  3  0  0  0  0  0  0
    2.3596   40.6591   49.0771 O   0  0  0  0  0  0  0  0  0  0  0  0
    1.7824   40.2853   47.8211 C   0  0  0  0  0  2  0  0  0  0  0  0
    0.3367   39.8774   48.0524 C   0  0  0  0  0  1  0  0  0  0  0  0
    7.6320   42.2861   48.5163 N   0  0  0  0  0  0  0  0  0  0  0  0
    8.1678   43.3020   49.3315 C   0  0  0  0  0  0  0  0  0  0  0  0
    9.2238   43.8652   49.6433 N   0  0  0  0  0  0  0  0  0  0  0  0
    6.9665   44.2752   50.4293 S   0  0  0  0  0  0  0  0  0  0  0  0
    9.3632   44.8414   50.4961 C   0  0  0  0  0  0  0  0  0  0  0  0
    8.2418   45.2936   51.1102 C   0  0  0  0  0  0  0  0  0  0  0  0
   10.7266   45.4519   50.7935 C   0  0  0  0  0  1  0  0  0  0  0  0
    7.9715   46.3344   52.0968 C   0  0  0  0  0  0  0  0  0  0  0  0
    6.7034   46.7441   52.5178 N   0  0  0  0  0  0  0  0  0  0  0  0
    8.9791   46.9050   52.6052 O   0  0  0  0  0  0  0  0  0  0  0  0
    6.5444   47.6791   53.5780 C   0  0  0  0  0  0  0  0  0  0  0  0
    7.3024   48.8291   53.6388 C   0  0  0  0  0  3  0  0  0  0  0  0
    5.6296   47.4830   54.5914 C   0  0  0  0  0  3  0  0  0  0  0  0
    7.1730   49.7553   54.6524 C   0  0  0  0  0  3  0  0  0  0  0  0
    5.4901   48.4015   55.6110 C   0  0  0  0  0  3  0  0  0  0  0  0
    6.2548   49.5486   55.6605 C   0  0  0  0  0  3  0  0  0  0  0  0
  1  6  2  0
  2  1  1  0
  2  3  2  0
  3  4  1  0
  4  5  2  0
  4 10  1  0
  6  5  1  0
  7  8  1  0
  7  1  1  0
  9  8  1  0
 10 11  1  0
 11 12  2  0
 12 14  1  0
 13 11  1  0
 13 15  1  0
 14 16  1  0
 15 17  1  0
 15 14  2  0
 17 19  2  0
 18 20  1  0
 18 17  1  0
 20 21  2  0
 21 23  1  0
 22 24  2  0
 22 20  1  0
 24 25  1  0
 25 23  2  0
M  RAD  8   2   2   3   2   5   2   6   2   8   3   9   2  16   2  21   2
M  RAD  4  22   2  23   2  24   2  25   2
M  END
>  <REMARK>  (1) 
 SMILES CCOc1ccc(Nc2nc(C)c(C(=O)Nc3ccccc3)s2)cc1
 SMILES IDX 4 1 5 2 6 3 7 4 24 5 25 6 3 7 2 8 1 9 8 10 9 12 10 13 23 14
 SMILES IDX 11 15 13 16 12 17 14 18 16 19 15 20 17 22 18 23 22 24 19 25
 SMILES IDX 21 26 20 27
 H PARENT 8 11 16 21

>  <TORSDO>  (1) 
F 6

$$$$
