/home/pchatterjee/Documents/git/vs_workflow/DiffDock/diffdock_run/pdbqt_scrubbed/Z48861625.pdbqt
     RDKit          3D

 25 27  0  0  0  0  0  0  0  0999 V2000
    3.6080   41.1569   49.0133 C   0  0  0  0  0  0  0  0  0  0  0  0
    4.1975   41.8197   50.0695 C   0  0  0  0  0  3  0  0  0  0  0  0
    5.5253   42.2114   49.9460 C   0  0  0  0  0  3  0  0  0  0  0  0
    6.2249   41.9326   48.7784 C   0  0  0  0  0  0  0  0  0  0  0  0
    5.6059   41.2639   47.7313 C   0  0  0  0  0  3  0  0  0  0  0  0
    4.3024   40.8804   47.8548 C   0  0  0  0  0  3  0  0  0  0  0  0
    2.2744   40.7265   49.0533 O   0  0  0  0  0  0  0  0  0  0  0  0
    2.0090   39.5068   48.3518 C   0  0  0  0  0  2  0  0  0  0  0  0
    0.5489   39.1367   48.5549 C   0  0  0  0  0  1  0  0  0  0  0  0
    7.5715   42.3049   48.5964 N   0  0  0  0  0  0  0  0  0  0  0  0
    8.0779   43.3741   49.3606 C   0  0  0  0  0  0  0  0  0  0  0  0
    9.1161   43.9862   49.6380 N   0  0  0  0  0  0  0  0  0  0  0  0
    6.8514   44.3550   50.4232 S   0  0  0  0  0  0  0  0  0  0  0  0
    9.2279   45.0043   50.4447 C   0  0  0  0  0  0  0  0  0  0  0  0
    8.0958   45.4458   51.0470 C   0  0  0  0  0  0  0  0  0  0  0  0
   10.5716   45.6732   50.7031 C   0  0  0  0  0  1  0  0  0  0  0  0
    7.7967   46.5205   51.9878 C   0  0  0  0  0  0  0  0  0  0  0  0
    6.5183   46.9059   52.4002 N   0  0  0  0  0  0  0  0  0  0  0  0
    8.7877   47.1471   52.4618 O   0  0  0  0  0  0  0  0  0  0  0  0
    6.3336   47.9238   53.3765 C   0  0  0  0  0  0  0  0  0  0  0  0
    5.4998   47.7360   54.4584 C   0  0  0  0  0  3  0  0  0  0  0  0
    6.9753   49.1415   53.2900 C   0  0  0  0  0  3  0  0  0  0  0  0
    5.2989   48.7019   55.4221 C   0  0  0  0  0  3  0  0  0  0  0  0
    6.7832   50.1162   54.2470 C   0  0  0  0  0  3  0  0  0  0  0  0
    5.9461   49.9160   55.3251 C   0  0  0  0  0  3  0  0  0  0  0  0
  1  6  2  0
  2  1  1  0
  2  3  2  0
  3  4  1  0
  4  5  2  0
  4 10  1  0
  6  5  1  0
  7  8  1  0
  7  1  1  0
  9  8  1  0
 10 11  1  0
 11 12  2  0
 12 14  1  0
 13 11  1  0
 13 15  1  0
 14 16  1  0
 15 17  1  0
 15 14  2  0
 17 19  2  0
 18 20  1  0
 18 17  1  0
 20 21  2  0
 21 23  1  0
 22 24  2  0
 22 20  1  0
 24 25  1  0
 25 23  2  0
M  RAD  8   2   2   3   2   5   2   6   2   8   3   9   2  16   2  21   2
M  RAD  4  22   2  23   2  24   2  25   2
M  END
>  <REMARK>  (1) 
 SMILES CCOc1ccc(Nc2nc(C)c(C(=O)Nc3ccccc3)s2)cc1
 SMILES IDX 4 1 5 2 6 3 7 4 24 5 25 6 3 7 2 8 1 9 8 10 9 12 10 13 23 14
 SMILES IDX 11 15 13 16 12 17 14 18 16 19 15 20 17 22 18 23 22 24 19 25
 SMILES IDX 21 26 20 27
 H PARENT 8 11 16 21

>  <TORSDO>  (1) 
F 6

$$$$
