/home/pchatterjee/Documents/git/vs_workflow/DiffDock/diffdock_run/pdbqt_scrubbed/Z48861625.pdbqt
     RDKit          3D

 25 27  0  0  0  0  0  0  0  0999 V2000
    3.5729   41.3709   49.0635 C   0  0  0  0  0  0  0  0  0  0  0  0
    4.1594   41.2648   47.8196 C   0  0  0  0  0  3  0  0  0  0  0  0
    5.5115   41.5630   47.6986 C   0  0  0  0  0  3  0  0  0  0  0  0
    6.2376   41.9567   48.8159 C   0  0  0  0  0  0  0  0  0  0  0  0
    5.6210   42.0547   50.0556 C   0  0  0  0  0  3  0  0  0  0  0  0
    4.2936   41.7616   50.1720 C   0  0  0  0  0  3  0  0  0  0  0  0
    2.2159   41.0895   49.2750 O   0  0  0  0  0  0  0  0  0  0  0  0
    1.7155   39.9487   48.5689 C   0  0  0  0  0  2  0  0  0  0  0  0
    0.2664   39.7259   48.9696 C   0  0  0  0  0  1  0  0  0  0  0  0
    7.6096   42.2712   48.7539 N   0  0  0  0  0  0  0  0  0  0  0  0
    8.0932   43.3137   49.5681 C   0  0  0  0  0  0  0  0  0  0  0  0
    9.1164   43.9404   49.8679 N   0  0  0  0  0  0  0  0  0  0  0  0
    6.8503   44.2027   50.6908 S   0  0  0  0  0  0  0  0  0  0  0  0
    9.2075   44.9182   50.7253 C   0  0  0  0  0  0  0  0  0  0  0  0
    8.0696   45.2952   51.3596 C   0  0  0  0  0  0  0  0  0  0  0  0
   10.5343   45.6114   51.0064 C   0  0  0  0  0  1  0  0  0  0  0  0
    7.7498   46.3109   52.3575 C   0  0  0  0  0  0  0  0  0  0  0  0
    6.4637   46.6523   52.7849 N   0  0  0  0  0  0  0  0  0  0  0  0
    8.7287   46.9258   52.8702 O   0  0  0  0  0  0  0  0  0  0  0  0
    6.2563   47.6549   53.7724 C   0  0  0  0  0  0  0  0  0  0  0  0
    6.8714   48.8856   53.6841 C   0  0  0  0  0  3  0  0  0  0  0  0
    5.4349   47.4470   54.8605 C   0  0  0  0  0  3  0  0  0  0  0  0
    6.6916   49.8788   54.6239 C   0  0  0  0  0  3  0  0  0  0  0  0
    5.2464   48.4317   55.8078 C   0  0  0  0  0  3  0  0  0  0  0  0
    5.8676   49.6594   55.7080 C   0  0  0  0  0  3  0  0  0  0  0  0
  1  6  2  0
  2  1  1  0
  2  3  2  0
  3  4  1  0
  4  5  2  0
  4 10  1  0
  6  5  1  0
  7  8  1  0
  7  1  1  0
  9  8  1  0
 10 11  1  0
 11 12  2  0
 12 14  1  0
 13 11  1  0
 13 15  1  0
 14 16  1  0
 15 17  1  0
 15 14  2  0
 17 19  2  0
 18 20  1  0
 18 17  1  0
 20 21  2  0
 21 23  1  0
 22 24  2  0
 22 20  1  0
 24 25  1  0
 25 23  2  0
M  RAD  8   2   2   3   2   5   2   6   2   8   3   9   2  16   2  21   2
M  RAD  4  22   2  23   2  24   2  25   2
M  END
>  <REMARK>  (1) 
 SMILES CCOc1ccc(Nc2nc(C)c(C(=O)Nc3ccccc3)s2)cc1
 SMILES IDX 4 1 5 2 6 3 7 4 24 5 25 6 3 7 2 8 1 9 8 10 9 12 10 13 23 14
 SMILES IDX 11 15 13 16 12 17 14 18 16 19 15 20 17 22 18 23 22 24 19 25
 SMILES IDX 21 26 20 27
 H PARENT 8 11 16 21

>  <TORSDO>  (1) 
F 6

$$$$
