/home/pchatterjee/Documents/git/vs_workflow/DiffDock/diffdock_run/pdbqt_scrubbed/Z48861625.pdbqt
     RDKit          3D

 25 27  0  0  0  0  0  0  0  0999 V2000
    3.3860   41.5018   49.0178 C   0  0  0  0  0  0  0  0  0  0  0  0
    3.9404   41.3874   47.7601 C   0  0  0  0  0  3  0  0  0  0  0  0
    5.2898   41.6814   47.6032 C   0  0  0  0  0  3  0  0  0  0  0  0
    6.0449   42.0793   48.6996 C   0  0  0  0  0  0  0  0  0  0  0  0
    5.4602   42.1856   49.9539 C   0  0  0  0  0  3  0  0  0  0  0  0
    4.1355   41.8966   50.1056 C   0  0  0  0  0  3  0  0  0  0  0  0
    2.0340   41.2250   49.2652 O   0  0  0  0  0  0  0  0  0  0  0  0
    1.5067   40.0962   48.5595 C   0  0  0  0  0  2  0  0  0  0  0  0
    0.0723   39.8691   49.0078 C   0  0  0  0  0  1  0  0  0  0  0  0
    7.4157   42.3899   48.6012 N   0  0  0  0  0  0  0  0  0  0  0  0
    7.9410   43.3734   49.4616 C   0  0  0  0  0  0  0  0  0  0  0  0
    8.9927   43.9250   49.8070 N   0  0  0  0  0  0  0  0  0  0  0  0
    6.7262   44.3014   50.5835 S   0  0  0  0  0  0  0  0  0  0  0  0
    9.1213   44.8670   50.6991 C   0  0  0  0  0  0  0  0  0  0  0  0
    7.9924   45.2936   51.3181 C   0  0  0  0  0  0  0  0  0  0  0  0
   10.4804   45.4666   51.0354 C   0  0  0  0  0  1  0  0  0  0  0  0
    7.7097   46.2944   52.3418 C   0  0  0  0  0  0  0  0  0  0  0  0
    6.4365   46.6851   52.7653 N   0  0  0  0  0  0  0  0  0  0  0  0
    8.7108   46.8464   52.8826 O   0  0  0  0  0  0  0  0  0  0  0  0
    6.2646   47.7008   53.7462 C   0  0  0  0  0  0  0  0  0  0  0  0
    5.2311   47.6495   54.6572 C   0  0  0  0  0  3  0  0  0  0  0  0
    7.1180   48.7807   53.8343 C   0  0  0  0  0  3  0  0  0  0  0  0
    5.0365   48.6174   55.6203 C   0  0  0  0  0  3  0  0  0  0  0  0
    6.9348   49.7556   54.7927 C   0  0  0  0  0  3  0  0  0  0  0  0
    5.8965   49.6928   55.6987 C   0  0  0  0  0  3  0  0  0  0  0  0
  1  6  2  0
  2  1  1  0
  2  3  2  0
  3  4  1  0
  4  5  2  0
  4 10  1  0
  6  5  1  0
  7  8  1  0
  7  1  1  0
  9  8  1  0
 10 11  1  0
 11 12  2  0
 12 14  1  0
 13 11  1  0
 13 15  1  0
 14 16  1  0
 15 17  1  0
 15 14  2  0
 17 19  2  0
 18 20  1  0
 18 17  1  0
 20 21  2  0
 21 23  1  0
 22 24  2  0
 22 20  1  0
 24 25  1  0
 25 23  2  0
M  RAD  8   2   2   3   2   5   2   6   2   8   3   9   2  16   2  21   2
M  RAD  4  22   2  23   2  24   2  25   2
M  END
>  <REMARK>  (1) 
 SMILES CCOc1ccc(Nc2nc(C)c(C(=O)Nc3ccccc3)s2)cc1
 SMILES IDX 4 1 5 2 6 3 7 4 24 5 25 6 3 7 2 8 1 9 8 10 9 12 10 13 23 14
 SMILES IDX 11 15 13 16 12 17 14 18 16 19 15 20 17 22 18 23 22 24 19 25
 SMILES IDX 21 26 20 27
 H PARENT 8 11 16 21

>  <TORSDO>  (1) 
F 6

$$$$
