/home/pchatterjee/Documents/git/vs_workflow/DiffDock/diffdock_run/pdbqt_scrubbed/Z645508114.pdbqt
     RDKit          3D

 23 26  0  0  0  0  0  0  0  0999 V2000
    5.6858   44.9998   51.4206 N   0  0  0  0  0  0  0  0  0  0  0  0
    6.9593   44.8176   50.7959 C   0  0  0  0  0  0  0  0  0  0  0  0
    8.2916   43.8194   49.2028 C   0  0  0  0  0  3  0  0  0  0  0  0
    7.0876   43.9514   49.7596 N   0  0  0  0  0  0  0  0  0  0  0  0
    9.3703   44.5035   49.6270 N   0  0  0  0  0  0  0  0  0  0  0  0
    9.2579   45.3563   50.6461 C   0  0  0  0  0  0  0  0  0  0  0  0
    8.0428   45.5309   51.2521 C   0  0  0  0  0  0  0  0  0  0  0  0
   10.1723   46.1562   51.2529 N   0  0  0  0  0  0  0  0  0  0  0  0
    8.2304   46.4421   52.2328 N   0  0  0  0  0  0  0  0  0  0  0  0
    9.5369   46.8240   52.2319 C   0  0  0  0  0  3  0  0  0  0  0  0
    4.7825   43.8568   51.5960 C   0  0  0  0  0  2  0  0  0  0  0  0
    3.6855   44.3917   52.4658 C   0  0  0  0  0  0  0  0  0  0  0  0
    2.5970   44.9645   51.8248 C   0  0  0  0  0  3  0  0  0  0  0  0
    3.7430   44.3198   53.8456 C   0  0  0  0  0  3  0  0  0  0  0  0
    1.5644   45.4629   52.6005 C   0  0  0  0  0  3  0  0  0  0  0  0
    2.7031   44.8230   54.5783 N   0  0  0  0  0  0  0  0  0  0  0  0
    1.6297   45.3856   53.9946 C   0  0  0  0  0  0  0  0  0  0  0  0
    0.5300   45.9122   54.7220 N   0  0  0  0  0  0  0  0  0  0  0  0
    0.4386   45.8569   56.1694 C   0  0  0  0  0  2  0  0  0  0  0  0
   -0.5795   46.5456   54.0146 C   0  0  0  0  0  2  0  0  0  0  0  0
   -0.6760   44.8940   56.4982 C   0  0  0  0  0  2  0  0  0  0  0  0
   -1.8261   45.7971   54.4458 C   0  0  0  0  0  2  0  0  0  0  0  0
   -1.5205   44.5816   55.2843 C   0  0  0  0  0  2  0  0  0  0  0  0
  1  2  1  0
  2  7  1  0
  3  5  2  0
  4  3  1  0
  4  2  2  0
  5  6  1  0
  6  8  1  0
  7  6  2  0
  7  9  1  0
  8 10  2  0
  9 10  1  0
 11  1  1  0
 12 11  1  0
 12 13  2  0
 14 12  1  0
 15 13  1  0
 16 14  2  0
 16 17  1  0
 17 15  2  0
 18 17  1  0
 18 19  1  0
 20 22  1  0
 20 18  1  0
 21 19  1  0
 22 23  1  0
 23 21  1  0
M  RAD  8   3   2  10   2  11   3  13   2  14   2  15   2  19   3  20   3
M  RAD  3  21   3  22   3  23   3
M  END
>  <REMARK>  (1) 
 SMILES c1nc(NCc2ccc(N3CCCCC3)nc2)c2[nH]cnc2n1
 SMILES IDX 4 1 3 3 1 4 2 5 23 6 22 7 18 8 21 9 19 10 20 11 5 13 6 14
 SMILES IDX 7 15 17 16 8 17 16 18 9 19 10 20 11 21 15 22 12 23 14 24
 SMILES IDX 13 25
 H PARENT 4 2 19 12

>  <TORSDO>  (1) 
F 4

$$$$
