/home/pchatterjee/Documents/git/vs_workflow/DiffDock/diffdock_run/pdbqt_scrubbed/Z645508114.pdbqt
     RDKit          3D

 23 26  0  0  0  0  0  0  0  0999 V2000
    5.5788   44.9372   51.2822 N   0  0  0  0  0  0  0  0  0  0  0  0
    6.8330   44.7309   50.6266 C   0  0  0  0  0  0  0  0  0  0  0  0
    8.0846   43.8009   48.9301 C   0  0  0  0  0  3  0  0  0  0  0  0
    6.8960   43.9591   49.5126 N   0  0  0  0  0  0  0  0  0  0  0  0
    9.2094   44.3697   49.4019 N   0  0  0  0  0  0  0  0  0  0  0  0
    9.1613   45.1288   50.4974 C   0  0  0  0  0  0  0  0  0  0  0  0
    7.9649   45.3255   51.1329 C   0  0  0  0  0  0  0  0  0  0  0  0
   10.1313   45.8064   51.1639 N   0  0  0  0  0  0  0  0  0  0  0  0
    8.2197   46.1263   52.1916 N   0  0  0  0  0  0  0  0  0  0  0  0
    9.5487   46.4198   52.2091 C   0  0  0  0  0  3  0  0  0  0  0  0
    4.3894   44.1983   50.8435 C   0  0  0  0  0  2  0  0  0  0  0  0
    3.3283   44.6067   51.8200 C   0  0  0  0  0  0  0  0  0  0  0  0
    3.0603   43.7303   52.8610 C   0  0  0  0  0  3  0  0  0  0  0  0
    2.6435   45.8023   51.7009 C   0  0  0  0  0  3  0  0  0  0  0  0
    2.0891   44.0816   53.7830 C   0  0  0  0  0  3  0  0  0  0  0  0
    1.6910   46.1148   52.6317 N   0  0  0  0  0  0  0  0  0  0  0  0
    1.4022   45.2922   53.6561 C   0  0  0  0  0  0  0  0  0  0  0  0
    0.4252   45.5860   54.6435 N   0  0  0  0  0  0  0  0  0  0  0  0
    0.4545   45.0201   55.9796 C   0  0  0  0  0  2  0  0  0  0  0  0
   -0.6755   46.4952   54.3362 C   0  0  0  0  0  2  0  0  0  0  0  0
   -0.7145   44.0707   56.0755 C   0  0  0  0  0  2  0  0  0  0  0  0
   -1.9462   45.7164   54.6176 C   0  0  0  0  0  2  0  0  0  0  0  0
   -1.6870   44.2652   54.9350 C   0  0  0  0  0  2  0  0  0  0  0  0
  1  2  1  0
  2  7  1  0
  3  5  2  0
  4  3  1  0
  4  2  2  0
  5  6  1  0
  6  8  1  0
  7  6  2  0
  7  9  1  0
  8 10  2  0
  9 10  1  0
 11  1  1  0
 12 11  1  0
 12 13  2  0
 14 12  1  0
 15 13  1  0
 16 14  2  0
 16 17  1  0
 17 15  2  0
 18 17  1  0
 18 19  1  0
 20 22  1  0
 20 18  1  0
 21 19  1  0
 22 23  1  0
 23 21  1  0
M  RAD  8   3   2  10   2  11   3  13   2  14   2  15   2  19   3  20   3
M  RAD  3  21   3  22   3  23   3
M  END
>  <REMARK>  (1) 
 SMILES c1nc(NCc2ccc(N3CCCCC3)nc2)c2[nH]cnc2n1
 SMILES IDX 4 1 3 3 1 4 2 5 23 6 22 7 18 8 21 9 19 10 20 11 5 13 6 14
 SMILES IDX 7 15 17 16 8 17 16 18 9 19 10 20 11 21 15 22 12 23 14 24
 SMILES IDX 13 25
 H PARENT 4 2 19 12

>  <TORSDO>  (1) 
F 4

$$$$
