/home/pchatterjee/Documents/git/vs_workflow/DiffDock/diffdock_run/pdbqt_scrubbed/Z645508114.pdbqt
     RDKit          3D

 23 26  0  0  0  0  0  0  0  0999 V2000
    5.7928   45.0419   51.3962 N   0  0  0  0  0  0  0  0  0  0  0  0
    7.0041   44.7494   50.6944 C   0  0  0  0  0  0  0  0  0  0  0  0
    8.1602   43.5737   49.0849 C   0  0  0  0  0  3  0  0  0  0  0  0
    7.0105   43.8077   49.7178 N   0  0  0  0  0  0  0  0  0  0  0  0
    9.2997   44.2275   49.3771 N   0  0  0  0  0  0  0  0  0  0  0  0
    9.3072   45.1539   50.3365 C   0  0  0  0  0  0  0  0  0  0  0  0
    8.1523   45.4343   51.0159 C   0  0  0  0  0  0  0  0  0  0  0  0
   10.3028   45.9444   50.8139 N   0  0  0  0  0  0  0  0  0  0  0  0
    8.4583   46.4002   51.9107 N   0  0  0  0  0  0  0  0  0  0  0  0
    9.7776   46.7113   51.7855 C   0  0  0  0  0  3  0  0  0  0  0  0
    5.2825   44.1054   52.4042 C   0  0  0  0  0  2  0  0  0  0  0  0
    3.8041   44.3509   52.4116 C   0  0  0  0  0  0  0  0  0  0  0  0
    3.1488   44.2093   53.6258 C   0  0  0  0  0  3  0  0  0  0  0  0
    3.1143   44.7066   51.2669 C   0  0  0  0  0  3  0  0  0  0  0  0
    1.7835   44.4347   53.6665 C   0  0  0  0  0  3  0  0  0  0  0  0
    1.7657   44.9212   51.3469 N   0  0  0  0  0  0  0  0  0  0  0  0
    1.0939   44.7948   52.5054 C   0  0  0  0  0  0  0  0  0  0  0  0
   -0.3034   45.0156   52.6272 N   0  0  0  0  0  0  0  0  0  0  0  0
   -0.9531   45.2973   53.8940 C   0  0  0  0  0  2  0  0  0  0  0  0
   -1.1583   44.9639   51.4444 C   0  0  0  0  0  2  0  0  0  0  0  0
   -1.8000   44.0931   54.2256 C   0  0  0  0  0  2  0  0  0  0  0  0
   -2.2199   43.9237   51.7466 C   0  0  0  0  0  2  0  0  0  0  0  0
   -1.9633   43.1795   53.0327 C   0  0  0  0  0  2  0  0  0  0  0  0
  1  2  1  0
  2  7  1  0
  3  5  2  0
  4  3  1  0
  4  2  2  0
  5  6  1  0
  6  8  1  0
  7  6  2  0
  7  9  1  0
  8 10  2  0
  9 10  1  0
 11  1  1  0
 12 11  1  0
 12 13  2  0
 14 12  1  0
 15 13  1  0
 16 14  2  0
 16 17  1  0
 17 15  2  0
 18 17  1  0
 18 19  1  0
 20 22  1  0
 20 18  1  0
 21 19  1  0
 22 23  1  0
 23 21  1  0
M  RAD  8   3   2  10   2  11   3  13   2  14   2  15   2  19   3  20   3
M  RAD  3  21   3  22   3  23   3
M  END
>  <REMARK>  (1) 
 SMILES c1nc(NCc2ccc(N3CCCCC3)nc2)c2[nH]cnc2n1
 SMILES IDX 4 1 3 3 1 4 2 5 23 6 22 7 18 8 21 9 19 10 20 11 5 13 6 14
 SMILES IDX 7 15 17 16 8 17 16 18 9 19 10 20 11 21 15 22 12 23 14 24
 SMILES IDX 13 25
 H PARENT 4 2 19 12

>  <TORSDO>  (1) 
F 4

$$$$
