/home/pchatterjee/Documents/git/vs_workflow/DiffDock/diffdock_run/pdbqt_scrubbed/Z645508114.pdbqt
     RDKit          3D

 23 26  0  0  0  0  0  0  0  0999 V2000
    6.9300   43.1203   49.2637 N   0  0  0  0  0  0  0  0  0  0  0  0
    7.0228   44.1933   50.2046 C   0  0  0  0  0  0  0  0  0  0  0  0
    6.0282   45.7722   51.5564 C   0  0  0  0  0  3  0  0  0  0  0  0
    5.8941   44.7811   50.6750 N   0  0  0  0  0  0  0  0  0  0  0  0
    7.2264   46.2062   51.9891 N   0  0  0  0  0  0  0  0  0  0  0  0
    8.3435   45.6383   51.5328 C   0  0  0  0  0  0  0  0  0  0  0  0
    8.2616   44.6146   50.6276 C   0  0  0  0  0  0  0  0  0  0  0  0
    9.6512   45.8815   51.8063 N   0  0  0  0  0  0  0  0  0  0  0  0
    9.5317   44.2417   50.3539 N   0  0  0  0  0  0  0  0  0  0  0  0
   10.3823   45.0201   51.0773 C   0  0  0  0  0  3  0  0  0  0  0  0
    6.3578   41.8321   49.6716 C   0  0  0  0  0  2  0  0  0  0  0  0
    5.2799   41.5782   48.6618 C   0  0  0  0  0  0  0  0  0  0  0  0
    5.6857   41.2191   47.3850 C   0  0  0  0  0  3  0  0  0  0  0  0
    3.9382   41.6899   48.9779 C   0  0  0  0  0  3  0  0  0  0  0  0
    4.7135   40.9723   46.4309 C   0  0  0  0  0  3  0  0  0  0  0  0
    3.0068   41.4379   48.0083 N   0  0  0  0  0  0  0  0  0  0  0  0
    3.3596   41.0866   46.7587 C   0  0  0  0  0  0  0  0  0  0  0  0
    2.4212   40.8116   45.7292 N   0  0  0  0  0  0  0  0  0  0  0  0
    2.7876   40.1941   44.4680 C   0  0  0  0  0  2  0  0  0  0  0  0
    1.0131   41.1529   45.9123 C   0  0  0  0  0  2  0  0  0  0  0  0
    2.6254   41.2510   43.4031 C   0  0  0  0  0  2  0  0  0  0  0  0
    0.6513   42.0546   44.7476 C   0  0  0  0  0  2  0  0  0  0  0  0
    1.8453   42.4413   43.9118 C   0  0  0  0  0  2  0  0  0  0  0  0
  1  2  1  0
  2  7  1  0
  3  5  2  0
  4  3  1  0
  4  2  2  0
  5  6  1  0
  6  8  1  0
  7  6  2  0
  7  9  1  0
  8 10  2  0
  9 10  1  0
 11  1  1  0
 12 11  1  0
 12 13  2  0
 14 12  1  0
 15 13  1  0
 16 14  2  0
 16 17  1  0
 17 15  2  0
 18 17  1  0
 18 19  1  0
 20 22  1  0
 20 18  1  0
 21 19  1  0
 22 23  1  0
 23 21  1  0
M  RAD  8   3   2  10   2  11   3  13   2  14   2  15   2  19   3  20   3
M  RAD  3  21   3  22   3  23   3
M  END
>  <REMARK>  (1) 
 SMILES c1nc(NCc2ccc(N3CCCCC3)nc2)c2[nH]cnc2n1
 SMILES IDX 4 1 3 3 1 4 2 5 23 6 22 7 18 8 21 9 19 10 20 11 5 13 6 14
 SMILES IDX 7 15 17 16 8 17 16 18 9 19 10 20 11 21 15 22 12 23 14 24
 SMILES IDX 13 25
 H PARENT 4 2 19 12

>  <TORSDO>  (1) 
F 4

$$$$
