/home/pchatterjee/Documents/git/vs_workflow/DiffDock/diffdock_run/pdbqt_scrubbed/Z645508114.pdbqt
     RDKit          3D

 23 26  0  0  0  0  0  0  0  0999 V2000
    5.8266   45.9622   51.2946 N   0  0  0  0  0  0  0  0  0  0  0  0
    6.9575   45.2434   50.7948 C   0  0  0  0  0  0  0  0  0  0  0  0
    7.8563   43.4957   49.5918 C   0  0  0  0  0  3  0  0  0  0  0  0
    6.7735   44.1292   50.0429 N   0  0  0  0  0  0  0  0  0  0  0  0
    9.1083   43.9146   49.8534 N   0  0  0  0  0  0  0  0  0  0  0  0
    9.3027   45.0072   50.5931 C   0  0  0  0  0  0  0  0  0  0  0  0
    8.2243   45.6964   51.0793 C   0  0  0  0  0  0  0  0  0  0  0  0
   10.4410   45.6311   50.9918 N   0  0  0  0  0  0  0  0  0  0  0  0
    8.7203   46.7419   51.7779 N   0  0  0  0  0  0  0  0  0  0  0  0
   10.0797   46.6999   51.7233 C   0  0  0  0  0  3  0  0  0  0  0  0
    5.7210   46.2633   52.7268 C   0  0  0  0  0  2  0  0  0  0  0  0
    4.3399   45.8101   53.0917 C   0  0  0  0  0  0  0  0  0  0  0  0
    3.2971   46.2712   52.3019 C   0  0  0  0  0  3  0  0  0  0  0  0
    4.1039   44.9675   54.1626 C   0  0  0  0  0  3  0  0  0  0  0  0
    2.0097   45.8659   52.6099 C   0  0  0  0  0  3  0  0  0  0  0  0
    2.8181   44.5887   54.4356 N   0  0  0  0  0  0  0  0  0  0  0  0
    1.7797   45.0135   53.6934 C   0  0  0  0  0  0  0  0  0  0  0  0
    0.4339   44.6363   53.9430 N   0  0  0  0  0  0  0  0  0  0  0  0
   -0.6411   44.8632   52.9948 C   0  0  0  0  0  2  0  0  0  0  0  0
    0.0770   43.9882   55.2022 C   0  0  0  0  0  2  0  0  0  0  0  0
   -1.5367   45.9181   53.5969 C   0  0  0  0  0  2  0  0  0  0  0  0
   -1.0091   44.8497   55.8174 C   0  0  0  0  0  2  0  0  0  0  0  0
   -1.2372   46.1348   55.0623 C   0  0  0  0  0  2  0  0  0  0  0  0
  1  2  1  0
  2  7  1  0
  3  5  2  0
  4  3  1  0
  4  2  2  0
  5  6  1  0
  6  8  1  0
  7  6  2  0
  7  9  1  0
  8 10  2  0
  9 10  1  0
 11  1  1  0
 12 11  1  0
 12 13  2  0
 14 12  1  0
 15 13  1  0
 16 14  2  0
 16 17  1  0
 17 15  2  0
 18 17  1  0
 18 19  1  0
 20 22  1  0
 20 18  1  0
 21 19  1  0
 22 23  1  0
 23 21  1  0
M  RAD  8   3   2  10   2  11   3  13   2  14   2  15   2  19   3  20   3
M  RAD  3  21   3  22   3  23   3
M  END
>  <REMARK>  (1) 
 SMILES c1nc(NCc2ccc(N3CCCCC3)nc2)c2[nH]cnc2n1
 SMILES IDX 4 1 3 3 1 4 2 5 23 6 22 7 18 8 21 9 19 10 20 11 5 13 6 14
 SMILES IDX 7 15 17 16 8 17 16 18 9 19 10 20 11 21 15 22 12 23 14 24
 SMILES IDX 13 25
 H PARENT 4 2 19 12

>  <TORSDO>  (1) 
F 4

$$$$
