/home/pchatterjee/Documents/git/vs_workflow/DiffDock/diffdock_run/pdbqt_scrubbed/Z645508114.pdbqt
     RDKit          3D

 23 26  0  0  0  0  0  0  0  0999 V2000
    5.6170   44.7655   51.2807 N   0  0  0  0  0  0  0  0  0  0  0  0
    6.8899   44.5585   50.6625 C   0  0  0  0  0  0  0  0  0  0  0  0
    8.2066   43.5512   49.0622 C   0  0  0  0  0  3  0  0  0  0  0  0
    7.0023   43.7071   49.6122 N   0  0  0  0  0  0  0  0  0  0  0  0
    9.3004   44.1974   49.5064 N   0  0  0  0  0  0  0  0  0  0  0  0
    9.2037   45.0352   50.5395 C   0  0  0  0  0  0  0  0  0  0  0  0
    7.9892   45.2332   51.1393 C   0  0  0  0  0  0  0  0  0  0  0  0
   10.1351   45.7986   51.1671 N   0  0  0  0  0  0  0  0  0  0  0  0
    8.1942   46.1216   52.1372 N   0  0  0  0  0  0  0  0  0  0  0  0
    9.5108   46.4667   52.1529 C   0  0  0  0  0  3  0  0  0  0  0  0
    4.8110   43.6158   51.7072 C   0  0  0  0  0  2  0  0  0  0  0  0
    3.5825   44.2349   52.3018 C   0  0  0  0  0  0  0  0  0  0  0  0
    2.7356   43.3962   53.0112 C   0  0  0  0  0  3  0  0  0  0  0  0
    3.2975   45.5807   52.1595 C   0  0  0  0  0  3  0  0  0  0  0  0
    1.5950   43.9393   53.5775 C   0  0  0  0  0  3  0  0  0  0  0  0
    2.1610   46.0806   52.7336 N   0  0  0  0  0  0  0  0  0  0  0  0
    1.3147   45.3006   53.4298 C   0  0  0  0  0  0  0  0  0  0  0  0
    0.1301   45.7855   54.0442 N   0  0  0  0  0  0  0  0  0  0  0  0
   -0.1954   45.5436   55.4377 C   0  0  0  0  0  2  0  0  0  0  0  0
   -0.8291   46.5674   53.2688 C   0  0  0  0  0  2  0  0  0  0  0  0
   -1.3797   44.6084   55.4515 C   0  0  0  0  0  2  0  0  0  0  0  0
   -2.1531   45.8380   53.3922 C   0  0  0  0  0  2  0  0  0  0  0  0
   -2.0272   44.5070   54.0896 C   0  0  0  0  0  2  0  0  0  0  0  0
  1  2  1  0
  2  7  1  0
  3  5  2  0
  4  3  1  0
  4  2  2  0
  5  6  1  0
  6  8  1  0
  7  6  2  0
  7  9  1  0
  8 10  2  0
  9 10  1  0
 11  1  1  0
 12 11  1  0
 12 13  2  0
 14 12  1  0
 15 13  1  0
 16 14  2  0
 16 17  1  0
 17 15  2  0
 18 17  1  0
 18 19  1  0
 20 22  1  0
 20 18  1  0
 21 19  1  0
 22 23  1  0
 23 21  1  0
M  RAD  8   3   2  10   2  11   3  13   2  14   2  15   2  19   3  20   3
M  RAD  3  21   3  22   3  23   3
M  END
>  <REMARK>  (1) 
 SMILES c1nc(NCc2ccc(N3CCCCC3)nc2)c2[nH]cnc2n1
 SMILES IDX 4 1 3 3 1 4 2 5 23 6 22 7 18 8 21 9 19 10 20 11 5 13 6 14
 SMILES IDX 7 15 17 16 8 17 16 18 9 19 10 20 11 21 15 22 12 23 14 24
 SMILES IDX 13 25
 H PARENT 4 2 19 12

>  <TORSDO>  (1) 
F 4

$$$$
