/home/pchatterjee/Documents/git/vs_workflow/DiffDock/diffdock_run/pdbqt_scrubbed/Z645508114.pdbqt
     RDKit          3D

 23 26  0  0  0  0  0  0  0  0999 V2000
    5.6223   45.0254   51.5694 N   0  0  0  0  0  0  0  0  0  0  0  0
    6.8641   44.7342   50.9225 C   0  0  0  0  0  0  0  0  0  0  0  0
    8.0873   43.5792   49.3480 C   0  0  0  0  0  3  0  0  0  0  0  0
    6.9099   43.8127   49.9279 N   0  0  0  0  0  0  0  0  0  0  0  0
    9.2173   44.2143   49.7101 N   0  0  0  0  0  0  0  0  0  0  0  0
    9.1861   45.1207   50.6879 C   0  0  0  0  0  0  0  0  0  0  0  0
    8.0017   45.3997   51.3150 C   0  0  0  0  0  0  0  0  0  0  0  0
   10.1644   45.8903   51.2307 N   0  0  0  0  0  0  0  0  0  0  0  0
    8.2722   46.3437   52.2440 N   0  0  0  0  0  0  0  0  0  0  0  0
    9.5991   46.6428   52.1910 C   0  0  0  0  0  3  0  0  0  0  0  0
    4.4345   44.2137   51.2805 C   0  0  0  0  0  2  0  0  0  0  0  0
    3.4409   44.6432   52.3171 C   0  0  0  0  0  0  0  0  0  0  0  0
    3.6380   44.1776   53.6086 C   0  0  0  0  0  3  0  0  0  0  0  0
    2.3743   45.4690   52.0123 C   0  0  0  0  0  3  0  0  0  0  0  0
    2.7403   44.5613   54.5902 C   0  0  0  0  0  3  0  0  0  0  0  0
    1.5085   45.8267   53.0092 N   0  0  0  0  0  0  0  0  0  0  0  0
    1.6654   45.3969   54.2742 C   0  0  0  0  0  0  0  0  0  0  0  0
    0.7912   45.7523   55.3350 N   0  0  0  0  0  0  0  0  0  0  0  0
    1.1357   45.5853   56.7349 C   0  0  0  0  0  2  0  0  0  0  0  0
   -0.5245   46.3143   55.0418 C   0  0  0  0  0  2  0  0  0  0  0  0
    0.2483   44.4900   57.2734 C   0  0  0  0  0  2  0  0  0  0  0  0
   -1.5246   45.4104   55.7370 C   0  0  0  0  0  2  0  0  0  0  0  0
   -0.8892   44.1775   56.3286 C   0  0  0  0  0  2  0  0  0  0  0  0
  1  2  1  0
  2  7  1  0
  3  5  2  0
  4  3  1  0
  4  2  2  0
  5  6  1  0
  6  8  1  0
  7  6  2  0
  7  9  1  0
  8 10  2  0
  9 10  1  0
 11  1  1  0
 12 11  1  0
 12 13  2  0
 14 12  1  0
 15 13  1  0
 16 14  2  0
 16 17  1  0
 17 15  2  0
 18 17  1  0
 18 19  1  0
 20 22  1  0
 20 18  1  0
 21 19  1  0
 22 23  1  0
 23 21  1  0
M  RAD  8   3   2  10   2  11   3  13   2  14   2  15   2  19   3  20   3
M  RAD  3  21   3  22   3  23   3
M  END
>  <REMARK>  (1) 
 SMILES c1nc(NCc2ccc(N3CCCCC3)nc2)c2[nH]cnc2n1
 SMILES IDX 4 1 3 3 1 4 2 5 23 6 22 7 18 8 21 9 19 10 20 11 5 13 6 14
 SMILES IDX 7 15 17 16 8 17 16 18 9 19 10 20 11 21 15 22 12 23 14 24
 SMILES IDX 13 25
 H PARENT 4 2 19 12

>  <TORSDO>  (1) 
F 4

$$$$
