/home/pchatterjee/Documents/git/vs_workflow/DiffDock/diffdock_run/pdbqt_scrubbed/Z645508114.pdbqt
     RDKit          3D

 23 26  0  0  0  0  0  0  0  0999 V2000
    7.6089   46.8563   52.5130 N   0  0  0  0  0  0  0  0  0  0  0  0
    8.2065   46.0109   51.5264 C   0  0  0  0  0  0  0  0  0  0  0  0
   10.0388   45.3316   50.3055 C   0  0  0  0  0  3  0  0  0  0  0  0
    9.5225   46.1464   51.2257 N   0  0  0  0  0  0  0  0  0  0  0  0
    9.3113   44.3937   49.6712 N   0  0  0  0  0  0  0  0  0  0  0  0
    8.0162   44.2518   49.9561 C   0  0  0  0  0  0  0  0  0  0  0  0
    7.4369   45.0619   50.8955 C   0  0  0  0  0  0  0  0  0  0  0  0
    7.0784   43.3973   49.4720 N   0  0  0  0  0  0  0  0  0  0  0  0
    6.1392   44.6916   50.9739 N   0  0  0  0  0  0  0  0  0  0  0  0
    5.9213   43.6710   50.0999 C   0  0  0  0  0  3  0  0  0  0  0  0
    7.9131   46.6564   53.9345 C   0  0  0  0  0  2  0  0  0  0  0  0
    8.1916   48.0382   54.4435 C   0  0  0  0  0  0  0  0  0  0  0  0
    7.0941   48.8317   54.7424 C   0  0  0  0  0  3  0  0  0  0  0  0
    9.4801   48.5103   54.6151 C   0  0  0  0  0  3  0  0  0  0  0  0
    7.3184   50.1116   55.2201 C   0  0  0  0  0  3  0  0  0  0  0  0
    9.6617   49.7805   55.0895 N   0  0  0  0  0  0  0  0  0  0  0  0
    8.6237   50.5810   55.3915 C   0  0  0  0  0  0  0  0  0  0  0  0
    8.7740   51.9013   55.8915 N   0  0  0  0  0  0  0  0  0  0  0  0
   10.0670   52.5216   56.1137 C   0  0  0  0  0  2  0  0  0  0  0  0
    7.5947   52.7023   56.2088 C   0  0  0  0  0  2  0  0  0  0  0  0
   10.2307   52.6629   57.6072 C   0  0  0  0  0  2  0  0  0  0  0  0
    7.7516   53.1120   57.6607 C   0  0  0  0  0  2  0  0  0  0  0  0
    8.9241   52.4458   58.3353 C   0  0  0  0  0  2  0  0  0  0  0  0
  1  2  1  0
  2  7  1  0
  3  5  2  0
  4  3  1  0
  4  2  2  0
  5  6  1  0
  6  8  1  0
  7  6  2  0
  7  9  1  0
  8 10  2  0
  9 10  1  0
 11  1  1  0
 12 11  1  0
 12 13  2  0
 14 12  1  0
 15 13  1  0
 16 14  2  0
 16 17  1  0
 17 15  2  0
 18 17  1  0
 18 19  1  0
 20 22  1  0
 20 18  1  0
 21 19  1  0
 22 23  1  0
 23 21  1  0
M  RAD  8   3   2  10   2  11   3  13   2  14   2  15   2  19   3  20   3
M  RAD  3  21   3  22   3  23   3
M  END
>  <REMARK>  (1) 
 SMILES c1nc(NCc2ccc(N3CCCCC3)nc2)c2[nH]cnc2n1
 SMILES IDX 4 1 3 3 1 4 2 5 23 6 22 7 18 8 21 9 19 10 20 11 5 13 6 14
 SMILES IDX 7 15 17 16 8 17 16 18 9 19 10 20 11 21 15 22 12 23 14 24
 SMILES IDX 13 25
 H PARENT 4 2 19 12

>  <TORSDO>  (1) 
F 4

$$$$
