/home/pchatterjee/Documents/git/vs_workflow/DiffDock/diffdock_run/pdbqt_scrubbed/Z645508114.pdbqt
     RDKit          3D

 23 26  0  0  0  0  0  0  0  0999 V2000
    7.0345   42.8237   49.4530 N   0  0  0  0  0  0  0  0  0  0  0  0
    7.1032   43.9128   50.3775 C   0  0  0  0  0  0  0  0  0  0  0  0
    6.0785   45.4151   51.7926 C   0  0  0  0  0  3  0  0  0  0  0  0
    5.9660   44.4049   50.9301 N   0  0  0  0  0  0  0  0  0  0  0  0
    7.2630   45.9586   52.1287 N   0  0  0  0  0  0  0  0  0  0  0  0
    8.3879   45.4855   51.5909 C   0  0  0  0  0  0  0  0  0  0  0  0
    8.3284   44.4469   50.7010 C   0  0  0  0  0  0  0  0  0  0  0  0
    9.6859   45.8464   51.7612 N   0  0  0  0  0  0  0  0  0  0  0  0
    9.6020   44.1840   50.3322 N   0  0  0  0  0  0  0  0  0  0  0  0
   10.4328   45.0435   50.9831 C   0  0  0  0  0  3  0  0  0  0  0  0
    6.1773   41.6680   49.7406 C   0  0  0  0  0  2  0  0  0  0  0  0
    5.2540   41.5992   48.5621 C   0  0  0  0  0  0  0  0  0  0  0  0
    3.9142   41.8712   48.7958 C   0  0  0  0  0  3  0  0  0  0  0  0
    5.7064   41.2837   47.2939 C   0  0  0  0  0  3  0  0  0  0  0  0
    3.0366   41.8214   47.7262 C   0  0  0  0  0  3  0  0  0  0  0  0
    4.8091   41.2445   46.2621 N   0  0  0  0  0  0  0  0  0  0  0  0
    3.5020   41.5025   46.4474 C   0  0  0  0  0  0  0  0  0  0  0  0
    2.5438   41.4774   45.4000 N   0  0  0  0  0  0  0  0  0  0  0  0
    1.1692   41.9094   45.5736 C   0  0  0  0  0  2  0  0  0  0  0  0
    2.9227   41.0001   44.0728 C   0  0  0  0  0  2  0  0  0  0  0  0
    0.3092   40.6733   45.4757 C   0  0  0  0  0  2  0  0  0  0  0  0
    1.9605   39.8736   43.7481 C   0  0  0  0  0  2  0  0  0  0  0  0
    1.0789   39.5005   44.9131 C   0  0  0  0  0  2  0  0  0  0  0  0
  1  2  1  0
  2  7  1  0
  3  5  2  0
  4  3  1  0
  4  2  2  0
  5  6  1  0
  6  8  1  0
  7  6  2  0
  7  9  1  0
  8 10  2  0
  9 10  1  0
 11  1  1  0
 12 11  1  0
 12 13  2  0
 14 12  1  0
 15 13  1  0
 16 14  2  0
 16 17  1  0
 17 15  2  0
 18 17  1  0
 18 19  1  0
 20 22  1  0
 20 18  1  0
 21 19  1  0
 22 23  1  0
 23 21  1  0
M  RAD  8   3   2  10   2  11   3  13   2  14   2  15   2  19   3  20   3
M  RAD  3  21   3  22   3  23   3
M  END
>  <REMARK>  (1) 
 SMILES c1nc(NCc2ccc(N3CCCCC3)nc2)c2[nH]cnc2n1
 SMILES IDX 4 1 3 3 1 4 2 5 23 6 22 7 18 8 21 9 19 10 20 11 5 13 6 14
 SMILES IDX 7 15 17 16 8 17 16 18 9 19 10 20 11 21 15 22 12 23 14 24
 SMILES IDX 13 25
 H PARENT 4 2 19 12

>  <TORSDO>  (1) 
F 4

$$$$
