/home/pchatterjee/Documents/git/vs_workflow/DiffDock/diffdock_run/pdbqt_scrubbed/Z645508114.pdbqt
     RDKit          3D

 23 26  0  0  0  0  0  0  0  0999 V2000
    5.8740   45.2147   51.5741 N   0  0  0  0  0  0  0  0  0  0  0  0
    7.0304   44.9054   50.7917 C   0  0  0  0  0  0  0  0  0  0  0  0
    8.0285   43.8116   49.0262 C   0  0  0  0  0  3  0  0  0  0  0  0
    6.9261   44.0651   49.7317 N   0  0  0  0  0  0  0  0  0  0  0  0
    9.2253   44.3501   49.3247 N   0  0  0  0  0  0  0  0  0  0  0  0
    9.3416   45.1758   50.3655 C   0  0  0  0  0  0  0  0  0  0  0  0
    8.2395   45.4713   51.1218 C   0  0  0  0  0  0  0  0  0  0  0  0
   10.4128   45.8425   50.8677 N   0  0  0  0  0  0  0  0  0  0  0  0
    8.6537   46.3211   52.0881 N   0  0  0  0  0  0  0  0  0  0  0  0
    9.9867   46.5470   51.9308 C   0  0  0  0  0  3  0  0  0  0  0  0
    4.6888   45.7986   50.9356 C   0  0  0  0  0  2  0  0  0  0  0  0
    3.6026   44.8024   51.2078 C   0  0  0  0  0  0  0  0  0  0  0  0
    2.4541   45.2766   51.8241 C   0  0  0  0  0  3  0  0  0  0  0  0
    3.7269   43.4694   50.8613 C   0  0  0  0  0  3  0  0  0  0  0  0
    1.4299   44.3820   52.0840 C   0  0  0  0  0  3  0  0  0  0  0  0
    2.6933   42.6157   51.1341 N   0  0  0  0  0  0  0  0  0  0  0  0
    1.5630   43.0365   51.7298 C   0  0  0  0  0  0  0  0  0  0  0  0
    0.4682   42.1811   52.0225 N   0  0  0  0  0  0  0  0  0  0  0  0
    0.1867   40.9705   51.2733 C   0  0  0  0  0  2  0  0  0  0  0  0
   -0.4386   42.5030   53.1211 C   0  0  0  0  0  2  0  0  0  0  0  0
   -1.0885   41.2204   50.5061 C   0  0  0  0  0  2  0  0  0  0  0  0
   -1.8253   42.5600   52.5094 C   0  0  0  0  0  2  0  0  0  0  0  0
   -1.8085   42.4519   51.0055 C   0  0  0  0  0  2  0  0  0  0  0  0
  1  2  1  0
  2  7  1  0
  3  5  2  0
  4  3  1  0
  4  2  2  0
  5  6  1  0
  6  8  1  0
  7  6  2  0
  7  9  1  0
  8 10  2  0
  9 10  1  0
 11  1  1  0
 12 11  1  0
 12 13  2  0
 14 12  1  0
 15 13  1  0
 16 14  2  0
 16 17  1  0
 17 15  2  0
 18 17  1  0
 18 19  1  0
 20 22  1  0
 20 18  1  0
 21 19  1  0
 22 23  1  0
 23 21  1  0
M  RAD  8   3   2  10   2  11   3  13   2  14   2  15   2  19   3  20   3
M  RAD  3  21   3  22   3  23   3
M  END
>  <REMARK>  (1) 
 SMILES c1nc(NCc2ccc(N3CCCCC3)nc2)c2[nH]cnc2n1
 SMILES IDX 4 1 3 3 1 4 2 5 23 6 22 7 18 8 21 9 19 10 20 11 5 13 6 14
 SMILES IDX 7 15 17 16 8 17 16 18 9 19 10 20 11 21 15 22 12 23 14 24
 SMILES IDX 13 25
 H PARENT 4 2 19 12

>  <TORSDO>  (1) 
F 4

$$$$
