/home/pchatterjee/Documents/git/vs_workflow/DiffDock/diffdock_run/pdbqt_scrubbed/5329551.pdbqt
     RDKit          3D

 25 28  0  0  1  0  0  0  0  0999 V2000
    7.6695   43.3713   49.5883 C   0  0  0  0  0  0  0  0  0  0  0  0
    6.6682   44.0548   50.3316 N   0  0  0  0  0  0  0  0  0  0  0  0
    6.9445   45.0984   51.0841 C   0  0  0  0  0  0  0  0  0  0  0  0
    8.2465   45.5863   51.1795 C   0  0  0  0  0  3  0  0  0  0  0  0
    8.8003   46.4196   52.1385 N   0  0  0  0  0  0  0  0  0  0  0  0
   10.2166   46.5740   51.6748 C   0  0  0  0  0  2  0  0  0  0  0  0
   10.4042   45.4761   50.7592 N   0  0  0  0  0  0  0  0  0  0  0  0
    9.2848   44.8831   50.4538 C   0  0  0  0  0  0  0  0  0  0  0  0
    8.9206   43.7676   49.6427 N   0  0  0  0  0  0  0  0  0  0  0  0
    7.3366   42.2446   48.7708 N   0  0  0  0  0  0  0  0  0  0  0  0
    5.9595   41.8944   48.6463 C   0  0  0  0  0  0  0  0  0  0  0  0
    3.9944   41.3181   47.3603 C   0  0  0  0  0  0  0  0  0  0  0  0
    3.2804   41.2223   48.5393 C   0  0  0  0  0  3  0  0  0  0  0  0
    5.3469   41.6593   47.4429 C   0  0  0  0  0  3  0  0  0  0  0  0
    3.8811   41.4556   49.7596 C   0  0  0  0  0  3  0  0  0  0  0  0
    5.2242   41.7927   49.8159 C   0  0  0  0  0  3  0  0  0  0  0  0
    3.4106   41.0894   46.1458 F   0  0  0  0  0  0  0  0  0  0  0  0
    5.8788   45.6954   51.7823 O   0  0  0  0  0  0  0  0  0  0  0  0
    4.6448   45.0227   51.7717 C   0  0  0  0  0  2  0  0  0  0  0  0
    4.1455   45.0256   53.2110 C   0  0  0  0  0  3  0  0  0  0  0  0
    3.7844   46.4737   53.5049 C   0  0  0  0  0  2  0  0  0  0  0  0
    2.8343   44.2612   53.1821 C   0  0  0  0  0  2  0  0  0  0  0  0
    3.0727   46.9731   52.2643 C   0  0  0  0  0  2  0  0  0  0  0  0
    1.9160   44.7582   52.1063 C   0  0  0  0  0  2  0  0  0  0  0  0
    1.7537   46.2527   52.1056 C   0  0  0  0  0  2  0  0  0  0  0  0
  1 10  1  0
  2  1  1  0
  3  2  2  0
  4  8  1  0
  4  3  1  0
  5  4  1  0
  6  5  1  0
  6  7  1  0
  7  8  2  0
  8  9  1  0
  9  1  2  0
 10 11  1  0
 11 16  1  0
 12 13  2  0
 13 15  1  0
 14 11  2  0
 14 12  1  0
 16 15  2  0
 17 12  1  0
 18  3  1  0
 18 19  1  0
 20 22  1  0
 20 19  1  0
 21 20  1  0
 23 25  1  0
 23 21  1  0
 24 22  1  0
 25 24  1  0
M  RAD  8   4   2   6   3  13   2  14   2  15   2  16   2  19   3  20   2
M  RAD  5  21   3  22   3  23   3  24   3  25   3
M  END
>  <REMARK>  (1) 
 SMILES Fc1cccc(Nc2nc(OCC3CCCCC3)c3[nH]cnc3n2)c1
 SMILES IDX 8 1 9 2 10 3 19 4 20 5 21 6 22 7 23 8 24 9 7 11 6 13 2 14
 SMILES IDX 3 15 25 16 4 17 5 18 1 19 11 20 12 21 13 22 14 23 18 24
 SMILES IDX 15 25 17 26 16 27
 H PARENT 20 10 7 12

>  <TORSDO>  (1) 
F 5

$$$$
