/home/pchatterjee/Documents/git/vs_workflow/DiffDock/diffdock_run/pdbqt_scrubbed/5329551.pdbqt
     RDKit          3D

 25 28  0  0  1  0  0  0  0  0999 V2000
    7.7379   43.3102   49.5632 C   0  0  0  0  0  0  0  0  0  0  0  0
    6.7230   44.0345   50.2471 N   0  0  0  0  0  0  0  0  0  0  0  0
    6.9895   45.1033   50.9671 C   0  0  0  0  0  0  0  0  0  0  0  0
    8.2943   45.5786   51.0851 C   0  0  0  0  0  3  0  0  0  0  0  0
    8.8288   46.4420   52.0283 N   0  0  0  0  0  0  0  0  0  0  0  0
   10.2610   46.5607   51.6046 C   0  0  0  0  0  2  0  0  0  0  0  0
   10.4625   45.4257   50.7387 N   0  0  0  0  0  0  0  0  0  0  0  0
    9.3454   44.8349   50.4208 C   0  0  0  0  0  0  0  0  0  0  0  0
    8.9920   43.6930   49.6423 N   0  0  0  0  0  0  0  0  0  0  0  0
    7.4158   42.1566   48.7797 N   0  0  0  0  0  0  0  0  0  0  0  0
    6.0418   41.7924   48.6622 C   0  0  0  0  0  0  0  0  0  0  0  0
    3.8039   41.5285   49.5395 C   0  0  0  0  0  0  0  0  0  0  0  0
    3.4022   41.0527   48.3061 C   0  0  0  0  0  3  0  0  0  0  0  0
    5.1435   41.8953   49.6923 C   0  0  0  0  0  3  0  0  0  0  0  0
    4.2931   40.9425   47.2579 C   0  0  0  0  0  3  0  0  0  0  0  0
    5.6170   41.3128   47.4340 C   0  0  0  0  0  3  0  0  0  0  0  0
    2.9310   41.6422   50.5850 F   0  0  0  0  0  0  0  0  0  0  0  0
    5.9104   45.7401   51.6072 O   0  0  0  0  0  0  0  0  0  0  0  0
    4.6952   45.0373   51.6734 C   0  0  0  0  0  2  0  0  0  0  0  0
    4.2242   45.1357   53.1189 C   0  0  0  0  0  3  0  0  0  0  0  0
    3.7494   46.5711   53.2866 C   0  0  0  0  0  2  0  0  0  0  0  0
    2.9808   44.2683   53.1954 C   0  0  0  0  0  2  0  0  0  0  0  0
    2.9758   46.8917   52.0241 C   0  0  0  0  0  2  0  0  0  0  0  0
    2.0045   44.5853   52.1026 C   0  0  0  0  0  2  0  0  0  0  0  0
    1.7185   46.0549   51.9676 C   0  0  0  0  0  2  0  0  0  0  0  0
  1 10  1  0
  2  1  1  0
  3  2  2  0
  4  8  1  0
  4  3  1  0
  5  4  1  0
  6  5  1  0
  6  7  1  0
  7  8  2  0
  8  9  1  0
  9  1  2  0
 10 11  1  0
 11 16  1  0
 12 13  2  0
 13 15  1  0
 14 11  2  0
 14 12  1  0
 16 15  2  0
 17 12  1  0
 18  3  1  0
 18 19  1  0
 20 22  1  0
 20 19  1  0
 21 20  1  0
 23 25  1  0
 23 21  1  0
 24 22  1  0
 25 24  1  0
M  RAD  8   4   2   6   3  13   2  14   2  15   2  16   2  19   3  20   2
M  RAD  5  21   3  22   3  23   3  24   3  25   3
M  END
>  <REMARK>  (1) 
 SMILES Fc1cccc(Nc2nc(OCC3CCCCC3)c3[nH]cnc3n2)c1
 SMILES IDX 8 1 9 2 10 3 19 4 20 5 21 6 22 7 23 8 24 9 7 11 6 13 2 14
 SMILES IDX 3 15 25 16 4 17 5 18 1 19 11 20 12 21 13 22 14 23 18 24
 SMILES IDX 15 25 17 26 16 27
 H PARENT 20 10 7 12

>  <TORSDO>  (1) 
F 5

$$$$
