/home/pchatterjee/Documents/git/vs_workflow/DiffDock/diffdock_run/pdbqt_scrubbed/5329551.pdbqt
     RDKit          3D

 25 28  0  0  1  0  0  0  0  0999 V2000
    7.6867   43.4568   49.6632 C   0  0  0  0  0  0  0  0  0  0  0  0
    6.7050   44.2083   50.3659 N   0  0  0  0  0  0  0  0  0  0  0  0
    7.0115   45.2794   51.0662 C   0  0  0  0  0  0  0  0  0  0  0  0
    8.3280   45.7303   51.1435 C   0  0  0  0  0  3  0  0  0  0  0  0
    8.9045   46.5932   52.0620 N   0  0  0  0  0  0  0  0  0  0  0  0
   10.3266   46.6793   51.5985 C   0  0  0  0  0  2  0  0  0  0  0  0
   10.4826   45.5312   50.7405 N   0  0  0  0  0  0  0  0  0  0  0  0
    9.3461   44.9589   50.4596 C   0  0  0  0  0  0  0  0  0  0  0  0
    8.9496   43.8158   49.7040 N   0  0  0  0  0  0  0  0  0  0  0  0
    7.3212   42.3012   48.9019 N   0  0  0  0  0  0  0  0  0  0  0  0
    5.9430   41.9356   48.8644 C   0  0  0  0  0  0  0  0  0  0  0  0
    3.9583   41.1414   47.7340 C   0  0  0  0  0  0  0  0  0  0  0  0
    3.2639   41.2575   48.9228 C   0  0  0  0  0  3  0  0  0  0  0  0
    5.3112   41.4908   47.7323 C   0  0  0  0  0  3  0  0  0  0  0  0
    3.8840   41.7036   50.0721 C   0  0  0  0  0  3  0  0  0  0  0  0
    5.2272   42.0442   50.0454 C   0  0  0  0  0  3  0  0  0  0  0  0
    3.3552   40.7009   46.5894 F   0  0  0  0  0  0  0  0  0  0  0  0
    5.9627   45.9442   51.7279 O   0  0  0  0  0  0  0  0  0  0  0  0
    4.7766   45.2217   51.9431 C   0  0  0  0  0  2  0  0  0  0  0  0
    4.2271   45.6942   53.2832 C   0  0  0  0  0  3  0  0  0  0  0  0
    3.1555   46.7166   52.9365 C   0  0  0  0  0  2  0  0  0  0  0  0
    3.4959   44.4961   53.8615 C   0  0  0  0  0  2  0  0  0  0  0  0
    2.3954   46.1257   51.7669 C   0  0  0  0  0  2  0  0  0  0  0  0
    2.5462   43.8856   52.8750 C   0  0  0  0  0  2  0  0  0  0  0  0
    1.6460   44.8918   52.2141 C   0  0  0  0  0  2  0  0  0  0  0  0
  1 10  1  0
  2  1  1  0
  3  2  2  0
  4  8  1  0
  4  3  1  0
  5  4  1  0
  6  5  1  0
  6  7  1  0
  7  8  2  0
  8  9  1  0
  9  1  2  0
 10 11  1  0
 11 16  1  0
 12 13  2  0
 13 15  1  0
 14 11  2  0
 14 12  1  0
 16 15  2  0
 17 12  1  0
 18  3  1  0
 18 19  1  0
 20 22  1  0
 20 19  1  0
 21 20  1  0
 23 25  1  0
 23 21  1  0
 24 22  1  0
 25 24  1  0
M  RAD  8   4   2   6   3  13   2  14   2  15   2  16   2  19   3  20   2
M  RAD  5  21   3  22   3  23   3  24   3  25   3
M  END
>  <REMARK>  (1) 
 SMILES Fc1cccc(Nc2nc(OCC3CCCCC3)c3[nH]cnc3n2)c1
 SMILES IDX 8 1 9 2 10 3 19 4 20 5 21 6 22 7 23 8 24 9 7 11 6 13 2 14
 SMILES IDX 3 15 25 16 4 17 5 18 1 19 11 20 12 21 13 22 14 23 18 24
 SMILES IDX 15 25 17 26 16 27
 H PARENT 20 10 7 12

>  <TORSDO>  (1) 
F 5

$$$$
