/home/pchatterjee/Documents/git/vs_workflow/DiffDock/diffdock_run/pdbqt_scrubbed/5329551.pdbqt
     RDKit          3D

 25 28  0  0  1  0  0  0  0  0999 V2000
    7.6144   43.4376   49.4970 C   0  0  0  0  0  0  0  0  0  0  0  0
    6.6180   44.1739   50.1952 N   0  0  0  0  0  0  0  0  0  0  0  0
    6.9098   45.2284   50.9262 C   0  0  0  0  0  0  0  0  0  0  0  0
    8.2246   45.6761   51.0424 C   0  0  0  0  0  3  0  0  0  0  0  0
    8.7814   46.5173   51.9927 N   0  0  0  0  0  0  0  0  0  0  0  0
   10.2133   46.6124   51.5623 C   0  0  0  0  0  2  0  0  0  0  0  0
   10.3873   45.4839   50.6819 N   0  0  0  0  0  0  0  0  0  0  0  0
    9.2568   44.9195   50.3634 C   0  0  0  0  0  0  0  0  0  0  0  0
    8.8763   43.7942   49.5735 N   0  0  0  0  0  0  0  0  0  0  0  0
    7.2649   42.3001   48.7018 N   0  0  0  0  0  0  0  0  0  0  0  0
    5.9015   41.8810   48.6997 C   0  0  0  0  0  0  0  0  0  0  0  0
    3.7765   41.4681   49.7775 C   0  0  0  0  0  0  0  0  0  0  0  0
    3.2708   41.0432   48.5639 C   0  0  0  0  0  3  0  0  0  0  0  0
    5.1092   41.8862   49.8181 C   0  0  0  0  0  3  0  0  0  0  0  0
    4.0542   41.0314   47.4279 C   0  0  0  0  0  3  0  0  0  0  0  0
    5.3734   41.4509   47.4934 C   0  0  0  0  0  3  0  0  0  0  0  0
    3.0106   41.4843   50.9093 F   0  0  0  0  0  0  0  0  0  0  0  0
    5.8472   45.8791   51.5799 O   0  0  0  0  0  0  0  0  0  0  0  0
    4.6612   45.1483   51.7655 C   0  0  0  0  0  2  0  0  0  0  0  0
    4.2493   45.3658   53.2160 C   0  0  0  0  0  3  0  0  0  0  0  0
    3.6144   46.7477   53.2472 C   0  0  0  0  0  2  0  0  0  0  0  0
    3.1235   44.3785   53.4654 C   0  0  0  0  0  2  0  0  0  0  0  0
    2.7503   46.8244   52.0053 C   0  0  0  0  0  2  0  0  0  0  0  0
    2.0667   44.4490   52.4043 C   0  0  0  0  0  2  0  0  0  0  0  0
    1.6010   45.8497   52.1201 C   0  0  0  0  0  2  0  0  0  0  0  0
  1 10  1  0
  2  1  1  0
  3  2  2  0
  4  8  1  0
  4  3  1  0
  5  4  1  0
  6  5  1  0
  6  7  1  0
  7  8  2  0
  8  9  1  0
  9  1  2  0
 10 11  1  0
 11 16  1  0
 12 13  2  0
 13 15  1  0
 14 11  2  0
 14 12  1  0
 16 15  2  0
 17 12  1  0
 18  3  1  0
 18 19  1  0
 20 22  1  0
 20 19  1  0
 21 20  1  0
 23 25  1  0
 23 21  1  0
 24 22  1  0
 25 24  1  0
M  RAD  8   4   2   6   3  13   2  14   2  15   2  16   2  19   3  20   2
M  RAD  5  21   3  22   3  23   3  24   3  25   3
M  END
>  <REMARK>  (1) 
 SMILES Fc1cccc(Nc2nc(OCC3CCCCC3)c3[nH]cnc3n2)c1
 SMILES IDX 8 1 9 2 10 3 19 4 20 5 21 6 22 7 23 8 24 9 7 11 6 13 2 14
 SMILES IDX 3 15 25 16 4 17 5 18 1 19 11 20 12 21 13 22 14 23 18 24
 SMILES IDX 15 25 17 26 16 27
 H PARENT 20 10 7 12

>  <TORSDO>  (1) 
F 5

$$$$
