/home/pchatterjee/Documents/git/vs_workflow/DiffDock/diffdock_run/pdbqt_scrubbed/5329551.pdbqt
     RDKit          3D

 25 28  0  0  1  0  0  0  0  0999 V2000
    9.7262   62.7822   83.9700 C   0  0  0  0  0  0  0  0  0  0  0  0
    9.9760   63.9869   83.2569 N   0  0  0  0  0  0  0  0  0  0  0  0
    9.0039   64.7793   82.8582 C   0  0  0  0  0  0  0  0  0  0  0  0
    7.6723   64.4687   83.1280 C   0  0  0  0  0  3  0  0  0  0  0  0
    6.5217   64.9575   82.5299 N   0  0  0  0  0  0  0  0  0  0  0  0
    5.4290   64.2444   83.2663 C   0  0  0  0  0  2  0  0  0  0  0  0
    6.0995   63.1308   83.8900 N   0  0  0  0  0  0  0  0  0  0  0  0
    7.3973   63.2293   83.8261 C   0  0  0  0  0  0  0  0  0  0  0  0
    8.4942   62.4197   84.2461 N   0  0  0  0  0  0  0  0  0  0  0  0
   10.8052   61.9453   84.3990 N   0  0  0  0  0  0  0  0  0  0  0  0
   12.0479   62.5694   84.7161 C   0  0  0  0  0  0  0  0  0  0  0  0
   13.5984   63.6213   86.2449 C   0  0  0  0  0  0  0  0  0  0  0  0
   14.4931   63.7637   85.2017 C   0  0  0  0  0  3  0  0  0  0  0  0
   12.3698   63.0142   85.9719 C   0  0  0  0  0  3  0  0  0  0  0  0
   14.1856   63.3216   83.9311 C   0  0  0  0  0  3  0  0  0  0  0  0
   12.9604   62.7225   83.6851 C   0  0  0  0  0  3  0  0  0  0  0  0
   13.8914   64.0551   87.5074 F   0  0  0  0  0  0  0  0  0  0  0  0
    9.3631   65.9433   82.1542 O   0  0  0  0  0  0  0  0  0  0  0  0
   10.7350   66.2179   82.0209 C   0  0  0  0  0  2  0  0  0  0  0  0
   10.9608   67.5819   82.6608 C   0  0  0  0  0  3  0  0  0  0  0  0
   12.4189   67.9154   82.3845 C   0  0  0  0  0  2  0  0  0  0  0  0
   10.1411   68.5542   81.8320 C   0  0  0  0  0  2  0  0  0  0  0  0
   12.6637   67.5013   80.9480 C   0  0  0  0  0  2  0  0  0  0  0  0
   10.4019   68.4019   80.3634 C   0  0  0  0  0  2  0  0  0  0  0  0
   11.8646   68.3840   80.0173 C   0  0  0  0  0  2  0  0  0  0  0  0
  1 10  1  0
  2  1  1  0
  3  2  2  0
  4  8  1  0
  4  3  1  0
  5  4  1  0
  6  5  1  0
  6  7  1  0
  7  8  2  0
  8  9  1  0
  9  1  2  0
 10 11  1  0
 11 16  1  0
 12 13  2  0
 13 15  1  0
 14 11  2  0
 14 12  1  0
 16 15  2  0
 17 12  1  0
 18  3  1  0
 18 19  1  0
 20 22  1  0
 20 19  1  0
 21 20  1  0
 23 25  1  0
 23 21  1  0
 24 22  1  0
 25 24  1  0
M  RAD  8   4   2   6   3  13   2  14   2  15   2  16   2  19   3  20   2
M  RAD  5  21   3  22   3  23   3  24   3  25   3
M  END
>  <REMARK>  (1) 
 SMILES Fc1cccc(Nc2nc(OCC3CCCCC3)c3[nH]cnc3n2)c1
 SMILES IDX 8 1 9 2 10 3 19 4 20 5 21 6 22 7 23 8 24 9 7 11 6 13 2 14
 SMILES IDX 3 15 25 16 4 17 5 18 1 19 11 20 12 21 13 22 14 23 18 24
 SMILES IDX 15 25 17 26 16 27
 H PARENT 20 10 7 12

>  <TORSDO>  (1) 
F 5

$$$$
