/home/pchatterjee/Documents/git/vs_workflow/DiffDock/diffdock_run/pdbqt_scrubbed/5329551.pdbqt
     RDKit          3D

 25 28  0  0  1  0  0  0  0  0999 V2000
   12.7553   65.7799   83.0279 C   0  0  0  0  0  0  0  0  0  0  0  0
   11.3737   65.5105   83.2300 N   0  0  0  0  0  0  0  0  0  0  0  0
   10.4303   66.1845   82.6076 C   0  0  0  0  0  0  0  0  0  0  0  0
   10.7517   67.1995   81.7081 C   0  0  0  0  0  3  0  0  0  0  0  0
    9.9542   68.2245   81.2245 N   0  0  0  0  0  0  0  0  0  0  0  0
   10.8749   68.9616   80.3004 C   0  0  0  0  0  2  0  0  0  0  0  0
   12.1899   68.5250   80.6988 N   0  0  0  0  0  0  0  0  0  0  0  0
   12.1537   67.5088   81.5136 C   0  0  0  0  0  0  0  0  0  0  0  0
   13.1306   66.7327   82.2053 N   0  0  0  0  0  0  0  0  0  0  0  0
   13.7590   65.0231   83.7124 N   0  0  0  0  0  0  0  0  0  0  0  0
   13.3443   64.1872   84.7911 C   0  0  0  0  0  0  0  0  0  0  0  0
   12.3936   62.1562   85.6959 C   0  0  0  0  0  0  0  0  0  0  0  0
   12.5814   62.6631   86.9674 C   0  0  0  0  0  3  0  0  0  0  0  0
   12.7880   62.9472   84.6136 C   0  0  0  0  0  3  0  0  0  0  0  0
   13.1400   63.9095   87.1645 C   0  0  0  0  0  3  0  0  0  0  0  0
   13.5233   64.6756   86.0751 C   0  0  0  0  0  3  0  0  0  0  0  0
   11.8414   60.9233   85.4879 F   0  0  0  0  0  0  0  0  0  0  0  0
    9.0950   65.8399   82.8864 O   0  0  0  0  0  0  0  0  0  0  0  0
    8.8767   64.8066   83.8138 C   0  0  0  0  0  2  0  0  0  0  0  0
    8.0225   63.7667   83.0998 C   0  0  0  0  0  3  0  0  0  0  0  0
    7.8508   62.6355   84.1021 C   0  0  0  0  0  2  0  0  0  0  0  0
    6.6546   64.4072   82.9479 C   0  0  0  0  0  2  0  0  0  0  0  0
    7.5896   63.3102   85.4331 C   0  0  0  0  0  2  0  0  0  0  0  0
    6.1533   64.9784   84.2403 C   0  0  0  0  0  2  0  0  0  0  0  0
    6.2562   64.0206   85.3942 C   0  0  0  0  0  2  0  0  0  0  0  0
  1 10  1  0
  2  1  1  0
  3  2  2  0
  4  8  1  0
  4  3  1  0
  5  4  1  0
  6  5  1  0
  6  7  1  0
  7  8  2  0
  8  9  1  0
  9  1  2  0
 10 11  1  0
 11 16  1  0
 12 13  2  0
 13 15  1  0
 14 11  2  0
 14 12  1  0
 16 15  2  0
 17 12  1  0
 18  3  1  0
 18 19  1  0
 20 22  1  0
 20 19  1  0
 21 20  1  0
 23 25  1  0
 23 21  1  0
 24 22  1  0
 25 24  1  0
M  RAD  8   4   2   6   3  13   2  14   2  15   2  16   2  19   3  20   2
M  RAD  5  21   3  22   3  23   3  24   3  25   3
M  END
>  <REMARK>  (1) 
 SMILES Fc1cccc(Nc2nc(OCC3CCCCC3)c3[nH]cnc3n2)c1
 SMILES IDX 8 1 9 2 10 3 19 4 20 5 21 6 22 7 23 8 24 9 7 11 6 13 2 14
 SMILES IDX 3 15 25 16 4 17 5 18 1 19 11 20 12 21 13 22 14 23 18 24
 SMILES IDX 15 25 17 26 16 27
 H PARENT 20 10 7 12

>  <TORSDO>  (1) 
F 5

$$$$
