/home/pchatterjee/Documents/git/vs_workflow/DiffDock/diffdock_run/pdbqt_scrubbed/5329551.pdbqt
     RDKit          3D

 25 28  0  0  1  0  0  0  0  0999 V2000
    7.7232   43.4252   49.5659 C   0  0  0  0  0  0  0  0  0  0  0  0
    6.7134   44.0659   50.3354 N   0  0  0  0  0  0  0  0  0  0  0  0
    6.9726   45.0960   51.1121 C   0  0  0  0  0  0  0  0  0  0  0  0
    8.2638   45.6118   51.2084 C   0  0  0  0  0  3  0  0  0  0  0  0
    8.8071   46.4331   52.1836 N   0  0  0  0  0  0  0  0  0  0  0  0
   10.2150   46.6324   51.7115 C   0  0  0  0  0  2  0  0  0  0  0  0
   10.4194   45.5630   50.7664 N   0  0  0  0  0  0  0  0  0  0  0  0
    9.3112   44.9519   50.4557 C   0  0  0  0  0  0  0  0  0  0  0  0
    8.9653   43.8492   49.6194 N   0  0  0  0  0  0  0  0  0  0  0  0
    7.4089   42.3122   48.7226 N   0  0  0  0  0  0  0  0  0  0  0  0
    6.0453   41.9019   48.6401 C   0  0  0  0  0  0  0  0  0  0  0  0
    3.8168   41.6489   49.5442 C   0  0  0  0  0  0  0  0  0  0  0  0
    3.4269   41.0632   48.3551 C   0  0  0  0  0  3  0  0  0  0  0  0
    5.1459   42.0638   49.6616 C   0  0  0  0  0  3  0  0  0  0  0  0
    4.3191   40.8924   47.3162 C   0  0  0  0  0  3  0  0  0  0  0  0
    5.6324   41.3121   47.4567 C   0  0  0  0  0  3  0  0  0  0  0  0
    2.9425   41.8235   50.5801 F   0  0  0  0  0  0  0  0  0  0  0  0
    5.8999   45.6498   51.8348 O   0  0  0  0  0  0  0  0  0  0  0  0
    4.7907   44.8215   52.0771 C   0  0  0  0  0  2  0  0  0  0  0  0
    3.7095   45.2596   51.0972 C   0  0  0  0  0  3  0  0  0  0  0  0
    2.6474   44.1728   51.1634 C   0  0  0  0  0  2  0  0  0  0  0  0
    3.0857   46.4976   51.7157 C   0  0  0  0  0  2  0  0  0  0  0  0
    2.5010   43.8389   52.6338 C   0  0  0  0  0  2  0  0  0  0  0  0
    2.7050   46.2804   53.1495 C   0  0  0  0  0  2  0  0  0  0  0  0
    1.9154   45.0208   53.3715 C   0  0  0  0  0  2  0  0  0  0  0  0
  1 10  1  0
  2  1  1  0
  3  2  2  0
  4  8  1  0
  4  3  1  0
  5  4  1  0
  6  5  1  0
  6  7  1  0
  7  8  2  0
  8  9  1  0
  9  1  2  0
 10 11  1  0
 11 16  1  0
 12 13  2  0
 13 15  1  0
 14 11  2  0
 14 12  1  0
 16 15  2  0
 17 12  1  0
 18  3  1  0
 18 19  1  0
 20 22  1  0
 20 19  1  0
 21 20  1  0
 23 25  1  0
 23 21  1  0
 24 22  1  0
 25 24  1  0
M  RAD  8   4   2   6   3  13   2  14   2  15   2  16   2  19   3  20   2
M  RAD  5  21   3  22   3  23   3  24   3  25   3
M  END
>  <REMARK>  (1) 
 SMILES Fc1cccc(Nc2nc(OCC3CCCCC3)c3[nH]cnc3n2)c1
 SMILES IDX 8 1 9 2 10 3 19 4 20 5 21 6 22 7 23 8 24 9 7 11 6 13 2 14
 SMILES IDX 3 15 25 16 4 17 5 18 1 19 11 20 12 21 13 22 14 23 18 24
 SMILES IDX 15 25 17 26 16 27
 H PARENT 20 10 7 12

>  <TORSDO>  (1) 
F 5

$$$$
