/home/pchatterjee/Documents/git/vs_workflow/DiffDock/diffdock_run/pdbqt_scrubbed/5329551.pdbqt
     RDKit          3D

 25 28  0  0  1  0  0  0  0  0999 V2000
    7.7225   43.2435   49.5963 C   0  0  0  0  0  0  0  0  0  0  0  0
    6.7432   43.9969   50.3005 N   0  0  0  0  0  0  0  0  0  0  0  0
    7.0569   45.0495   51.0251 C   0  0  0  0  0  0  0  0  0  0  0  0
    8.3791   45.4782   51.1282 C   0  0  0  0  0  3  0  0  0  0  0  0
    8.9565   46.3144   52.0705 N   0  0  0  0  0  0  0  0  0  0  0  0
   10.3859   46.3869   51.6271 C   0  0  0  0  0  2  0  0  0  0  0  0
   10.5355   45.2530   50.7494 N   0  0  0  0  0  0  0  0  0  0  0  0
    9.3941   44.7041   50.4429 C   0  0  0  0  0  0  0  0  0  0  0  0
    8.9901   43.5818   49.6604 N   0  0  0  0  0  0  0  0  0  0  0  0
    7.3493   42.1085   48.8083 N   0  0  0  0  0  0  0  0  0  0  0  0
    5.9593   41.8192   48.6715 C   0  0  0  0  0  0  0  0  0  0  0  0
    3.9958   41.2609   47.3752 C   0  0  0  0  0  0  0  0  0  0  0  0
    3.2526   41.2742   48.5398 C   0  0  0  0  0  3  0  0  0  0  0  0
    5.3617   41.5398   47.4701 C   0  0  0  0  0  3  0  0  0  0  0  0
    3.8378   41.5535   49.7580 C   0  0  0  0  0  3  0  0  0  0  0  0
    5.1947   41.8270   49.8267 C   0  0  0  0  0  3  0  0  0  0  0  0
    3.4276   40.9858   46.1630 F   0  0  0  0  0  0  0  0  0  0  0  0
    6.0098   45.7180   51.6857 O   0  0  0  0  0  0  0  0  0  0  0  0
    4.7710   45.0585   51.7613 C   0  0  0  0  0  2  0  0  0  0  0  0
    4.3353   45.1358   53.2190 C   0  0  0  0  0  3  0  0  0  0  0  0
    3.9513   46.5904   53.4438 C   0  0  0  0  0  2  0  0  0  0  0  0
    3.0437   44.3419   53.2941 C   0  0  0  0  0  2  0  0  0  0  0  0
    3.1738   46.9991   52.2095 C   0  0  0  0  0  2  0  0  0  0  0  0
    2.0670   44.7534   52.2337 C   0  0  0  0  0  2  0  0  0  0  0  0
    1.8675   46.2412   52.1530 C   0  0  0  0  0  2  0  0  0  0  0  0
  1 10  1  0
  2  1  1  0
  3  2  2  0
  4  8  1  0
  4  3  1  0
  5  4  1  0
  6  5  1  0
  6  7  1  0
  7  8  2  0
  8  9  1  0
  9  1  2  0
 10 11  1  0
 11 16  1  0
 12 13  2  0
 13 15  1  0
 14 11  2  0
 14 12  1  0
 16 15  2  0
 17 12  1  0
 18  3  1  0
 18 19  1  0
 20 22  1  0
 20 19  1  0
 21 20  1  0
 23 25  1  0
 23 21  1  0
 24 22  1  0
 25 24  1  0
M  RAD  8   4   2   6   3  13   2  14   2  15   2  16   2  19   3  20   2
M  RAD  5  21   3  22   3  23   3  24   3  25   3
M  END
>  <REMARK>  (1) 
 SMILES Fc1cccc(Nc2nc(OCC3CCCCC3)c3[nH]cnc3n2)c1
 SMILES IDX 8 1 9 2 10 3 19 4 20 5 21 6 22 7 23 8 24 9 7 11 6 13 2 14
 SMILES IDX 3 15 25 16 4 17 5 18 1 19 11 20 12 21 13 22 14 23 18 24
 SMILES IDX 15 25 17 26 16 27
 H PARENT 20 10 7 12

>  <TORSDO>  (1) 
F 5

$$$$
