/home/pchatterjee/Documents/git/vs_workflow/DiffDock/diffdock_run/pdbqt_scrubbed/5329551.pdbqt
     RDKit          3D

 25 28  0  0  1  0  0  0  0  0999 V2000
    7.7218   43.4388   49.4339 C   0  0  0  0  0  0  0  0  0  0  0  0
    6.8178   44.1445   50.2749 N   0  0  0  0  0  0  0  0  0  0  0  0
    7.2112   45.1255   51.0588 C   0  0  0  0  0  0  0  0  0  0  0  0
    8.5469   45.5220   51.0926 C   0  0  0  0  0  3  0  0  0  0  0  0
    9.2149   46.2642   52.0535 N   0  0  0  0  0  0  0  0  0  0  0  0
   10.6068   46.3512   51.5059 C   0  0  0  0  0  2  0  0  0  0  0  0
   10.6616   45.2948   50.5262 N   0  0  0  0  0  0  0  0  0  0  0  0
    9.4874   44.7932   50.2658 C   0  0  0  0  0  0  0  0  0  0  0  0
    8.9981   43.7494   49.4257 N   0  0  0  0  0  0  0  0  0  0  0  0
    7.2624   42.3822   48.5847 N   0  0  0  0  0  0  0  0  0  0  0  0
    5.8876   42.0111   48.6658 C   0  0  0  0  0  0  0  0  0  0  0  0
    3.7849   41.7902   49.8395 C   0  0  0  0  0  0  0  0  0  0  0  0
    3.2299   41.2515   48.6946 C   0  0  0  0  0  3  0  0  0  0  0  0
    5.1301   42.1657   49.7976 C   0  0  0  0  0  3  0  0  0  0  0  0
    3.9777   41.0886   47.5462 C   0  0  0  0  0  3  0  0  0  0  0  0
    5.3104   41.4687   47.5293 C   0  0  0  0  0  3  0  0  0  0  0  0
    3.0545   41.9565   50.9827 F   0  0  0  0  0  0  0  0  0  0  0  0
    6.2342   45.7516   51.8546 O   0  0  0  0  0  0  0  0  0  0  0  0
    4.9271   45.2392   51.7919 C   0  0  0  0  0  2  0  0  0  0  0  0
    4.0112   46.3442   52.3027 C   0  0  0  0  0  3  0  0  0  0  0  0
    2.6514   46.0514   51.6871 C   0  0  0  0  0  2  0  0  0  0  0  0
    3.8646   46.0871   53.7916 C   0  0  0  0  0  2  0  0  0  0  0  0
    2.4682   44.5521   51.8047 C   0  0  0  0  0  2  0  0  0  0  0  0
    3.4981   44.6631   54.0841 C   0  0  0  0  0  2  0  0  0  0  0  0
    2.3442   44.1640   53.2600 C   0  0  0  0  0  2  0  0  0  0  0  0
  1 10  1  0
  2  1  1  0
  3  2  2  0
  4  8  1  0
  4  3  1  0
  5  4  1  0
  6  5  1  0
  6  7  1  0
  7  8  2  0
  8  9  1  0
  9  1  2  0
 10 11  1  0
 11 16  1  0
 12 13  2  0
 13 15  1  0
 14 11  2  0
 14 12  1  0
 16 15  2  0
 17 12  1  0
 18  3  1  0
 18 19  1  0
 20 22  1  0
 20 19  1  0
 21 20  1  0
 23 25  1  0
 23 21  1  0
 24 22  1  0
 25 24  1  0
M  RAD  8   4   2   6   3  13   2  14   2  15   2  16   2  19   3  20   2
M  RAD  5  21   3  22   3  23   3  24   3  25   3
M  END
>  <REMARK>  (1) 
 SMILES Fc1cccc(Nc2nc(OCC3CCCCC3)c3[nH]cnc3n2)c1
 SMILES IDX 8 1 9 2 10 3 19 4 20 5 21 6 22 7 23 8 24 9 7 11 6 13 2 14
 SMILES IDX 3 15 25 16 4 17 5 18 1 19 11 20 12 21 13 22 14 23 18 24
 SMILES IDX 15 25 17 26 16 27
 H PARENT 20 10 7 12

>  <TORSDO>  (1) 
F 5

$$$$
