/home/pchatterjee/Documents/git/vs_workflow/DiffDock/diffdock_run/pdbqt_scrubbed/Z990898380.pdbqt
     RDKit          3D

 23 25  0  0  0  0  0  0  0  0999 V2000
    4.5424   40.9948   48.4641 C   0  0  0  0  0  2  0  0  0  0  0  0
    3.0654   40.9054   48.5955 C   0  0  0  0  0  0  0  0  0  0  0  0
    2.2446   40.3389   47.5802 N   0  0  0  0  0  0  0  0  0  0  0  0
    2.4821   41.3327   49.6214 O   0  0  0  0  0  0  0  0  0  0  0  0
    0.7930   40.3344   47.7882 C   0  0  0  0  0  3  0  0  0  0  0  0
    0.1620   39.2553   46.9672 C   0  0  0  0  0  2  0  0  0  0  0  0
    0.5994   39.9372   49.2553 C   0  0  0  0  0  2  0  0  0  0  0  0
   -1.3065   39.1825   47.2461 C   0  0  0  0  0  2  0  0  0  0  0  0
   -0.8750   40.0789   49.5455 C   0  0  0  0  0  2  0  0  0  0  0  0
   -1.6367   39.0685   48.7160 C   0  0  0  0  0  2  0  0  0  0  0  0
    4.9464   42.2909   49.1777 C   0  0  0  0  0  2  0  0  0  0  0  0
    6.3979   42.3574   49.0156 N   0  0  0  0  0  0  0  0  0  0  0  0
    7.0879   43.3789   49.7286 C   0  0  0  0  0  0  0  0  0  0  0  0
    6.4011   44.1398   50.6011 N   0  0  0  0  0  0  0  0  0  0  0  0
    8.4053   43.5683   49.5227 N   0  0  0  0  0  0  0  0  0  0  0  0
    7.0005   45.1176   51.3009 C   0  0  0  0  0  0  0  0  0  0  0  0
    9.0265   44.5557   50.2249 C   0  0  0  0  0  0  0  0  0  0  0  0
    6.2215   45.8523   52.1763 C   0  0  0  0  0  3  0  0  0  0  0  0
    8.3532   45.3522   51.1252 C   0  0  0  0  0  0  0  0  0  0  0  0
    6.8393   46.8513   52.8899 C   0  0  0  0  0  3  0  0  0  0  0  0
    8.9633   46.3534   51.8429 C   0  0  0  0  0  3  0  0  0  0  0  0
    8.1942   47.0960   52.7225 C   0  0  0  0  0  3  0  0  0  0  0  0
   10.2562   44.7298   50.0303 O   0  0  0  0  0  0  0  0  0  0  0  0
  1  2  1  0
  2  3  1  0
  4  2  2  0
  5  3  1  0
  5  7  1  0
  6  5  1  0
  8  6  1  0
  8 10  1  0
  9  7  1  0
 10  9  1  0
 11  1  1  0
 12 11  1  0
 13 12  1  0
 14 13  2  0
 15 13  1  0
 16 14  1  0
 17 15  1  0
 18 16  2  0
 19 17  1  0
 19 16  1  0
 20 18  1  0
 21 19  2  0
 22 21  1  0
 22 20  2  0
 23 17  2  0
M  RAD  8   1   3   5   2   6   3   7   3   8   3   9   3  10   3  11   3
M  RAD  4  18   2  20   2  21   2  22   2
M  END
>  <REMARK>  (1) 
 SMILES O=C(CCNc1nc2ccccc2c(=O)[nH]1)NC1CCCCC1
 SMILES IDX 3 1 2 2 17 3 1 4 18 6 19 7 23 8 20 9 22 10 21 11 4 12 5 13
 SMILES IDX 6 14 7 15 16 16 8 17 14 18 9 19 13 20 10 21 12 22 11 23
 SMILES IDX 15 26
 H PARENT 17 5 5 24 16 25

>  <TORSDO>  (1) 
F 4

$$$$
