/home/pchatterjee/Documents/git/vs_workflow/DiffDock/diffdock_run/pdbqt_scrubbed/Z990898380.pdbqt
     RDKit          3D

 23 25  0  0  0  0  0  0  0  0999 V2000
    4.3022   42.4154   50.7459 C   0  0  0  0  0  2  0  0  0  0  0  0
    2.9592   42.9995   50.9947 C   0  0  0  0  0  0  0  0  0  0  0  0
    2.2420   42.7698   52.2022 N   0  0  0  0  0  0  0  0  0  0  0  0
    2.4028   43.7262   50.1358 O   0  0  0  0  0  0  0  0  0  0  0  0
    1.9817   43.9157   53.0795 C   0  0  0  0  0  3  0  0  0  0  0  0
    3.2064   44.2398   53.8744 C   0  0  0  0  0  2  0  0  0  0  0  0
    1.7481   45.0991   52.1347 C   0  0  0  0  0  2  0  0  0  0  0  0
    2.9787   45.4659   54.7018 C   0  0  0  0  0  2  0  0  0  0  0  0
    1.3196   46.2590   53.0003 C   0  0  0  0  0  2  0  0  0  0  0  0
    2.4684   46.6445   53.9063 C   0  0  0  0  0  2  0  0  0  0  0  0
    4.6834   42.8390   49.3219 C   0  0  0  0  0  2  0  0  0  0  0  0
    6.0944   42.4760   49.2005 N   0  0  0  0  0  0  0  0  0  0  0  0
    7.0499   43.3808   49.7447 C   0  0  0  0  0  0  0  0  0  0  0  0
    6.6400   44.2974   50.6412 N   0  0  0  0  0  0  0  0  0  0  0  0
    8.3383   43.3082   49.3593 N   0  0  0  0  0  0  0  0  0  0  0  0
    7.4976   45.1757   51.1871 C   0  0  0  0  0  0  0  0  0  0  0  0
    9.2192   44.1920   49.9041 C   0  0  0  0  0  0  0  0  0  0  0  0
    6.9936   46.0842   52.1001 C   0  0  0  0  0  3  0  0  0  0  0  0
    8.8327   45.1422   50.8238 C   0  0  0  0  0  0  0  0  0  0  0  0
    7.8748   46.9806   52.6558 C   0  0  0  0  0  3  0  0  0  0  0  0
    9.7075   46.0424   51.3843 C   0  0  0  0  0  3  0  0  0  0  0  0
    9.2150   46.9569   52.2996 C   0  0  0  0  0  3  0  0  0  0  0  0
   10.4211   44.1215   49.5420 O   0  0  0  0  0  0  0  0  0  0  0  0
  1  2  1  0
  2  3  1  0
  4  2  2  0
  5  3  1  0
  5  7  1  0
  6  5  1  0
  8  6  1  0
  8 10  1  0
  9  7  1  0
 10  9  1  0
 11  1  1  0
 12 11  1  0
 13 12  1  0
 14 13  2  0
 15 13  1  0
 16 14  1  0
 17 15  1  0
 18 16  2  0
 19 17  1  0
 19 16  1  0
 20 18  1  0
 21 19  2  0
 22 21  1  0
 22 20  2  0
 23 17  2  0
M  RAD  8   1   3   5   2   6   3   7   3   8   3   9   3  10   3  11   3
M  RAD  4  18   2  20   2  21   2  22   2
M  END
>  <REMARK>  (1) 
 SMILES O=C(CCNc1nc2ccccc2c(=O)[nH]1)NC1CCCCC1
 SMILES IDX 3 1 2 2 17 3 1 4 18 6 19 7 23 8 20 9 22 10 21 11 4 12 5 13
 SMILES IDX 6 14 7 15 16 16 8 17 14 18 9 19 13 20 10 21 12 22 11 23
 SMILES IDX 15 26
 H PARENT 17 5 5 24 16 25

>  <TORSDO>  (1) 
F 4

$$$$
