/home/pchatterjee/Documents/git/vs_workflow/DiffDock/diffdock_run/pdbqt_scrubbed/Z990898380.pdbqt
     RDKit          3D

 23 25  0  0  0  0  0  0  0  0999 V2000
    4.2856   41.3056   48.2368 C   0  0  0  0  0  2  0  0  0  0  0  0
    3.0488   41.7269   47.5301 C   0  0  0  0  0  0  0  0  0  0  0  0
    2.8685   41.5330   46.1318 N   0  0  0  0  0  0  0  0  0  0  0  0
    2.1066   42.2765   48.1510 O   0  0  0  0  0  0  0  0  0  0  0  0
    1.5931   41.9443   45.5363 C   0  0  0  0  0  3  0  0  0  0  0  0
    0.7721   40.7394   45.2030 C   0  0  0  0  0  2  0  0  0  0  0  0
    0.8495   42.6845   46.6528 C   0  0  0  0  0  2  0  0  0  0  0  0
   -0.5689   41.1527   44.6829 C   0  0  0  0  0  2  0  0  0  0  0  0
   -0.3978   43.2599   46.0272 C   0  0  0  0  0  2  0  0  0  0  0  0
   -1.2935   42.1232   45.5860 C   0  0  0  0  0  2  0  0  0  0  0  0
    4.7844   42.5501   48.9816 C   0  0  0  0  0  2  0  0  0  0  0  0
    6.1556   42.2185   49.3654 N   0  0  0  0  0  0  0  0  0  0  0  0
    6.9450   43.2602   49.9307 C   0  0  0  0  0  0  0  0  0  0  0  0
    6.3547   44.1529   50.7471 N   0  0  0  0  0  0  0  0  0  0  0  0
    8.2586   43.3378   49.6440 N   0  0  0  0  0  0  0  0  0  0  0  0
    7.0504   45.1559   51.3083 C   0  0  0  0  0  0  0  0  0  0  0  0
    8.9767   44.3491   50.2055 C   0  0  0  0  0  0  0  0  0  0  0  0
    6.3667   46.0291   52.1348 C   0  0  0  0  0  3  0  0  0  0  0  0
    8.4036   45.2791   51.0451 C   0  0  0  0  0  0  0  0  0  0  0  0
    7.0827   47.0535   52.7065 C   0  0  0  0  0  3  0  0  0  0  0  0
    9.1124   46.3066   51.6210 C   0  0  0  0  0  3  0  0  0  0  0  0
    8.4392   47.1873   52.4503 C   0  0  0  0  0  3  0  0  0  0  0  0
   10.2027   44.4185   49.9358 O   0  0  0  0  0  0  0  0  0  0  0  0
  1  2  1  0
  2  3  1  0
  4  2  2  0
  5  3  1  0
  5  7  1  0
  6  5  1  0
  8  6  1  0
  8 10  1  0
  9  7  1  0
 10  9  1  0
 11  1  1  0
 12 11  1  0
 13 12  1  0
 14 13  2  0
 15 13  1  0
 16 14  1  0
 17 15  1  0
 18 16  2  0
 19 17  1  0
 19 16  1  0
 20 18  1  0
 21 19  2  0
 22 21  1  0
 22 20  2  0
 23 17  2  0
M  RAD  8   1   3   5   2   6   3   7   3   8   3   9   3  10   3  11   3
M  RAD  4  18   2  20   2  21   2  22   2
M  END
>  <REMARK>  (1) 
 SMILES O=C(CCNc1nc2ccccc2c(=O)[nH]1)NC1CCCCC1
 SMILES IDX 3 1 2 2 17 3 1 4 18 6 19 7 23 8 20 9 22 10 21 11 4 12 5 13
 SMILES IDX 6 14 7 15 16 16 8 17 14 18 9 19 13 20 10 21 12 22 11 23
 SMILES IDX 15 26
 H PARENT 17 5 5 24 16 25

>  <TORSDO>  (1) 
F 4

$$$$
