/home/pchatterjee/Documents/git/vs_workflow/DiffDock/diffdock_run/pdbqt_scrubbed/Z990898380.pdbqt
     RDKit          3D

 23 25  0  0  0  0  0  0  0  0999 V2000
    4.6443   41.2855   48.0294 C   0  0  0  0  0  2  0  0  0  0  0  0
    3.3748   41.5856   47.3187 C   0  0  0  0  0  0  0  0  0  0  0  0
    2.7342   40.6368   46.4732 N   0  0  0  0  0  0  0  0  0  0  0  0
    2.8155   42.7024   47.4413 O   0  0  0  0  0  0  0  0  0  0  0  0
    1.6107   41.0940   45.6490 C   0  0  0  0  0  3  0  0  0  0  0  0
    0.6617   41.8986   46.4790 C   0  0  0  0  0  2  0  0  0  0  0  0
    2.2270   42.0588   44.6308 C   0  0  0  0  0  2  0  0  0  0  0  0
   -0.4375   42.4478   45.6247 C   0  0  0  0  0  2  0  0  0  0  0  0
    1.1248   42.4237   43.6663 C   0  0  0  0  0  2  0  0  0  0  0  0
    0.0590   43.1976   44.4107 C   0  0  0  0  0  2  0  0  0  0  0  0
    4.9447   42.5221   48.8856 C   0  0  0  0  0  2  0  0  0  0  0  0
    6.2276   42.2222   49.5193 N   0  0  0  0  0  0  0  0  0  0  0  0
    6.9852   43.3228   50.0117 C   0  0  0  0  0  0  0  0  0  0  0  0
    6.4391   44.1206   50.9483 N   0  0  0  0  0  0  0  0  0  0  0  0
    8.2257   43.5490   49.5385 N   0  0  0  0  0  0  0  0  0  0  0  0
    7.1079   45.1730   51.4486 C   0  0  0  0  0  0  0  0  0  0  0  0
    8.9157   44.6120   50.0362 C   0  0  0  0  0  0  0  0  0  0  0  0
    6.4734   45.9411   52.4080 C   0  0  0  0  0  3  0  0  0  0  0  0
    8.3863   45.4479   50.9950 C   0  0  0  0  0  0  0  0  0  0  0  0
    7.1616   47.0165   52.9166 C   0  0  0  0  0  3  0  0  0  0  0  0
    9.0676   46.5255   51.5090 C   0  0  0  0  0  3  0  0  0  0  0  0
    8.4432   47.3021   52.4700 C   0  0  0  0  0  3  0  0  0  0  0  0
   10.0734   44.8201   49.5923 O   0  0  0  0  0  0  0  0  0  0  0  0
  1  2  1  0
  2  3  1  0
  4  2  2  0
  5  3  1  0
  5  7  1  0
  6  5  1  0
  8  6  1  0
  8 10  1  0
  9  7  1  0
 10  9  1  0
 11  1  1  0
 12 11  1  0
 13 12  1  0
 14 13  2  0
 15 13  1  0
 16 14  1  0
 17 15  1  0
 18 16  2  0
 19 17  1  0
 19 16  1  0
 20 18  1  0
 21 19  2  0
 22 21  1  0
 22 20  2  0
 23 17  2  0
M  RAD  8   1   3   5   2   6   3   7   3   8   3   9   3  10   3  11   3
M  RAD  4  18   2  20   2  21   2  22   2
M  END
>  <REMARK>  (1) 
 SMILES O=C(CCNc1nc2ccccc2c(=O)[nH]1)NC1CCCCC1
 SMILES IDX 3 1 2 2 17 3 1 4 18 6 19 7 23 8 20 9 22 10 21 11 4 12 5 13
 SMILES IDX 6 14 7 15 16 16 8 17 14 18 9 19 13 20 10 21 12 22 11 23
 SMILES IDX 15 26
 H PARENT 17 5 5 24 16 25

>  <TORSDO>  (1) 
F 4

$$$$
