/home/pchatterjee/Documents/git/vs_workflow/DiffDock/diffdock_run/pdbqt_scrubbed/Z990898380.pdbqt
     RDKit          3D

 23 25  0  0  0  0  0  0  0  0999 V2000
    4.0777   42.6635   50.7940 C   0  0  0  0  0  2  0  0  0  0  0  0
    2.6316   42.9992   50.8474 C   0  0  0  0  0  0  0  0  0  0  0  0
    1.8148   42.6678   51.9647 N   0  0  0  0  0  0  0  0  0  0  0  0
    2.0723   43.5952   49.8949 O   0  0  0  0  0  0  0  0  0  0  0  0
    1.4762   43.7340   52.9130 C   0  0  0  0  0  3  0  0  0  0  0  0
    2.6721   44.0802   53.7416 C   0  0  0  0  0  2  0  0  0  0  0  0
    1.1751   44.9608   52.0460 C   0  0  0  0  0  2  0  0  0  0  0  0
    2.3612   45.2316   54.6458 C   0  0  0  0  0  2  0  0  0  0  0  0
    0.6678   46.0312   52.9815 C   0  0  0  0  0  2  0  0  0  0  0  0
    1.7832   46.4265   53.9242 C   0  0  0  0  0  2  0  0  0  0  0  0
    4.5471   43.0651   49.3902 C   0  0  0  0  0  2  0  0  0  0  0  0
    5.9468   42.6456   49.3414 N   0  0  0  0  0  0  0  0  0  0  0  0
    6.9169   43.5478   49.8636 C   0  0  0  0  0  0  0  0  0  0  0  0
    6.5553   44.3936   50.8464 N   0  0  0  0  0  0  0  0  0  0  0  0
    8.1708   43.5432   49.3722 N   0  0  0  0  0  0  0  0  0  0  0  0
    7.4288   45.2660   51.3764 C   0  0  0  0  0  0  0  0  0  0  0  0
    9.0672   44.4219   49.8995 C   0  0  0  0  0  0  0  0  0  0  0  0
    6.9751   46.0994   52.3826 C   0  0  0  0  0  3  0  0  0  0  0  0
    8.7299   45.3006   50.9057 C   0  0  0  0  0  0  0  0  0  0  0  0
    7.8724   46.9901   52.9216 C   0  0  0  0  0  3  0  0  0  0  0  0
    9.6211   46.1945   51.4503 C   0  0  0  0  0  3  0  0  0  0  0  0
    9.1789   47.0341   52.4583 C   0  0  0  0  0  3  0  0  0  0  0  0
   10.2368   44.4148   49.4385 O   0  0  0  0  0  0  0  0  0  0  0  0
  1  2  1  0
  2  3  1  0
  4  2  2  0
  5  3  1  0
  5  7  1  0
  6  5  1  0
  8  6  1  0
  8 10  1  0
  9  7  1  0
 10  9  1  0
 11  1  1  0
 12 11  1  0
 13 12  1  0
 14 13  2  0
 15 13  1  0
 16 14  1  0
 17 15  1  0
 18 16  2  0
 19 17  1  0
 19 16  1  0
 20 18  1  0
 21 19  2  0
 22 21  1  0
 22 20  2  0
 23 17  2  0
M  RAD  8   1   3   5   2   6   3   7   3   8   3   9   3  10   3  11   3
M  RAD  4  18   2  20   2  21   2  22   2
M  END
>  <REMARK>  (1) 
 SMILES O=C(CCNc1nc2ccccc2c(=O)[nH]1)NC1CCCCC1
 SMILES IDX 3 1 2 2 17 3 1 4 18 6 19 7 23 8 20 9 22 10 21 11 4 12 5 13
 SMILES IDX 6 14 7 15 16 16 8 17 14 18 9 19 13 20 10 21 12 22 11 23
 SMILES IDX 15 26
 H PARENT 17 5 5 24 16 25

>  <TORSDO>  (1) 
F 4

$$$$
