/home/pchatterjee/Documents/git/vs_workflow/DiffDock/diffdock_run/pdbqt_scrubbed/Z990898380.pdbqt
     RDKit          3D

 23 25  0  0  0  0  0  0  0  0999 V2000
    4.5736   41.6121   47.9850 C   0  0  0  0  0  2  0  0  0  0  0  0
    3.0908   41.5388   48.0380 C   0  0  0  0  0  0  0  0  0  0  0  0
    2.3537   40.5387   47.3439 N   0  0  0  0  0  0  0  0  0  0  0  0
    2.4276   42.3684   48.7066 O   0  0  0  0  0  0  0  0  0  0  0  0
    1.5550   40.9493   46.1846 C   0  0  0  0  0  3  0  0  0  0  0  0
    0.6545   42.0830   46.5597 C   0  0  0  0  0  2  0  0  0  0  0  0
    2.5664   41.5088   45.1788 C   0  0  0  0  0  2  0  0  0  0  0  0
   -0.0946   42.5698   45.3590 C   0  0  0  0  0  2  0  0  0  0  0  0
    1.7968   41.7924   43.9117 C   0  0  0  0  0  2  0  0  0  0  0  0
    0.7961   42.8943   44.1827 C   0  0  0  0  0  2  0  0  0  0  0  0
    4.9961   42.4073   49.2266 C   0  0  0  0  0  2  0  0  0  0  0  0
    6.4567   42.3429   49.2195 N   0  0  0  0  0  0  0  0  0  0  0  0
    7.1595   43.4028   49.8602 C   0  0  0  0  0  0  0  0  0  0  0  0
    6.4991   44.1865   50.7329 N   0  0  0  0  0  0  0  0  0  0  0  0
    8.4628   43.6052   49.5873 N   0  0  0  0  0  0  0  0  0  0  0  0
    7.1117   45.2007   51.3663 C   0  0  0  0  0  0  0  0  0  0  0  0
    9.0971   44.6294   50.2217 C   0  0  0  0  0  0  0  0  0  0  0  0
    6.3598   45.9568   52.2471 C   0  0  0  0  0  3  0  0  0  0  0  0
    8.4507   45.4499   51.1201 C   0  0  0  0  0  0  0  0  0  0  0  0
    6.9910   46.9931   52.8925 C   0  0  0  0  0  3  0  0  0  0  0  0
    9.0745   46.4885   51.7699 C   0  0  0  0  0  3  0  0  0  0  0  0
    8.3324   47.2527   52.6541 C   0  0  0  0  0  3  0  0  0  0  0  0
   10.3136   44.8155   49.9646 O   0  0  0  0  0  0  0  0  0  0  0  0
  1  2  1  0
  2  3  1  0
  4  2  2  0
  5  3  1  0
  5  7  1  0
  6  5  1  0
  8  6  1  0
  8 10  1  0
  9  7  1  0
 10  9  1  0
 11  1  1  0
 12 11  1  0
 13 12  1  0
 14 13  2  0
 15 13  1  0
 16 14  1  0
 17 15  1  0
 18 16  2  0
 19 17  1  0
 19 16  1  0
 20 18  1  0
 21 19  2  0
 22 21  1  0
 22 20  2  0
 23 17  2  0
M  RAD  8   1   3   5   2   6   3   7   3   8   3   9   3  10   3  11   3
M  RAD  4  18   2  20   2  21   2  22   2
M  END
>  <REMARK>  (1) 
 SMILES O=C(CCNc1nc2ccccc2c(=O)[nH]1)NC1CCCCC1
 SMILES IDX 3 1 2 2 17 3 1 4 18 6 19 7 23 8 20 9 22 10 21 11 4 12 5 13
 SMILES IDX 6 14 7 15 16 16 8 17 14 18 9 19 13 20 10 21 12 22 11 23
 SMILES IDX 15 26
 H PARENT 17 5 5 24 16 25

>  <TORSDO>  (1) 
F 4

$$$$
