/home/pchatterjee/Documents/git/vs_workflow/DiffDock/diffdock_run/pdbqt_scrubbed/Z990898380.pdbqt
     RDKit          3D

 23 25  0  0  0  0  0  0  0  0999 V2000
  -44.5267    5.9256   10.4085 C   0  0  0  0  0  2  0  0  0  0  0  0
  -44.2811    6.4865    9.0550 C   0  0  0  0  0  0  0  0  0  0  0  0
  -44.0790    7.8778    8.8339 N   0  0  0  0  0  0  0  0  0  0  0  0
  -44.2429    5.7418    8.0455 O   0  0  0  0  0  0  0  0  0  0  0  0
  -42.8961    8.2912    8.0720 C   0  0  0  0  0  3  0  0  0  0  0  0
  -42.9667    7.7448    6.6815 C   0  0  0  0  0  2  0  0  0  0  0  0
  -43.0103    9.8142    7.9494 C   0  0  0  0  0  2  0  0  0  0  0  0
  -41.8111    8.2404    5.8700 C   0  0  0  0  0  2  0  0  0  0  0  0
  -41.7280   10.2889    7.3101 C   0  0  0  0  0  2  0  0  0  0  0  0
  -41.6518    9.7425    5.9013 C   0  0  0  0  0  2  0  0  0  0  0  0
  -43.1527    5.4938   10.9361 C   0  0  0  0  0  2  0  0  0  0  0  0
  -42.2295    5.8120    9.8480 N   0  0  0  0  0  0  0  0  0  0  0  0
  -42.0010    4.8025    8.8700 C   0  0  0  0  0  0  0  0  0  0  0  0
  -42.9064    3.8163    8.7300 N   0  0  0  0  0  0  0  0  0  0  0  0
  -40.8930    4.8473    8.1056 N   0  0  0  0  0  0  0  0  0  0  0  0
  -42.7422    2.8382    7.8238 C   0  0  0  0  0  0  0  0  0  0  0  0
  -40.7131    3.8626    7.1827 C   0  0  0  0  0  0  0  0  0  0  0  0
  -43.7203    1.8633    7.7454 C   0  0  0  0  0  3  0  0  0  0  0  0
  -41.6199    2.8392    7.0138 C   0  0  0  0  0  0  0  0  0  0  0  0
  -43.5478    0.8649    6.8168 C   0  0  0  0  0  3  0  0  0  0  0  0
  -41.4552    1.8368    6.0876 C   0  0  0  0  0  3  0  0  0  0  0  0
  -42.4274    0.8551    5.9995 C   0  0  0  0  0  3  0  0  0  0  0  0
  -39.6778    3.9074    6.4708 O   0  0  0  0  0  0  0  0  0  0  0  0
  1  2  1  0
  2  3  1  0
  4  2  2  0
  5  3  1  0
  5  7  1  0
  6  5  1  0
  8  6  1  0
  8 10  1  0
  9  7  1  0
 10  9  1  0
 11  1  1  0
 12 11  1  0
 13 12  1  0
 14 13  2  0
 15 13  1  0
 16 14  1  0
 17 15  1  0
 18 16  2  0
 19 17  1  0
 19 16  1  0
 20 18  1  0
 21 19  2  0
 22 21  1  0
 22 20  2  0
 23 17  2  0
M  RAD  8   1   3   5   2   6   3   7   3   8   3   9   3  10   3  11   3
M  RAD  4  18   2  20   2  21   2  22   2
M  END
>  <REMARK>  (1) 
 SMILES O=C(CCNc1nc2ccccc2c(=O)[nH]1)NC1CCCCC1
 SMILES IDX 3 1 2 2 17 3 1 4 18 6 19 7 23 8 20 9 22 10 21 11 4 12 5 13
 SMILES IDX 6 14 7 15 16 16 8 17 14 18 9 19 13 20 10 21 12 22 11 23
 SMILES IDX 15 26
 H PARENT 17 5 5 24 16 25

>  <TORSDO>  (1) 
F 4

$$$$
