/home/pchatterjee/Documents/git/vs_workflow/DiffDock/diffdock_run/pdbqt_scrubbed/Z990898380.pdbqt
     RDKit          3D

 23 25  0  0  0  0  0  0  0  0999 V2000
    3.1196   42.4538   49.8890 C   0  0  0  0  0  2  0  0  0  0  0  0
    1.7568   42.9802   50.1582 C   0  0  0  0  0  0  0  0  0  0  0  0
    0.6025   42.1480   50.1376 N   0  0  0  0  0  0  0  0  0  0  0  0
    1.5740   44.1946   50.4169 O   0  0  0  0  0  0  0  0  0  0  0  0
   -0.6938   42.7573   50.4522 C   0  0  0  0  0  3  0  0  0  0  0  0
   -0.5636   43.6487   51.6461 C   0  0  0  0  0  2  0  0  0  0  0  0
   -1.0093   43.6666   49.2601 C   0  0  0  0  0  2  0  0  0  0  0  0
   -1.8594   44.3472   51.9160 C   0  0  0  0  0  2  0  0  0  0  0  0
   -2.4101   44.1853   49.4772 C   0  0  0  0  0  2  0  0  0  0  0  0
   -2.4219   45.0624   50.7100 C   0  0  0  0  0  2  0  0  0  0  0  0
    4.0706   43.6416   50.0819 C   0  0  0  0  0  2  0  0  0  0  0  0
    5.4060   43.0480   50.0403 N   0  0  0  0  0  0  0  0  0  0  0  0
    6.4974   43.8681   50.4456 C   0  0  0  0  0  0  0  0  0  0  0  0
    6.2442   44.9806   51.1599 N   0  0  0  0  0  0  0  0  0  0  0  0
    7.7559   43.5234   50.1123 N   0  0  0  0  0  0  0  0  0  0  0  0
    7.2346   45.7911   51.5688 C   0  0  0  0  0  0  0  0  0  0  0  0
    8.7702   44.3352   50.5198 C   0  0  0  0  0  0  0  0  0  0  0  0
    6.8872   46.9137   52.2982 C   0  0  0  0  0  3  0  0  0  0  0  0
    8.5456   45.4806   51.2518 C   0  0  0  0  0  0  0  0  0  0  0  0
    7.9040   47.7396   52.7142 C   0  0  0  0  0  3  0  0  0  0  0  0
    9.5566   46.3121   51.6718 C   0  0  0  0  0  3  0  0  0  0  0  0
    9.2216   47.4391   52.4028 C   0  0  0  0  0  3  0  0  0  0  0  0
    9.9437   44.0104   50.2070 O   0  0  0  0  0  0  0  0  0  0  0  0
  1  2  1  0
  2  3  1  0
  4  2  2  0
  5  3  1  0
  5  7  1  0
  6  5  1  0
  8  6  1  0
  8 10  1  0
  9  7  1  0
 10  9  1  0
 11  1  1  0
 12 11  1  0
 13 12  1  0
 14 13  2  0
 15 13  1  0
 16 14  1  0
 17 15  1  0
 18 16  2  0
 19 17  1  0
 19 16  1  0
 20 18  1  0
 21 19  2  0
 22 21  1  0
 22 20  2  0
 23 17  2  0
M  RAD  8   1   3   5   2   6   3   7   3   8   3   9   3  10   3  11   3
M  RAD  4  18   2  20   2  21   2  22   2
M  END
>  <REMARK>  (1) 
 SMILES O=C(CCNc1nc2ccccc2c(=O)[nH]1)NC1CCCCC1
 SMILES IDX 3 1 2 2 17 3 1 4 18 6 19 7 23 8 20 9 22 10 21 11 4 12 5 13
 SMILES IDX 6 14 7 15 16 16 8 17 14 18 9 19 13 20 10 21 12 22 11 23
 SMILES IDX 15 26
 H PARENT 17 5 5 24 16 25

>  <TORSDO>  (1) 
F 4

$$$$
