/home/pchatterjee/Documents/git/vs_workflow/DiffDock/diffdock_run/pdbqt_scrubbed/Z990898380.pdbqt
     RDKit          3D

 23 25  0  0  0  0  0  0  0  0999 V2000
    4.3333   41.0373   48.5282 C   0  0  0  0  0  2  0  0  0  0  0  0
    2.8510   41.1345   48.5196 C   0  0  0  0  0  0  0  0  0  0  0  0
    2.0294   40.2964   49.3244 N   0  0  0  0  0  0  0  0  0  0  0  0
    2.2638   41.9714   47.7915 O   0  0  0  0  0  0  0  0  0  0  0  0
    0.5892   40.2710   49.0490 C   0  0  0  0  0  3  0  0  0  0  0  0
   -0.0122   41.6073   49.3479 C   0  0  0  0  0  2  0  0  0  0  0  0
    0.4742   40.0689   47.5346 C   0  0  0  0  0  2  0  0  0  0  0  0
   -1.4628   41.6176   48.9798 C   0  0  0  0  0  2  0  0  0  0  0  0
   -0.9937   39.8778   47.2392 C   0  0  0  0  0  2  0  0  0  0  0  0
   -1.7297   41.1588   47.5653 C   0  0  0  0  0  2  0  0  0  0  0  0
    4.8334   42.3505   49.1429 C   0  0  0  0  0  2  0  0  0  0  0  0
    6.2238   42.0769   49.5024 N   0  0  0  0  0  0  0  0  0  0  0  0
    6.9810   43.1532   50.0464 C   0  0  0  0  0  0  0  0  0  0  0  0
    6.3665   44.0364   50.8555 N   0  0  0  0  0  0  0  0  0  0  0  0
    8.2887   43.2724   49.7474 N   0  0  0  0  0  0  0  0  0  0  0  0
    7.0314   45.0708   51.3968 C   0  0  0  0  0  0  0  0  0  0  0  0
    8.9757   44.3159   50.2886 C   0  0  0  0  0  0  0  0  0  0  0  0
    6.3244   45.9313   52.2169 C   0  0  0  0  0  3  0  0  0  0  0  0
    8.3773   45.2372   51.1202 C   0  0  0  0  0  0  0  0  0  0  0  0
    7.0089   46.9879   52.7682 C   0  0  0  0  0  3  0  0  0  0  0  0
    9.0545   46.2967   51.6757 C   0  0  0  0  0  3  0  0  0  0  0  0
    8.3578   47.1652   52.4985 C   0  0  0  0  0  3  0  0  0  0  0  0
   10.1962   44.4241   50.0074 O   0  0  0  0  0  0  0  0  0  0  0  0
  1  2  1  0
  2  3  1  0
  4  2  2  0
  5  3  1  0
  5  7  1  0
  6  5  1  0
  8  6  1  0
  8 10  1  0
  9  7  1  0
 10  9  1  0
 11  1  1  0
 12 11  1  0
 13 12  1  0
 14 13  2  0
 15 13  1  0
 16 14  1  0
 17 15  1  0
 18 16  2  0
 19 17  1  0
 19 16  1  0
 20 18  1  0
 21 19  2  0
 22 21  1  0
 22 20  2  0
 23 17  2  0
M  RAD  8   1   3   5   2   6   3   7   3   8   3   9   3  10   3  11   3
M  RAD  4  18   2  20   2  21   2  22   2
M  END
>  <REMARK>  (1) 
 SMILES O=C(CCNc1nc2ccccc2c(=O)[nH]1)NC1CCCCC1
 SMILES IDX 3 1 2 2 17 3 1 4 18 6 19 7 23 8 20 9 22 10 21 11 4 12 5 13
 SMILES IDX 6 14 7 15 16 16 8 17 14 18 9 19 13 20 10 21 12 22 11 23
 SMILES IDX 15 26
 H PARENT 17 5 5 24 16 25

>  <TORSDO>  (1) 
F 4

$$$$
