/home/pchatterjee/Documents/git/vs_workflow/DiffDock/diffdock_run/pdbqt_scrubbed/Z990898380.pdbqt
     RDKit          3D

 23 25  0  0  0  0  0  0  0  0999 V2000
    3.9750   41.2062   48.9735 C   0  0  0  0  0  2  0  0  0  0  0  0
    2.5293   41.2106   49.3152 C   0  0  0  0  0  0  0  0  0  0  0  0
    1.8422   40.0349   49.7286 N   0  0  0  0  0  0  0  0  0  0  0  0
    1.8545   42.2668   49.2501 O   0  0  0  0  0  0  0  0  0  0  0  0
    0.4647   39.8409   49.2645 C   0  0  0  0  0  3  0  0  0  0  0  0
   -0.3822   41.0027   49.6766 C   0  0  0  0  0  2  0  0  0  0  0  0
    0.5474   39.8811   47.7351 C   0  0  0  0  0  2  0  0  0  0  0  0
   -1.7661   40.8575   49.1256 C   0  0  0  0  0  2  0  0  0  0  0  0
   -0.8271   39.5248   47.2232 C   0  0  0  0  0  2  0  0  0  0  0  0
   -1.7994   40.6081   47.6359 C   0  0  0  0  0  2  0  0  0  0  0  0
    4.5778   42.4168   49.6971 C   0  0  0  0  0  2  0  0  0  0  0  0
    6.0193   42.2799   49.4951 N   0  0  0  0  0  0  0  0  0  0  0  0
    6.8488   43.3309   49.9799 C   0  0  0  0  0  0  0  0  0  0  0  0
    6.3532   44.1774   50.9018 N   0  0  0  0  0  0  0  0  0  0  0  0
    8.1056   43.4631   49.5144 N   0  0  0  0  0  0  0  0  0  0  0  0
    7.0906   45.1867   51.3944 C   0  0  0  0  0  0  0  0  0  0  0  0
    8.8650   44.4814   50.0044 C   0  0  0  0  0  0  0  0  0  0  0  0
    6.5046   46.0101   52.3386 C   0  0  0  0  0  3  0  0  0  0  0  0
    8.3885   45.3650   50.9481 C   0  0  0  0  0  0  0  0  0  0  0  0
    7.2629   47.0411   52.8395 C   0  0  0  0  0  3  0  0  0  0  0  0
    9.1402   46.3987   51.4542 C   0  0  0  0  0  3  0  0  0  0  0  0
    8.5648   47.2300   52.4001 C   0  0  0  0  0  3  0  0  0  0  0  0
   10.0377   44.6018   49.5677 O   0  0  0  0  0  0  0  0  0  0  0  0
  1  2  1  0
  2  3  1  0
  4  2  2  0
  5  3  1  0
  5  7  1  0
  6  5  1  0
  8  6  1  0
  8 10  1  0
  9  7  1  0
 10  9  1  0
 11  1  1  0
 12 11  1  0
 13 12  1  0
 14 13  2  0
 15 13  1  0
 16 14  1  0
 17 15  1  0
 18 16  2  0
 19 17  1  0
 19 16  1  0
 20 18  1  0
 21 19  2  0
 22 21  1  0
 22 20  2  0
 23 17  2  0
M  RAD  8   1   3   5   2   6   3   7   3   8   3   9   3  10   3  11   3
M  RAD  4  18   2  20   2  21   2  22   2
M  END
>  <REMARK>  (1) 
 SMILES O=C(CCNc1nc2ccccc2c(=O)[nH]1)NC1CCCCC1
 SMILES IDX 3 1 2 2 17 3 1 4 18 6 19 7 23 8 20 9 22 10 21 11 4 12 5 13
 SMILES IDX 6 14 7 15 16 16 8 17 14 18 9 19 13 20 10 21 12 22 11 23
 SMILES IDX 15 26
 H PARENT 17 5 5 24 16 25

>  <TORSDO>  (1) 
F 4

$$$$
