/home/pchatterjee/Documents/git/vs_workflow/DiffDock/diffdock_run/pdbqt_scrubbed/Z1102775719.pdbqt
     RDKit          3D

 24 27  0  0  1  0  0  0  0  0999 V2000
    5.2807   48.4762   53.5608 C   0  0  0  0  0  0  0  0  0  0  0  0
    5.0262   49.8055   53.2618 C   0  0  0  0  0  3  0  0  0  0  0  0
    3.8648   50.2253   52.6328 C   0  0  0  0  0  3  0  0  0  0  0  0
    2.9439   49.2526   52.3035 C   0  0  0  0  0  3  0  0  0  0  0  0
    3.1646   47.9081   52.5872 C   0  0  0  0  0  3  0  0  0  0  0  0
    4.3312   47.5358   53.2129 C   0  0  0  0  0  0  0  0  0  0  0  0
    6.5143   48.1338   54.2229 C   0  0  0  0  0  0  0  0  0  0  0  0
    6.9545   48.7937   55.1893 O   0  0  0  0  0  0  0  0  0  0  0  0
    7.2730   47.0204   53.7860 N   0  0  0  0  0  0  0  0  0  0  0  0
    8.4115   46.5238   54.5666 C   0  0  0  0  0  2  0  0  0  0  0  0
    6.9772   46.3019   52.5481 C   0  0  0  0  0  2  0  0  0  0  0  0
    9.5904   46.4450   53.5956 C   0  0  0  0  0  2  0  0  0  0  0  0
    8.0943   46.6598   51.5898 C   0  0  0  0  0  3  0  0  0  0  0  0
    9.2944   47.2178   52.3332 C   0  0  0  0  0  2  0  0  0  0  0  0
    8.4583   45.5698   50.7220 N   0  0  0  0  0  0  0  0  0  0  0  0
    7.5683   44.6881   50.2012 C   0  0  0  0  0  3  0  0  0  0  0  0
    9.6744   45.2021   50.2579 C   0  0  0  0  0  3  0  0  0  0  0  0
    8.3004   43.7917   49.4162 C   0  0  0  0  0  3  0  0  0  0  0  0
    9.5946   44.1246   49.4644 N   0  0  0  0  0  0  0  0  0  0  0  0
    4.6222   46.2106   53.5294 O   0  0  0  0  0  0  0  0  0  0  0  0
    3.9983   45.1140   52.9214 C   0  0  0  0  0  2  0  0  0  0  0  0
    4.4557   43.8447   53.6384 C   0  0  0  0  0  3  0  0  0  0  0  0
    5.9504   43.7068   53.8108 C   0  0  0  0  0  2  0  0  0  0  0  0
    5.2527   42.8368   52.7897 C   0  0  0  0  0  2  0  0  0  0  0  0
  1  6  1  0
  2  1  2  0
  2  3  1  0
  3  4  2  0
  4  5  1  0
  6 20  1  0
  6  5  2  0
  7  1  1  0
  7  9  1  0
  8  7  2  0
  9 11  1  0
 10  9  1  0
 10 12  1  0
 12 14  1  0
 13 11  1  0
 13 15  1  0
 14 13  1  0
 15 17  1  0
 16 15  1  0
 16 18  2  0
 17 19  2  0
 18 19  1  0
 21 22  1  0
 21 20  1  0
 23 24  1  0
 23 22  1  0
 24 22  1  0
M  RAD  8   2   2   3   2   4   2   5   2  10   3  11   3  12   3  13   2
M  RAD  8  14   3  16   2  17   2  18   2  21   3  22   2  23   3  24   3
M  END
>  <REMARK>  (1) 
 SMILES O=C(c1ccccc1OCC1CC1)N1CCCC(n2ccnc2)C1
 SMILES IDX 3 1 4 2 5 3 6 4 7 5 8 6 2 7 1 8 14 9 15 10 24 11 16 12 18 13
 SMILES IDX 17 14 19 15 20 16 23 17 21 18 22 19 9 20 10 21 11 22 12 23
 SMILES IDX 13 24
 H PARENT

>  <TORSDO>  (1) 
F 6

$$$$
