/home/pchatterjee/Documents/git/vs_workflow/DiffDock/diffdock_run/pdbqt_scrubbed/Z1102775719.pdbqt
     RDKit          3D

 24 27  0  0  1  0  0  0  0  0999 V2000
    7.3706   46.9250   53.5271 C   0  0  0  0  0  0  0  0  0  0  0  0
    8.0971   47.2977   54.6472 C   0  0  0  0  0  3  0  0  0  0  0  0
    7.5084   47.5409   55.8780 C   0  0  0  0  0  3  0  0  0  0  0  0
    6.1388   47.3972   55.9569 C   0  0  0  0  0  3  0  0  0  0  0  0
    5.3761   47.0251   54.8539 C   0  0  0  0  0  3  0  0  0  0  0  0
    6.0016   46.7934   53.6514 C   0  0  0  0  0  0  0  0  0  0  0  0
    8.0699   46.6866   52.2895 C   0  0  0  0  0  0  0  0  0  0  0  0
    8.6190   47.6091   51.6488 O   0  0  0  0  0  0  0  0  0  0  0  0
    8.1529   45.3761   51.7584 N   0  0  0  0  0  0  0  0  0  0  0  0
    9.4080   44.8611   51.2000 C   0  0  0  0  0  2  0  0  0  0  0  0
    7.0124   44.4626   51.7318 C   0  0  0  0  0  2  0  0  0  0  0  0
    9.0673   44.3311   49.8066 C   0  0  0  0  0  2  0  0  0  0  0  0
    6.6005   44.3637   50.2775 C   0  0  0  0  0  3  0  0  0  0  0  0
    7.7155   44.8332   49.3605 C   0  0  0  0  0  2  0  0  0  0  0  0
    6.1246   43.0530   49.9183 N   0  0  0  0  0  0  0  0  0  0  0  0
    6.3493   42.4707   48.7137 C   0  0  0  0  0  3  0  0  0  0  0  0
    5.4033   42.1661   50.6412 C   0  0  0  0  0  3  0  0  0  0  0  0
    5.7376   41.2137   48.7526 C   0  0  0  0  0  3  0  0  0  0  0  0
    5.1605   41.0453   49.9472 N   0  0  0  0  0  0  0  0  0  0  0  0
    5.3056   46.4176   52.5044 O   0  0  0  0  0  0  0  0  0  0  0  0
    3.9090   46.3380   52.4371 C   0  0  0  0  0  2  0  0  0  0  0  0
    3.5334   45.5823   51.1634 C   0  0  0  0  0  3  0  0  0  0  0  0
    2.2781   44.7469   51.2580 C   0  0  0  0  0  2  0  0  0  0  0  0
    3.6180   44.0465   51.2369 C   0  0  0  0  0  2  0  0  0  0  0  0
  1  6  1  0
  2  1  2  0
  2  3  1  0
  3  4  2  0
  4  5  1  0
  6 20  1  0
  6  5  2  0
  7  1  1  0
  7  9  1  0
  8  7  2  0
  9 11  1  0
 10  9  1  0
 10 12  1  0
 12 14  1  0
 13 11  1  0
 13 15  1  0
 14 13  1  0
 15 17  1  0
 16 15  1  0
 16 18  2  0
 17 19  2  0
 18 19  1  0
 21 22  1  0
 21 20  1  0
 23 24  1  0
 23 22  1  0
 24 22  1  0
M  RAD  8   2   2   3   2   4   2   5   2  10   3  11   3  12   3  13   2
M  RAD  8  14   3  16   2  17   2  18   2  21   3  22   2  23   3  24   3
M  END
>  <REMARK>  (1) 
 SMILES O=C(c1ccccc1OCC1CC1)N1CCCC(n2ccnc2)C1
 SMILES IDX 3 1 4 2 5 3 6 4 7 5 8 6 2 7 1 8 14 9 15 10 24 11 16 12 18 13
 SMILES IDX 17 14 19 15 20 16 23 17 21 18 22 19 9 20 10 21 11 22 12 23
 SMILES IDX 13 24
 H PARENT

>  <TORSDO>  (1) 
F 6

$$$$
