/home/pchatterjee/Documents/git/vs_workflow/DiffDock/diffdock_run/pdbqt_scrubbed/Z1102775719.pdbqt
     RDKit          3D

 24 27  0  0  1  0  0  0  0  0999 V2000
    5.3582   46.6643   54.6380 C   0  0  0  0  0  0  0  0  0  0  0  0
    5.4934   46.1712   55.9264 C   0  0  0  0  0  3  0  0  0  0  0  0
    4.4965   45.4494   56.5633 C   0  0  0  0  0  3  0  0  0  0  0  0
    3.3324   45.2305   55.8564 C   0  0  0  0  0  3  0  0  0  0  0  0
    3.1599   45.7102   54.5614 C   0  0  0  0  0  3  0  0  0  0  0  0
    4.1756   46.4219   53.9674 C   0  0  0  0  0  0  0  0  0  0  0  0
    6.4518   47.3992   54.0539 C   0  0  0  0  0  0  0  0  0  0  0  0
    6.4981   48.6485   54.0740 O   0  0  0  0  0  0  0  0  0  0  0  0
    7.5210   46.7109   53.4301 N   0  0  0  0  0  0  0  0  0  0  0  0
    8.9122   47.1354   53.6219 C   0  0  0  0  0  2  0  0  0  0  0  0
    7.3143   45.5493   52.5676 C   0  0  0  0  0  2  0  0  0  0  0  0
    9.5074   47.2861   52.2212 C   0  0  0  0  0  2  0  0  0  0  0  0
    7.6117   46.0255   51.1607 C   0  0  0  0  0  3  0  0  0  0  0  0
    8.4168   47.3123   51.1780 C   0  0  0  0  0  2  0  0  0  0  0  0
    8.2328   45.0131   50.3465 N   0  0  0  0  0  0  0  0  0  0  0  0
    7.5797   43.9284   49.8593 C   0  0  0  0  0  3  0  0  0  0  0  0
    9.5093   44.9169   49.9096 C   0  0  0  0  0  3  0  0  0  0  0  0
    8.5129   43.1928   49.1220 C   0  0  0  0  0  3  0  0  0  0  0  0
    9.6945   43.8174   49.1655 N   0  0  0  0  0  0  0  0  0  0  0  0
    4.0766   46.9330   52.6751 O   0  0  0  0  0  0  0  0  0  0  0  0
    2.8655   47.0620   51.9837 C   0  0  0  0  0  2  0  0  0  0  0  0
    2.9773   46.2847   50.6731 C   0  0  0  0  0  3  0  0  0  0  0  0
    2.1072   45.0531   50.5798 C   0  0  0  0  0  2  0  0  0  0  0  0
    3.5971   44.8784   50.7701 C   0  0  0  0  0  2  0  0  0  0  0  0
  1  6  1  0
  2  1  2  0
  2  3  1  0
  3  4  2  0
  4  5  1  0
  6 20  1  0
  6  5  2  0
  7  1  1  0
  7  9  1  0
  8  7  2  0
  9 11  1  0
 10  9  1  0
 10 12  1  0
 12 14  1  0
 13 11  1  0
 13 15  1  0
 14 13  1  0
 15 17  1  0
 16 15  1  0
 16 18  2  0
 17 19  2  0
 18 19  1  0
 21 22  1  0
 21 20  1  0
 23 24  1  0
 23 22  1  0
 24 22  1  0
M  RAD  8   2   2   3   2   4   2   5   2  10   3  11   3  12   3  13   2
M  RAD  8  14   3  16   2  17   2  18   2  21   3  22   2  23   3  24   3
M  END
>  <REMARK>  (1) 
 SMILES O=C(c1ccccc1OCC1CC1)N1CCCC(n2ccnc2)C1
 SMILES IDX 3 1 4 2 5 3 6 4 7 5 8 6 2 7 1 8 14 9 15 10 24 11 16 12 18 13
 SMILES IDX 17 14 19 15 20 16 23 17 21 18 22 19 9 20 10 21 11 22 12 23
 SMILES IDX 13 24
 H PARENT

>  <TORSDO>  (1) 
F 6

$$$$
