/home/pchatterjee/Documents/git/vs_workflow/DiffDock/diffdock_run/pdbqt_scrubbed/Z1102775719.pdbqt
     RDKit          3D

 24 27  0  0  1  0  0  0  0  0999 V2000
    6.6149   46.7165   52.7665 C   0  0  0  0  0  0  0  0  0  0  0  0
    5.4060   46.4436   52.1456 C   0  0  0  0  0  3  0  0  0  0  0  0
    4.1833   46.8015   52.6912 C   0  0  0  0  0  3  0  0  0  0  0  0
    4.2064   47.4556   53.9054 C   0  0  0  0  0  3  0  0  0  0  0  0
    5.4003   47.7462   54.5589 C   0  0  0  0  0  3  0  0  0  0  0  0
    6.5910   47.3728   53.9812 C   0  0  0  0  0  0  0  0  0  0  0  0
    7.8380   46.3117   52.1203 C   0  0  0  0  0  0  0  0  0  0  0  0
    8.8196   47.0792   52.0165 O   0  0  0  0  0  0  0  0  0  0  0  0
    7.9600   45.0098   51.5760 N   0  0  0  0  0  0  0  0  0  0  0  0
    9.2357   44.5303   51.0328 C   0  0  0  0  0  2  0  0  0  0  0  0
    6.8415   44.0708   51.5202 C   0  0  0  0  0  2  0  0  0  0  0  0
    8.9301   44.0088   49.6280 C   0  0  0  0  0  2  0  0  0  0  0  0
    6.4559   43.9793   50.0583 C   0  0  0  0  0  3  0  0  0  0  0  0
    7.5745   44.4849   49.1653 C   0  0  0  0  0  2  0  0  0  0  0  0
    6.0163   42.6623   49.6765 N   0  0  0  0  0  0  0  0  0  0  0  0
    4.8460   42.1085   50.0819 C   0  0  0  0  0  3  0  0  0  0  0  0
    6.6177   41.7448   48.8852 C   0  0  0  0  0  3  0  0  0  0  0  0
    4.7792   40.8372   49.5030 C   0  0  0  0  0  3  0  0  0  0  0  0
    5.8791   40.6320   48.7706 N   0  0  0  0  0  0  0  0  0  0  0  0
    7.8252   47.6295   54.5746 O   0  0  0  0  0  0  0  0  0  0  0  0
    7.9922   48.4694   55.6828 C   0  0  0  0  0  2  0  0  0  0  0  0
    9.4345   48.3386   56.1695 C   0  0  0  0  0  3  0  0  0  0  0  0
   10.4381   49.2069   55.4473 C   0  0  0  0  0  2  0  0  0  0  0  0
   10.4324   47.7199   55.1732 C   0  0  0  0  0  2  0  0  0  0  0  0
  1  6  1  0
  2  1  2  0
  2  3  1  0
  3  4  2  0
  4  5  1  0
  6 20  1  0
  6  5  2  0
  7  1  1  0
  7  9  1  0
  8  7  2  0
  9 11  1  0
 10  9  1  0
 10 12  1  0
 12 14  1  0
 13 11  1  0
 13 15  1  0
 14 13  1  0
 15 17  1  0
 16 15  1  0
 16 18  2  0
 17 19  2  0
 18 19  1  0
 21 22  1  0
 21 20  1  0
 23 24  1  0
 23 22  1  0
 24 22  1  0
M  RAD  8   2   2   3   2   4   2   5   2  10   3  11   3  12   3  13   2
M  RAD  8  14   3  16   2  17   2  18   2  21   3  22   2  23   3  24   3
M  END
>  <REMARK>  (1) 
 SMILES O=C(c1ccccc1OCC1CC1)N1CCCC(n2ccnc2)C1
 SMILES IDX 3 1 4 2 5 3 6 4 7 5 8 6 2 7 1 8 14 9 15 10 24 11 16 12 18 13
 SMILES IDX 17 14 19 15 20 16 23 17 21 18 22 19 9 20 10 21 11 22 12 23
 SMILES IDX 13 24
 H PARENT

>  <TORSDO>  (1) 
F 6

$$$$
