/home/pchatterjee/Documents/git/vs_workflow/DiffDock/diffdock_run/pdbqt_scrubbed/Z1102775719.pdbqt
     RDKit          3D

 24 27  0  0  1  0  0  0  0  0999 V2000
    6.7700   43.1473   49.6954 C   0  0  0  0  0  0  0  0  0  0  0  0
    6.7640   42.2345   48.6522 C   0  0  0  0  0  3  0  0  0  0  0  0
    5.6178   41.5757   48.2366 C   0  0  0  0  0  3  0  0  0  0  0  0
    4.4500   41.8636   48.9120 C   0  0  0  0  0  3  0  0  0  0  0  0
    4.4170   42.7736   49.9644 C   0  0  0  0  0  3  0  0  0  0  0  0
    5.5783   43.4049   50.3437 C   0  0  0  0  0  0  0  0  0  0  0  0
    8.0098   43.7891   50.0537 C   0  0  0  0  0  0  0  0  0  0  0  0
    9.1115   43.2062   49.9564 O   0  0  0  0  0  0  0  0  0  0  0  0
    8.0100   45.1213   50.5349 N   0  0  0  0  0  0  0  0  0  0  0  0
    9.0899   46.0528   50.1907 C   0  0  0  0  0  2  0  0  0  0  0  0
    6.9512   45.6499   51.3924 C   0  0  0  0  0  2  0  0  0  0  0  0
    9.5914   46.6300   51.5152 C   0  0  0  0  0  2  0  0  0  0  0  0
    7.5743   45.8058   52.7641 C   0  0  0  0  0  3  0  0  0  0  0  0
    9.0899   45.8095   52.6787 C   0  0  0  0  0  2  0  0  0  0  0  0
    7.0730   46.9502   53.4801 N   0  0  0  0  0  0  0  0  0  0  0  0
    5.7562   47.1797   53.7123 C   0  0  0  0  0  3  0  0  0  0  0  0
    7.7444   47.9791   54.0459 C   0  0  0  0  0  3  0  0  0  0  0  0
    5.6759   48.3756   54.4328 C   0  0  0  0  0  3  0  0  0  0  0  0
    6.9100   48.8522   54.6277 N   0  0  0  0  0  0  0  0  0  0  0  0
    5.6237   44.3275   51.3867 O   0  0  0  0  0  0  0  0  0  0  0  0
    4.5653   44.5412   52.2785 C   0  0  0  0  0  2  0  0  0  0  0  0
    4.8595   45.8114   53.0752 C   0  0  0  0  0  3  0  0  0  0  0  0
    6.2518   45.8985   53.6551 C   0  0  0  0  0  2  0  0  0  0  0  0
    5.0920   45.6251   54.5860 C   0  0  0  0  0  2  0  0  0  0  0  0
  1  6  1  0
  2  1  2  0
  2  3  1  0
  3  4  2  0
  4  5  1  0
  6 20  1  0
  6  5  2  0
  7  1  1  0
  7  9  1  0
  8  7  2  0
  9 11  1  0
 10  9  1  0
 10 12  1  0
 12 14  1  0
 13 11  1  0
 13 15  1  0
 14 13  1  0
 15 17  1  0
 16 15  1  0
 16 18  2  0
 17 19  2  0
 18 19  1  0
 21 22  1  0
 21 20  1  0
 23 24  1  0
 23 22  1  0
 24 22  1  0
M  RAD  8   2   2   3   2   4   2   5   2  10   3  11   3  12   3  13   2
M  RAD  8  14   3  16   2  17   2  18   2  21   3  22   2  23   3  24   3
M  END
>  <REMARK>  (1) 
 SMILES O=C(c1ccccc1OCC1CC1)N1CCCC(n2ccnc2)C1
 SMILES IDX 3 1 4 2 5 3 6 4 7 5 8 6 2 7 1 8 14 9 15 10 24 11 16 12 18 13
 SMILES IDX 17 14 19 15 20 16 23 17 21 18 22 19 9 20 10 21 11 22 12 23
 SMILES IDX 13 24
 H PARENT

>  <TORSDO>  (1) 
F 6

$$$$
