/home/pchatterjee/Documents/git/vs_workflow/DiffDock/diffdock_run/pdbqt_scrubbed/Z1102775719.pdbqt
     RDKit          3D

 24 27  0  0  1  0  0  0  0  0999 V2000
    6.8388   46.8796   52.9633 C   0  0  0  0  0  0  0  0  0  0  0  0
    5.6399   46.4837   52.3912 C   0  0  0  0  0  3  0  0  0  0  0  0
    4.4056   46.8577   52.8981 C   0  0  0  0  0  3  0  0  0  0  0  0
    4.4061   47.6583   54.0215 C   0  0  0  0  0  3  0  0  0  0  0  0
    5.5894   48.0753   54.6239 C   0  0  0  0  0  3  0  0  0  0  0  0
    6.7923   47.6806   54.0872 C   0  0  0  0  0  0  0  0  0  0  0  0
    8.0753   46.4466   52.3624 C   0  0  0  0  0  0  0  0  0  0  0  0
    9.0898   47.1766   52.3313 O   0  0  0  0  0  0  0  0  0  0  0  0
    8.1728   45.1590   51.7804 N   0  0  0  0  0  0  0  0  0  0  0  0
    9.4605   44.6308   51.3164 C   0  0  0  0  0  2  0  0  0  0  0  0
    7.0159   44.2830   51.6062 C   0  0  0  0  0  2  0  0  0  0  0  0
    9.2374   44.1735   49.8742 C   0  0  0  0  0  2  0  0  0  0  0  0
    6.7392   44.2611   50.1171 C   0  0  0  0  0  3  0  0  0  0  0  0
    7.9469   44.7361   49.3297 C   0  0  0  0  0  2  0  0  0  0  0  0
    6.2643   42.9827   49.6547 N   0  0  0  0  0  0  0  0  0  0  0  0
    5.0548   42.4619   49.9812 C   0  0  0  0  0  3  0  0  0  0  0  0
    6.8637   42.0769   48.8486 C   0  0  0  0  0  3  0  0  0  0  0  0
    4.9630   41.2221   49.3408 C   0  0  0  0  0  3  0  0  0  0  0  0
    6.0863   41.0032   48.6491 N   0  0  0  0  0  0  0  0  0  0  0  0
    8.0170   48.0580   54.6339 O   0  0  0  0  0  0  0  0  0  0  0  0
    8.1594   49.0725   55.5887 C   0  0  0  0  0  2  0  0  0  0  0  0
    9.5760   49.0003   56.1565 C   0  0  0  0  0  3  0  0  0  0  0  0
   10.6585   49.5466   55.2553 C   0  0  0  0  0  2  0  0  0  0  0  0
   10.5479   48.0492   55.4340 C   0  0  0  0  0  2  0  0  0  0  0  0
  1  6  1  0
  2  1  2  0
  2  3  1  0
  3  4  2  0
  4  5  1  0
  6 20  1  0
  6  5  2  0
  7  1  1  0
  7  9  1  0
  8  7  2  0
  9 11  1  0
 10  9  1  0
 10 12  1  0
 12 14  1  0
 13 11  1  0
 13 15  1  0
 14 13  1  0
 15 17  1  0
 16 15  1  0
 16 18  2  0
 17 19  2  0
 18 19  1  0
 21 22  1  0
 21 20  1  0
 23 24  1  0
 23 22  1  0
 24 22  1  0
M  RAD  8   2   2   3   2   4   2   5   2  10   3  11   3  12   3  13   2
M  RAD  8  14   3  16   2  17   2  18   2  21   3  22   2  23   3  24   3
M  END
>  <REMARK>  (1) 
 SMILES O=C(c1ccccc1OCC1CC1)N1CCCC(n2ccnc2)C1
 SMILES IDX 3 1 4 2 5 3 6 4 7 5 8 6 2 7 1 8 14 9 15 10 24 11 16 12 18 13
 SMILES IDX 17 14 19 15 20 16 23 17 21 18 22 19 9 20 10 21 11 22 12 23
 SMILES IDX 13 24
 H PARENT

>  <TORSDO>  (1) 
F 6

$$$$
