/home/pchatterjee/Documents/git/vs_workflow/DiffDock/diffdock_run/pdbqt_scrubbed/Z1102775719.pdbqt
     RDKit          3D

 24 27  0  0  1  0  0  0  0  0999 V2000
    6.9088   43.0463   49.7255 C   0  0  0  0  0  0  0  0  0  0  0  0
    6.9368   42.1973   48.6302 C   0  0  0  0  0  3  0  0  0  0  0  0
    5.8185   41.5131   48.1809 C   0  0  0  0  0  3  0  0  0  0  0  0
    4.6435   41.7076   48.8768 C   0  0  0  0  0  3  0  0  0  0  0  0
    4.5768   42.5515   49.9813 C   0  0  0  0  0  3  0  0  0  0  0  0
    5.7111   43.2112   50.3928 C   0  0  0  0  0  0  0  0  0  0  0  0
    8.1209   43.7212   50.1163 C   0  0  0  0  0  0  0  0  0  0  0  0
    9.2312   43.1464   50.1140 O   0  0  0  0  0  0  0  0  0  0  0  0
    8.0829   45.0780   50.5210 N   0  0  0  0  0  0  0  0  0  0  0  0
    9.1289   46.0220   50.1122 C   0  0  0  0  0  2  0  0  0  0  0  0
    7.0158   45.6210   51.3591 C   0  0  0  0  0  2  0  0  0  0  0  0
    9.6242   46.6894   51.3960 C   0  0  0  0  0  2  0  0  0  0  0  0
    7.6468   45.8746   52.7126 C   0  0  0  0  0  3  0  0  0  0  0  0
    9.1606   45.9213   52.6099 C   0  0  0  0  0  2  0  0  0  0  0  0
    7.1158   47.0416   53.3682 N   0  0  0  0  0  0  0  0  0  0  0  0
    5.7910   47.3166   53.4668 C   0  0  0  0  0  3  0  0  0  0  0  0
    7.7620   48.0531   53.9917 C   0  0  0  0  0  3  0  0  0  0  0  0
    5.6799   48.5212   54.1684 C   0  0  0  0  0  3  0  0  0  0  0  0
    6.9040   48.9586   54.4823 N   0  0  0  0  0  0  0  0  0  0  0  0
    5.7220   44.0718   51.4884 O   0  0  0  0  0  0  0  0  0  0  0  0
    4.6528   44.1996   52.3838 C   0  0  0  0  0  2  0  0  0  0  0  0
    4.9390   45.3842   53.3053 C   0  0  0  0  0  3  0  0  0  0  0  0
    3.7944   46.3550   53.4788 C   0  0  0  0  0  2  0  0  0  0  0  0
    4.9786   46.7700   52.6350 C   0  0  0  0  0  2  0  0  0  0  0  0
  1  6  1  0
  2  1  2  0
  2  3  1  0
  3  4  2  0
  4  5  1  0
  6 20  1  0
  6  5  2  0
  7  1  1  0
  7  9  1  0
  8  7  2  0
  9 11  1  0
 10  9  1  0
 10 12  1  0
 12 14  1  0
 13 11  1  0
 13 15  1  0
 14 13  1  0
 15 17  1  0
 16 15  1  0
 16 18  2  0
 17 19  2  0
 18 19  1  0
 21 22  1  0
 21 20  1  0
 23 24  1  0
 23 22  1  0
 24 22  1  0
M  RAD  8   2   2   3   2   4   2   5   2  10   3  11   3  12   3  13   2
M  RAD  8  14   3  16   2  17   2  18   2  21   3  22   2  23   3  24   3
M  END
>  <REMARK>  (1) 
 SMILES O=C(c1ccccc1OCC1CC1)N1CCCC(n2ccnc2)C1
 SMILES IDX 3 1 4 2 5 3 6 4 7 5 8 6 2 7 1 8 14 9 15 10 24 11 16 12 18 13
 SMILES IDX 17 14 19 15 20 16 23 17 21 18 22 19 9 20 10 21 11 22 12 23
 SMILES IDX 13 24
 H PARENT

>  <TORSDO>  (1) 
F 6

$$$$
