/home/pchatterjee/Documents/git/vs_workflow/DiffDock/diffdock_run/pdbqt_scrubbed/Z1102775719.pdbqt
     RDKit          3D

 24 27  0  0  1  0  0  0  0  0999 V2000
    6.8762   46.5074   53.1722 C   0  0  0  0  0  0  0  0  0  0  0  0
    5.7313   45.7343   53.0580 C   0  0  0  0  0  3  0  0  0  0  0  0
    4.5882   45.9693   53.8053 C   0  0  0  0  0  3  0  0  0  0  0  0
    4.6252   47.0255   54.6917 C   0  0  0  0  0  3  0  0  0  0  0  0
    5.7565   47.8234   54.8344 C   0  0  0  0  0  3  0  0  0  0  0  0
    6.8692   47.5545   54.0724 C   0  0  0  0  0  0  0  0  0  0  0  0
    8.0161   46.1920   52.3485 C   0  0  0  0  0  0  0  0  0  0  0  0
    8.9725   46.9847   52.2067 O   0  0  0  0  0  0  0  0  0  0  0  0
    8.0816   44.9528   51.6658 N   0  0  0  0  0  0  0  0  0  0  0  0
    9.2930   44.5456   50.9454 C   0  0  0  0  0  2  0  0  0  0  0  0
    6.9649   44.0104   51.6338 C   0  0  0  0  0  2  0  0  0  0  0  0
    8.8408   44.1638   49.5353 C   0  0  0  0  0  2  0  0  0  0  0  0
    6.4263   44.0612   50.2190 C   0  0  0  0  0  3  0  0  0  0  0  0
    7.4430   44.6673   49.2686 C   0  0  0  0  0  2  0  0  0  0  0  0
    5.9507   42.7837   49.7548 N   0  0  0  0  0  0  0  0  0  0  0  0
    6.7629   41.7465   49.4309 C   0  0  0  0  0  3  0  0  0  0  0  0
    4.6845   42.3531   49.5530 C   0  0  0  0  0  3  0  0  0  0  0  0
    5.9334   40.6932   49.0331 C   0  0  0  0  0  3  0  0  0  0  0  0
    4.6580   41.0865   49.1148 N   0  0  0  0  0  0  0  0  0  0  0  0
    8.0375   48.3086   54.1593 O   0  0  0  0  0  0  0  0  0  0  0  0
    8.0986   49.5768   54.7504 C   0  0  0  0  0  2  0  0  0  0  0  0
    9.5615   50.0158   54.7914 C   0  0  0  0  0  3  0  0  0  0  0  0
    9.8113   51.4566   54.4116 C   0  0  0  0  0  2  0  0  0  0  0  0
   10.2011   50.3692   53.4359 C   0  0  0  0  0  2  0  0  0  0  0  0
  1  6  1  0
  2  1  2  0
  2  3  1  0
  3  4  2  0
  4  5  1  0
  6 20  1  0
  6  5  2  0
  7  1  1  0
  7  9  1  0
  8  7  2  0
  9 11  1  0
 10  9  1  0
 10 12  1  0
 12 14  1  0
 13 11  1  0
 13 15  1  0
 14 13  1  0
 15 17  1  0
 16 15  1  0
 16 18  2  0
 17 19  2  0
 18 19  1  0
 21 22  1  0
 21 20  1  0
 23 24  1  0
 23 22  1  0
 24 22  1  0
M  RAD  8   2   2   3   2   4   2   5   2  10   3  11   3  12   3  13   2
M  RAD  8  14   3  16   2  17   2  18   2  21   3  22   2  23   3  24   3
M  END
>  <REMARK>  (1) 
 SMILES O=C(c1ccccc1OCC1CC1)N1CCCC(n2ccnc2)C1
 SMILES IDX 3 1 4 2 5 3 6 4 7 5 8 6 2 7 1 8 14 9 15 10 24 11 16 12 18 13
 SMILES IDX 17 14 19 15 20 16 23 17 21 18 22 19 9 20 10 21 11 22 12 23
 SMILES IDX 13 24
 H PARENT

>  <TORSDO>  (1) 
F 6

$$$$
