/home/pchatterjee/Documents/git/vs_workflow/DiffDock/diffdock_run/pdbqt_scrubbed/Z1102775719.pdbqt
     RDKit          3D

 24 27  0  0  1  0  0  0  0  0999 V2000
    5.5171   46.9090   54.1772 C   0  0  0  0  0  0  0  0  0  0  0  0
    5.2714   45.6361   54.6679 C   0  0  0  0  0  3  0  0  0  0  0  0
    3.9999   45.0890   54.7348 C   0  0  0  0  0  3  0  0  0  0  0  0
    2.9565   45.8718   54.2861 C   0  0  0  0  0  3  0  0  0  0  0  0
    3.1641   47.1544   53.7874 C   0  0  0  0  0  3  0  0  0  0  0  0
    4.4428   47.6579   53.7389 C   0  0  0  0  0  0  0  0  0  0  0  0
    6.8744   47.3924   54.1398 C   0  0  0  0  0  0  0  0  0  0  0  0
    7.2118   48.4668   54.6830 O   0  0  0  0  0  0  0  0  0  0  0  0
    7.8783   46.6481   53.4733 N   0  0  0  0  0  0  0  0  0  0  0  0
    9.3018   46.8916   53.7316 C   0  0  0  0  0  2  0  0  0  0  0  0
    7.5692   45.6032   52.4993 C   0  0  0  0  0  2  0  0  0  0  0  0
    9.9517   47.1038   52.3636 C   0  0  0  0  0  2  0  0  0  0  0  0
    7.9597   46.1718   51.1507 C   0  0  0  0  0  3  0  0  0  0  0  0
    8.9024   47.3512   51.3070 C   0  0  0  0  0  2  0  0  0  0  0  0
    8.4881   45.1757   50.2550 N   0  0  0  0  0  0  0  0  0  0  0  0
    7.7349   44.2152   49.6629 C   0  0  0  0  0  3  0  0  0  0  0  0
    9.7565   44.9830   49.8264 C   0  0  0  0  0  3  0  0  0  0  0  0
    8.6011   43.4528   48.8728 C   0  0  0  0  0  3  0  0  0  0  0  0
    9.8408   43.9410   48.9873 N   0  0  0  0  0  0  0  0  0  0  0  0
    4.7289   48.9319   53.2529 O   0  0  0  0  0  0  0  0  0  0  0  0
    3.7482   49.8890   52.9639 C   0  0  0  0  0  2  0  0  0  0  0  0
    4.4366   51.2414   52.7865 C   0  0  0  0  0  3  0  0  0  0  0  0
    5.1235   51.7799   54.0198 C   0  0  0  0  0  2  0  0  0  0  0  0
    3.8288   52.4191   53.5707 C   0  0  0  0  0  2  0  0  0  0  0  0
  1  6  1  0
  2  1  2  0
  2  3  1  0
  3  4  2  0
  4  5  1  0
  6 20  1  0
  6  5  2  0
  7  1  1  0
  7  9  1  0
  8  7  2  0
  9 11  1  0
 10  9  1  0
 10 12  1  0
 12 14  1  0
 13 11  1  0
 13 15  1  0
 14 13  1  0
 15 17  1  0
 16 15  1  0
 16 18  2  0
 17 19  2  0
 18 19  1  0
 21 22  1  0
 21 20  1  0
 23 24  1  0
 23 22  1  0
 24 22  1  0
M  RAD  8   2   2   3   2   4   2   5   2  10   3  11   3  12   3  13   2
M  RAD  8  14   3  16   2  17   2  18   2  21   3  22   2  23   3  24   3
M  END
>  <REMARK>  (1) 
 SMILES O=C(c1ccccc1OCC1CC1)N1CCCC(n2ccnc2)C1
 SMILES IDX 3 1 4 2 5 3 6 4 7 5 8 6 2 7 1 8 14 9 15 10 24 11 16 12 18 13
 SMILES IDX 17 14 19 15 20 16 23 17 21 18 22 19 9 20 10 21 11 22 12 23
 SMILES IDX 13 24
 H PARENT

>  <TORSDO>  (1) 
F 6

$$$$
