/home/pchatterjee/Documents/git/vs_workflow/DiffDock/diffdock_run/pdbqt_scrubbed/Z1102775719.pdbqt
     RDKit          3D

 24 27  0  0  1  0  0  0  0  0999 V2000
    6.7877   43.1242   49.6981 C   0  0  0  0  0  0  0  0  0  0  0  0
    6.7877   42.1534   48.7087 C   0  0  0  0  0  3  0  0  0  0  0  0
    5.6589   41.4235   48.3720 C   0  0  0  0  0  3  0  0  0  0  0  0
    4.5025   41.6997   49.0715 C   0  0  0  0  0  3  0  0  0  0  0  0
    4.4640   42.6667   50.0716 C   0  0  0  0  0  3  0  0  0  0  0  0
    5.6079   43.3678   50.3731 C   0  0  0  0  0  0  0  0  0  0  0  0
    8.0088   43.8380   49.9753 C   0  0  0  0  0  0  0  0  0  0  0  0
    9.1325   43.3033   49.8544 O   0  0  0  0  0  0  0  0  0  0  0  0
    7.9647   45.1884   50.4002 N   0  0  0  0  0  0  0  0  0  0  0  0
    8.9674   46.1597   49.9488 C   0  0  0  0  0  2  0  0  0  0  0  0
    6.9336   45.6978   51.3020 C   0  0  0  0  0  2  0  0  0  0  0  0
    9.5175   46.8212   51.2132 C   0  0  0  0  0  2  0  0  0  0  0  0
    7.6315   45.9475   52.6229 C   0  0  0  0  0  3  0  0  0  0  0  0
    9.1362   46.0279   52.4395 C   0  0  0  0  0  2  0  0  0  0  0  0
    7.1127   47.0945   53.3222 N   0  0  0  0  0  0  0  0  0  0  0  0
    5.7900   47.3681   53.4497 C   0  0  0  0  0  3  0  0  0  0  0  0
    7.7702   48.0855   53.9665 C   0  0  0  0  0  3  0  0  0  0  0  0
    5.6919   48.5506   54.1897 C   0  0  0  0  0  3  0  0  0  0  0  0
    6.9215   48.9766   54.4979 N   0  0  0  0  0  0  0  0  0  0  0  0
    5.6468   44.3502   51.3603 O   0  0  0  0  0  0  0  0  0  0  0  0
    4.6946   44.4603   52.3814 C   0  0  0  0  0  2  0  0  0  0  0  0
    3.8180   45.6772   52.0894 C   0  0  0  0  0  3  0  0  0  0  0  0
    4.2797   46.9689   52.7224 C   0  0  0  0  0  2  0  0  0  0  0  0
    3.0639   46.2735   53.2923 C   0  0  0  0  0  2  0  0  0  0  0  0
  1  6  1  0
  2  1  2  0
  2  3  1  0
  3  4  2  0
  4  5  1  0
  6 20  1  0
  6  5  2  0
  7  1  1  0
  7  9  1  0
  8  7  2  0
  9 11  1  0
 10  9  1  0
 10 12  1  0
 12 14  1  0
 13 11  1  0
 13 15  1  0
 14 13  1  0
 15 17  1  0
 16 15  1  0
 16 18  2  0
 17 19  2  0
 18 19  1  0
 21 22  1  0
 21 20  1  0
 23 24  1  0
 23 22  1  0
 24 22  1  0
M  RAD  8   2   2   3   2   4   2   5   2  10   3  11   3  12   3  13   2
M  RAD  8  14   3  16   2  17   2  18   2  21   3  22   2  23   3  24   3
M  END
>  <REMARK>  (1) 
 SMILES O=C(c1ccccc1OCC1CC1)N1CCCC(n2ccnc2)C1
 SMILES IDX 3 1 4 2 5 3 6 4 7 5 8 6 2 7 1 8 14 9 15 10 24 11 16 12 18 13
 SMILES IDX 17 14 19 15 20 16 23 17 21 18 22 19 9 20 10 21 11 22 12 23
 SMILES IDX 13 24
 H PARENT

>  <TORSDO>  (1) 
F 6

$$$$
