/home/pchatterjee/Documents/git/vs_workflow/DiffDock/diffdock_run/pdbqt_scrubbed/Z3006954377.pdbqt
     RDKit          3D

 22 24  0  0  0  0  0  0  0  0999 V2000
    4.3894   42.5045   50.6585 C   0  0  0  0  0  0  0  0  0  0  0  0
    3.3974   42.4814   51.6022 C   0  0  0  0  0  0  0  0  0  0  0  0
    3.4899   43.4174   53.0585 Cl  0  0  0  0  0  0  0  0  0  0  0  0
    2.2364   41.7126   51.4314 C   0  0  0  0  0  3  0  0  0  0  0  0
    2.0547   40.9517   50.3015 C   0  0  0  0  0  3  0  0  0  0  0  0
    3.0347   40.9622   49.3461 C   0  0  0  0  0  3  0  0  0  0  0  0
    4.1611   41.7159   49.5260 C   0  0  0  0  0  0  0  0  0  0  0  0
    5.6334   43.2176   50.7220 C   0  0  0  0  0  0  0  0  0  0  0  0
    6.5854   43.3754   49.6950 N   0  0  0  0  0  0  0  0  0  0  0  0
    5.9446   43.7909   51.8239 O   0  0  0  0  0  0  0  0  0  0  0  0
    7.8045   44.0575   50.0003 C   0  0  0  0  0  0  0  0  0  0  0  0
    9.2391   45.5052   50.8153 C   0  0  0  0  0  0  0  0  0  0  0  0
    9.9164   44.6051   50.0811 N   0  0  0  0  0  0  0  0  0  0  0  0
    7.8909   45.1902   50.7882 C   0  0  0  0  0  0  0  0  0  0  0  0
    9.0569   43.7157   49.5772 N   0  0  0  0  0  0  0  0  0  0  0  0
    9.8347   46.6548   51.5413 C   0  0  0  0  0  1  0  0  0  0  0  0
    6.7676   45.9221   51.4682 C   0  0  0  0  0  1  0  0  0  0  0  0
    5.1112   41.6609   48.4876 O   0  0  0  0  0  0  0  0  0  0  0  0
    4.5663   41.7108   47.1593 C   0  0  0  0  0  2  0  0  0  0  0  0
    5.7105   41.6265   46.1494 C   0  0  0  0  0  3  0  0  0  0  0  0
    6.2051   40.2452   45.9003 C   0  0  0  0  0  2  0  0  0  0  0  0
    5.3031   40.8397   44.8870 C   0  0  0  0  0  2  0  0  0  0  0  0
  1  7  1  0
  1  2  2  0
  2  4  1  0
  3  2  1  0
  4  5  2  0
  6  5  1  0
  7  6  2  0
  8 10  2  0
  8  1  1  0
  9  8  1  0
 11  9  1  0
 12 13  2  0
 12 14  1  0
 13 15  1  0
 14 11  2  0
 15 11  1  0
 16 12  1  0
 17 14  1  0
 18 19  1  0
 18  7  1  0
 20 19  1  0
 21 22  1  0
 21 20  1  0
 22 20  1  0
M  RAD  8   4   2   5   2   6   2  16   2  17   2  19   3  20   2  21   3
M  RAD  1  22   3
M  END
>  <REMARK>  (1) 
 SMILES Cc1n[nH]c(NC(=O)c2c(Cl)cccc2OCC2CC2)c1C
 SMILES IDX 9 1 10 2 11 3 12 4 13 5 14 6 15 7 7 8 6 9 8 11 5 12 2 13
 SMILES IDX 3 14 21 15 4 16 1 17 22 18 16 20 17 21 18 22 19 23 20 24
 H PARENT 6 10 4 19

>  <TORSDO>  (1) 
F 5

$$$$
