/home/pchatterjee/Documents/git/vs_workflow/DiffDock/diffdock_run/pdbqt_scrubbed/Z3006954377.pdbqt
     RDKit          3D

 22 24  0  0  0  0  0  0  0  0999 V2000
    5.1884   42.6383   49.8304 C   0  0  0  0  0  0  0  0  0  0  0  0
    4.9334   41.5214   49.0803 C   0  0  0  0  0  0  0  0  0  0  0  0
    6.0792   40.8975   47.9386 Cl  0  0  0  0  0  0  0  0  0  0  0  0
    3.7345   40.8046   49.2111 C   0  0  0  0  0  3  0  0  0  0  0  0
    2.7690   41.2028   50.1042 C   0  0  0  0  0  3  0  0  0  0  0  0
    3.0056   42.3165   50.8638 C   0  0  0  0  0  3  0  0  0  0  0  0
    4.1783   43.0056   50.7257 C   0  0  0  0  0  0  0  0  0  0  0  0
    6.3520   43.4767   49.7737 C   0  0  0  0  0  0  0  0  0  0  0  0
    7.6399   43.1919   50.2698 N   0  0  0  0  0  0  0  0  0  0  0  0
    6.2434   44.6223   49.2118 O   0  0  0  0  0  0  0  0  0  0  0  0
    8.6030   44.2485   50.3007 C   0  0  0  0  0  0  0  0  0  0  0  0
    9.7181   46.0396   50.9057 C   0  0  0  0  0  0  0  0  0  0  0  0
   10.2890   45.5402   49.7954 N   0  0  0  0  0  0  0  0  0  0  0  0
    8.6408   45.2445   51.2588 C   0  0  0  0  0  0  0  0  0  0  0  0
    9.6215   44.4482   49.4135 N   0  0  0  0  0  0  0  0  0  0  0  0
   10.1657   47.2493   51.6404 C   0  0  0  0  0  1  0  0  0  0  0  0
    7.7154   45.4265   52.4293 C   0  0  0  0  0  1  0  0  0  0  0  0
    4.3286   44.1371   51.5508 O   0  0  0  0  0  0  0  0  0  0  0  0
    3.2569   44.3602   52.4810 C   0  0  0  0  0  2  0  0  0  0  0  0
    3.5659   45.6100   53.3048 C   0  0  0  0  0  3  0  0  0  0  0  0
    4.1167   45.3289   54.6584 C   0  0  0  0  0  2  0  0  0  0  0  0
    5.0731   45.7398   53.6048 C   0  0  0  0  0  2  0  0  0  0  0  0
  1  7  1  0
  1  2  2  0
  2  4  1  0
  3  2  1  0
  4  5  2  0
  6  5  1  0
  7  6  2  0
  8 10  2  0
  8  1  1  0
  9  8  1  0
 11  9  1  0
 12 13  2  0
 12 14  1  0
 13 15  1  0
 14 11  2  0
 15 11  1  0
 16 12  1  0
 17 14  1  0
 18 19  1  0
 18  7  1  0
 20 19  1  0
 21 22  1  0
 21 20  1  0
 22 20  1  0
M  RAD  8   4   2   5   2   6   2  16   2  17   2  19   3  20   2  21   3
M  RAD  1  22   3
M  END
>  <REMARK>  (1) 
 SMILES Cc1n[nH]c(NC(=O)c2c(Cl)cccc2OCC2CC2)c1C
 SMILES IDX 9 1 10 2 11 3 12 4 13 5 14 6 15 7 7 8 6 9 8 11 5 12 2 13
 SMILES IDX 3 14 21 15 4 16 1 17 22 18 16 20 17 21 18 22 19 23 20 24
 H PARENT 6 10 4 19

>  <TORSDO>  (1) 
F 5

$$$$
