/home/pchatterjee/Documents/git/vs_workflow/DiffDock/diffdock_run/pdbqt_scrubbed/Z3006954377.pdbqt
     RDKit          3D

 22 24  0  0  0  0  0  0  0  0999 V2000
    8.2419   46.5466   52.7890 C   0  0  0  0  0  0  0  0  0  0  0  0
    9.4125   47.2108   53.0416 C   0  0  0  0  0  0  0  0  0  0  0  0
   10.8828   46.8371   52.2026 Cl  0  0  0  0  0  0  0  0  0  0  0  0
    9.4814   48.2499   53.9817 C   0  0  0  0  0  3  0  0  0  0  0  0
    8.3668   48.6390   54.6853 C   0  0  0  0  0  3  0  0  0  0  0  0
    7.1870   47.9876   54.4463 C   0  0  0  0  0  3  0  0  0  0  0  0
    7.1345   46.9766   53.5275 C   0  0  0  0  0  0  0  0  0  0  0  0
    8.0416   45.4519   51.8826 C   0  0  0  0  0  0  0  0  0  0  0  0
    8.1610   45.4676   50.4785 N   0  0  0  0  0  0  0  0  0  0  0  0
    7.7182   44.3140   52.3729 O   0  0  0  0  0  0  0  0  0  0  0  0
    7.9490   44.2455   49.7668 C   0  0  0  0  0  0  0  0  0  0  0  0
    7.0032   42.4361   48.9612 C   0  0  0  0  0  0  0  0  0  0  0  0
    8.2661   42.4938   48.5030 N   0  0  0  0  0  0  0  0  0  0  0  0
    6.7634   43.5344   49.7697 C   0  0  0  0  0  0  0  0  0  0  0  0
    8.8565   43.5907   48.9847 N   0  0  0  0  0  0  0  0  0  0  0  0
    6.0184   41.3689   48.6536 C   0  0  0  0  0  1  0  0  0  0  0  0
    5.4904   43.8768   50.4921 C   0  0  0  0  0  1  0  0  0  0  0  0
    5.8763   46.3682   53.3525 O   0  0  0  0  0  0  0  0  0  0  0  0
    4.7586   47.1278   53.8397 C   0  0  0  0  0  2  0  0  0  0  0  0
    3.4681   46.3735   53.5206 C   0  0  0  0  0  3  0  0  0  0  0  0
    2.5798   47.0666   52.5483 C   0  0  0  0  0  2  0  0  0  0  0  0
    3.4055   45.9471   52.0397 C   0  0  0  0  0  2  0  0  0  0  0  0
  1  7  1  0
  1  2  2  0
  2  4  1  0
  3  2  1  0
  4  5  2  0
  6  5  1  0
  7  6  2  0
  8 10  2  0
  8  1  1  0
  9  8  1  0
 11  9  1  0
 12 13  2  0
 12 14  1  0
 13 15  1  0
 14 11  2  0
 15 11  1  0
 16 12  1  0
 17 14  1  0
 18 19  1  0
 18  7  1  0
 20 19  1  0
 21 22  1  0
 21 20  1  0
 22 20  1  0
M  RAD  8   4   2   5   2   6   2  16   2  17   2  19   3  20   2  21   3
M  RAD  1  22   3
M  END
>  <REMARK>  (1) 
 SMILES Cc1n[nH]c(NC(=O)c2c(Cl)cccc2OCC2CC2)c1C
 SMILES IDX 9 1 10 2 11 3 12 4 13 5 14 6 15 7 7 8 6 9 8 11 5 12 2 13
 SMILES IDX 3 14 21 15 4 16 1 17 22 18 16 20 17 21 18 22 19 23 20 24
 H PARENT 6 10 4 19

>  <TORSDO>  (1) 
F 5

$$$$
