/home/pchatterjee/Documents/git/vs_workflow/DiffDock/diffdock_run/pdbqt_scrubbed/Z3006954377.pdbqt
     RDKit          3D

 22 24  0  0  0  0  0  0  0  0999 V2000
    5.2835   42.6809   49.7442 C   0  0  0  0  0  0  0  0  0  0  0  0
    4.9047   41.6148   48.9727 C   0  0  0  0  0  0  0  0  0  0  0  0
    5.9974   40.8408   47.8715 Cl  0  0  0  0  0  0  0  0  0  0  0  0
    3.6124   41.0740   49.0475 C   0  0  0  0  0  3  0  0  0  0  0  0
    2.6766   41.6003   49.9053 C   0  0  0  0  0  3  0  0  0  0  0  0
    3.0363   42.6658   50.6855 C   0  0  0  0  0  3  0  0  0  0  0  0
    4.2991   43.1829   50.6019 C   0  0  0  0  0  0  0  0  0  0  0  0
    6.5549   43.3468   49.7431 C   0  0  0  0  0  0  0  0  0  0  0  0
    7.4375   43.5130   50.8291 N   0  0  0  0  0  0  0  0  0  0  0  0
    6.9671   43.8586   48.6440 O   0  0  0  0  0  0  0  0  0  0  0  0
    8.4329   44.5360   50.7427 C   0  0  0  0  0  0  0  0  0  0  0  0
    9.6377   46.3184   51.1775 C   0  0  0  0  0  0  0  0  0  0  0  0
   10.1242   45.7392   50.0658 N   0  0  0  0  0  0  0  0  0  0  0  0
    8.5598   45.5814   51.6384 C   0  0  0  0  0  0  0  0  0  0  0  0
    9.4012   44.6514   49.7870 N   0  0  0  0  0  0  0  0  0  0  0  0
   10.1665   47.5507   51.8142 C   0  0  0  0  0  1  0  0  0  0  0  0
    7.7135   45.8594   52.8493 C   0  0  0  0  0  1  0  0  0  0  0  0
    4.5732   44.2779   51.4443 O   0  0  0  0  0  0  0  0  0  0  0  0
    3.4917   44.6717   52.3039 C   0  0  0  0  0  2  0  0  0  0  0  0
    3.9554   45.8294   53.1876 C   0  0  0  0  0  3  0  0  0  0  0  0
    3.9058   45.5420   54.6470 C   0  0  0  0  0  2  0  0  0  0  0  0
    5.2273   45.4693   53.9821 C   0  0  0  0  0  2  0  0  0  0  0  0
  1  7  1  0
  1  2  2  0
  2  4  1  0
  3  2  1  0
  4  5  2  0
  6  5  1  0
  7  6  2  0
  8 10  2  0
  8  1  1  0
  9  8  1  0
 11  9  1  0
 12 13  2  0
 12 14  1  0
 13 15  1  0
 14 11  2  0
 15 11  1  0
 16 12  1  0
 17 14  1  0
 18 19  1  0
 18  7  1  0
 20 19  1  0
 21 22  1  0
 21 20  1  0
 22 20  1  0
M  RAD  8   4   2   5   2   6   2  16   2  17   2  19   3  20   2  21   3
M  RAD  1  22   3
M  END
>  <REMARK>  (1) 
 SMILES Cc1n[nH]c(NC(=O)c2c(Cl)cccc2OCC2CC2)c1C
 SMILES IDX 9 1 10 2 11 3 12 4 13 5 14 6 15 7 7 8 6 9 8 11 5 12 2 13
 SMILES IDX 3 14 21 15 4 16 1 17 22 18 16 20 17 21 18 22 19 23 20 24
 H PARENT 6 10 4 19

>  <TORSDO>  (1) 
F 5

$$$$
