/home/pchatterjee/Documents/git/vs_workflow/DiffDock/diffdock_run/pdbqt_scrubbed/Z3006954377.pdbqt
     RDKit          3D

 22 24  0  0  0  0  0  0  0  0999 V2000
    4.5461   43.2189   51.5024 C   0  0  0  0  0  0  0  0  0  0  0  0
    3.7396   43.3060   52.6057 C   0  0  0  0  0  0  0  0  0  0  0  0
    4.0679   44.4100   53.9014 Cl  0  0  0  0  0  0  0  0  0  0  0  0
    2.5861   42.5186   52.7385 C   0  0  0  0  0  3  0  0  0  0  0  0
    2.2242   41.6273   51.7571 C   0  0  0  0  0  3  0  0  0  0  0  0
    3.0172   41.5263   50.6461 C   0  0  0  0  0  3  0  0  0  0  0  0
    4.1387   42.2995   50.5301 C   0  0  0  0  0  0  0  0  0  0  0  0
    5.7635   43.9383   51.2564 C   0  0  0  0  0  0  0  0  0  0  0  0
    6.6718   43.7505   50.1954 N   0  0  0  0  0  0  0  0  0  0  0  0
    6.0915   44.8670   52.0749 O   0  0  0  0  0  0  0  0  0  0  0  0
    7.9303   44.4270   50.2532 C   0  0  0  0  0  0  0  0  0  0  0  0
    9.4875   45.9033   50.7150 C   0  0  0  0  0  0  0  0  0  0  0  0
   10.0352   44.9302   49.9660 N   0  0  0  0  0  0  0  0  0  0  0  0
    8.1479   45.6186   50.9195 C   0  0  0  0  0  0  0  0  0  0  0  0
    9.0996   44.0224   49.6758 N   0  0  0  0  0  0  0  0  0  0  0  0
   10.1990   47.0948   51.2418 C   0  0  0  0  0  1  0  0  0  0  0  0
    7.1495   46.4300   51.6972 C   0  0  0  0  0  1  0  0  0  0  0  0
    4.8889   42.1234   49.3511 O   0  0  0  0  0  0  0  0  0  0  0  0
    4.1230   42.1194   48.1358 C   0  0  0  0  0  2  0  0  0  0  0  0
    5.0656   41.8887   46.9550 C   0  0  0  0  0  3  0  0  0  0  0  0
    6.0642   40.8068   47.1727 C   0  0  0  0  0  2  0  0  0  0  0  0
    4.8814   40.4860   46.3409 C   0  0  0  0  0  2  0  0  0  0  0  0
  1  7  1  0
  1  2  2  0
  2  4  1  0
  3  2  1  0
  4  5  2  0
  6  5  1  0
  7  6  2  0
  8 10  2  0
  8  1  1  0
  9  8  1  0
 11  9  1  0
 12 13  2  0
 12 14  1  0
 13 15  1  0
 14 11  2  0
 15 11  1  0
 16 12  1  0
 17 14  1  0
 18 19  1  0
 18  7  1  0
 20 19  1  0
 21 22  1  0
 21 20  1  0
 22 20  1  0
M  RAD  8   4   2   5   2   6   2  16   2  17   2  19   3  20   2  21   3
M  RAD  1  22   3
M  END
>  <REMARK>  (1) 
 SMILES Cc1n[nH]c(NC(=O)c2c(Cl)cccc2OCC2CC2)c1C
 SMILES IDX 9 1 10 2 11 3 12 4 13 5 14 6 15 7 7 8 6 9 8 11 5 12 2 13
 SMILES IDX 3 14 21 15 4 16 1 17 22 18 16 20 17 21 18 22 19 23 20 24
 H PARENT 6 10 4 19

>  <TORSDO>  (1) 
F 5

$$$$
