/home/pchatterjee/Documents/git/vs_workflow/DiffDock/diffdock_run/pdbqt_scrubbed/Z3006954377.pdbqt
     RDKit          3D

 22 24  0  0  0  0  0  0  0  0999 V2000
    5.1148   42.5916   49.6160 C   0  0  0  0  0  0  0  0  0  0  0  0
    5.0213   41.5279   48.7588 C   0  0  0  0  0  0  0  0  0  0  0  0
    6.3492   41.0293   47.7618 Cl  0  0  0  0  0  0  0  0  0  0  0  0
    3.8478   40.7660   48.6559 C   0  0  0  0  0  3  0  0  0  0  0  0
    2.7445   41.0643   49.4190 C   0  0  0  0  0  3  0  0  0  0  0  0
    2.8186   42.1236   50.2827 C   0  0  0  0  0  3  0  0  0  0  0  0
    3.9685   42.8576   50.3723 C   0  0  0  0  0  0  0  0  0  0  0  0
    6.2373   43.4679   49.7951 C   0  0  0  0  0  0  0  0  0  0  0  0
    7.5293   43.1269   50.2427 N   0  0  0  0  0  0  0  0  0  0  0  0
    6.0826   44.7099   49.5238 O   0  0  0  0  0  0  0  0  0  0  0  0
    8.4763   44.1793   50.4440 C   0  0  0  0  0  0  0  0  0  0  0  0
    9.4682   45.9732   51.2288 C   0  0  0  0  0  0  0  0  0  0  0  0
   10.2370   45.4562   50.2541 N   0  0  0  0  0  0  0  0  0  0  0  0
    8.3377   45.1878   51.3794 C   0  0  0  0  0  0  0  0  0  0  0  0
    9.6468   44.3624   49.7652 N   0  0  0  0  0  0  0  0  0  0  0  0
    9.7761   47.1904   52.0205 C   0  0  0  0  0  1  0  0  0  0  0  0
    7.2073   45.3899   52.3494 C   0  0  0  0  0  1  0  0  0  0  0  0
    3.9466   43.9269   51.2888 O   0  0  0  0  0  0  0  0  0  0  0  0
    3.0448   43.7636   52.3950 C   0  0  0  0  0  2  0  0  0  0  0  0
    3.1023   45.0142   53.2718 C   0  0  0  0  0  3  0  0  0  0  0  0
    3.4677   46.2574   52.5398 C   0  0  0  0  0  2  0  0  0  0  0  0
    2.0367   46.0508   52.8612 C   0  0  0  0  0  2  0  0  0  0  0  0
  1  7  1  0
  1  2  2  0
  2  4  1  0
  3  2  1  0
  4  5  2  0
  6  5  1  0
  7  6  2  0
  8 10  2  0
  8  1  1  0
  9  8  1  0
 11  9  1  0
 12 13  2  0
 12 14  1  0
 13 15  1  0
 14 11  2  0
 15 11  1  0
 16 12  1  0
 17 14  1  0
 18 19  1  0
 18  7  1  0
 20 19  1  0
 21 22  1  0
 21 20  1  0
 22 20  1  0
M  RAD  8   4   2   5   2   6   2  16   2  17   2  19   3  20   2  21   3
M  RAD  1  22   3
M  END
>  <REMARK>  (1) 
 SMILES Cc1n[nH]c(NC(=O)c2c(Cl)cccc2OCC2CC2)c1C
 SMILES IDX 9 1 10 2 11 3 12 4 13 5 14 6 15 7 7 8 6 9 8 11 5 12 2 13
 SMILES IDX 3 14 21 15 4 16 1 17 22 18 16 20 17 21 18 22 19 23 20 24
 H PARENT 6 10 4 19

>  <TORSDO>  (1) 
F 5

$$$$
