/home/pchatterjee/Documents/git/vs_workflow/DiffDock/diffdock_run/pdbqt_scrubbed/Z3006954377.pdbqt
     RDKit          3D

 22 24  0  0  0  0  0  0  0  0999 V2000
    5.2373   42.5352   49.5060 C   0  0  0  0  0  0  0  0  0  0  0  0
    5.0686   41.4854   48.6430 C   0  0  0  0  0  0  0  0  0  0  0  0
    6.3233   40.9701   47.5633 Cl  0  0  0  0  0  0  0  0  0  0  0  0
    3.8734   40.7518   48.6006 C   0  0  0  0  0  3  0  0  0  0  0  0
    2.8243   41.0649   49.4312 C   0  0  0  0  0  3  0  0  0  0  0  0
    2.9739   42.1106   50.3016 C   0  0  0  0  0  3  0  0  0  0  0  0
    4.1441   42.8169   50.3319 C   0  0  0  0  0  0  0  0  0  0  0  0
    6.3887   43.3832   49.6288 C   0  0  0  0  0  0  0  0  0  0  0  0
    7.6030   43.0921   50.2820 N   0  0  0  0  0  0  0  0  0  0  0  0
    6.3423   44.5451   49.0925 O   0  0  0  0  0  0  0  0  0  0  0  0
    8.5091   44.1682   50.5386 C   0  0  0  0  0  0  0  0  0  0  0  0
    9.4835   45.8991   51.4726 C   0  0  0  0  0  0  0  0  0  0  0  0
   10.1689   45.5755   50.3619 N   0  0  0  0  0  0  0  0  0  0  0  0
    8.4191   45.0256   51.6194 C   0  0  0  0  0  0  0  0  0  0  0  0
    9.5881   44.5226   49.7807 N   0  0  0  0  0  0  0  0  0  0  0  0
    9.8101   47.0129   52.3979 C   0  0  0  0  0  1  0  0  0  0  0  0
    7.3908   45.0142   52.7159 C   0  0  0  0  0  1  0  0  0  0  0  0
    4.2014   43.8741   51.2608 O   0  0  0  0  0  0  0  0  0  0  0  0
    3.1409   43.8927   52.2297 C   0  0  0  0  0  2  0  0  0  0  0  0
    3.2342   45.1829   53.0439 C   0  0  0  0  0  3  0  0  0  0  0  0
    3.7168   46.3596   52.2710 C   0  0  0  0  0  2  0  0  0  0  0  0
    2.2607   46.2600   52.5234 C   0  0  0  0  0  2  0  0  0  0  0  0
  1  7  1  0
  1  2  2  0
  2  4  1  0
  3  2  1  0
  4  5  2  0
  6  5  1  0
  7  6  2  0
  8 10  2  0
  8  1  1  0
  9  8  1  0
 11  9  1  0
 12 13  2  0
 12 14  1  0
 13 15  1  0
 14 11  2  0
 15 11  1  0
 16 12  1  0
 17 14  1  0
 18 19  1  0
 18  7  1  0
 20 19  1  0
 21 22  1  0
 21 20  1  0
 22 20  1  0
M  RAD  8   4   2   5   2   6   2  16   2  17   2  19   3  20   2  21   3
M  RAD  1  22   3
M  END
>  <REMARK>  (1) 
 SMILES Cc1n[nH]c(NC(=O)c2c(Cl)cccc2OCC2CC2)c1C
 SMILES IDX 9 1 10 2 11 3 12 4 13 5 14 6 15 7 7 8 6 9 8 11 5 12 2 13
 SMILES IDX 3 14 21 15 4 16 1 17 22 18 16 20 17 21 18 22 19 23 20 24
 H PARENT 6 10 4 19

>  <TORSDO>  (1) 
F 5

$$$$
