/home/pchatterjee/Documents/git/vs_workflow/DiffDock/diffdock_run/pdbqt_scrubbed/Z3006954377.pdbqt
     RDKit          3D

 22 24  0  0  0  0  0  0  0  0999 V2000
    4.4472   43.1626   51.5454 C   0  0  0  0  0  0  0  0  0  0  0  0
    3.5871   43.3074   52.6011 C   0  0  0  0  0  0  0  0  0  0  0  0
    3.9219   44.3803   53.9211 Cl  0  0  0  0  0  0  0  0  0  0  0  0
    2.3719   42.6090   52.6620 C   0  0  0  0  0  3  0  0  0  0  0  0
    2.0014   41.7499   51.6553 C   0  0  0  0  0  3  0  0  0  0  0  0
    2.8474   41.5922   50.5910 C   0  0  0  0  0  3  0  0  0  0  0  0
    4.0287   42.2790   50.5450 C   0  0  0  0  0  0  0  0  0  0  0  0
    5.7273   43.7887   51.3747 C   0  0  0  0  0  0  0  0  0  0  0  0
    6.5317   43.7958   50.2175 N   0  0  0  0  0  0  0  0  0  0  0  0
    6.2250   44.4254   52.3681 O   0  0  0  0  0  0  0  0  0  0  0  0
    7.8534   44.3328   50.3144 C   0  0  0  0  0  0  0  0  0  0  0  0
    9.5480   45.6265   50.8362 C   0  0  0  0  0  0  0  0  0  0  0  0
   10.0061   44.6123   50.0814 N   0  0  0  0  0  0  0  0  0  0  0  0
    8.1813   45.4836   51.0068 C   0  0  0  0  0  0  0  0  0  0  0  0
    8.9860   43.8145   49.7549 N   0  0  0  0  0  0  0  0  0  0  0  0
   10.3702   46.7266   51.3996 C   0  0  0  0  0  1  0  0  0  0  0  0
    7.2574   46.3848   51.7775 C   0  0  0  0  0  1  0  0  0  0  0  0
    4.8304   42.0498   49.4099 O   0  0  0  0  0  0  0  0  0  0  0  0
    4.1303   42.0649   48.1556 C   0  0  0  0  0  2  0  0  0  0  0  0
    5.1231   41.7810   47.0288 C   0  0  0  0  0  3  0  0  0  0  0  0
    6.0304   40.6304   47.2893 C   0  0  0  0  0  2  0  0  0  0  0  0
    4.8796   40.4005   46.3856 C   0  0  0  0  0  2  0  0  0  0  0  0
  1  7  1  0
  1  2  2  0
  2  4  1  0
  3  2  1  0
  4  5  2  0
  6  5  1  0
  7  6  2  0
  8 10  2  0
  8  1  1  0
  9  8  1  0
 11  9  1  0
 12 13  2  0
 12 14  1  0
 13 15  1  0
 14 11  2  0
 15 11  1  0
 16 12  1  0
 17 14  1  0
 18 19  1  0
 18  7  1  0
 20 19  1  0
 21 22  1  0
 21 20  1  0
 22 20  1  0
M  RAD  8   4   2   5   2   6   2  16   2  17   2  19   3  20   2  21   3
M  RAD  1  22   3
M  END
>  <REMARK>  (1) 
 SMILES Cc1n[nH]c(NC(=O)c2c(Cl)cccc2OCC2CC2)c1C
 SMILES IDX 9 1 10 2 11 3 12 4 13 5 14 6 15 7 7 8 6 9 8 11 5 12 2 13
 SMILES IDX 3 14 21 15 4 16 1 17 22 18 16 20 17 21 18 22 19 23 20 24
 H PARENT 6 10 4 19

>  <TORSDO>  (1) 
F 5

$$$$
