/home/pchatterjee/Documents/git/vs_workflow/DiffDock/diffdock_run/pdbqt_scrubbed/Z3006954377.pdbqt
     RDKit          3D

 22 24  0  0  0  0  0  0  0  0999 V2000
    4.1468   44.5289   51.4640 C   0  0  0  0  0  0  0  0  0  0  0  0
    3.2192   45.3347   52.0686 C   0  0  0  0  0  0  0  0  0  0  0  0
    3.6526   46.8377   52.8161 Cl  0  0  0  0  0  0  0  0  0  0  0  0
    1.8577   44.9973   52.0972 C   0  0  0  0  0  3  0  0  0  0  0  0
    1.4064   43.8377   51.5137 C   0  0  0  0  0  3  0  0  0  0  0  0
    2.3183   43.0194   50.9036 C   0  0  0  0  0  3  0  0  0  0  0  0
    3.6421   43.3606   50.8837 C   0  0  0  0  0  0  0  0  0  0  0  0
    5.5648   44.7385   51.3911 C   0  0  0  0  0  0  0  0  0  0  0  0
    6.4448   44.3083   50.3780 N   0  0  0  0  0  0  0  0  0  0  0  0
    6.1280   45.3902   52.3387 O   0  0  0  0  0  0  0  0  0  0  0  0
    7.8274   44.6562   50.4888 C   0  0  0  0  0  0  0  0  0  0  0  0
    9.6947   45.6084   51.1400 C   0  0  0  0  0  0  0  0  0  0  0  0
    9.9859   44.7250   50.1689 N   0  0  0  0  0  0  0  0  0  0  0  0
    8.3297   45.5936   51.3721 C   0  0  0  0  0  0  0  0  0  0  0  0
    8.8589   44.1359   49.7610 N   0  0  0  0  0  0  0  0  0  0  0  0
   10.6746   46.4655   51.8532 C   0  0  0  0  0  1  0  0  0  0  0  0
    7.5631   46.4182   52.3682 C   0  0  0  0  0  1  0  0  0  0  0  0
    4.5017   42.4546   50.2324 O   0  0  0  0  0  0  0  0  0  0  0  0
    3.8458   41.4688   49.4190 C   0  0  0  0  0  2  0  0  0  0  0  0
    4.9034   40.6628   48.6655 C   0  0  0  0  0  3  0  0  0  0  0  0
    4.6259   40.4983   47.2126 C   0  0  0  0  0  2  0  0  0  0  0  0
    5.6266   41.5175   47.6047 C   0  0  0  0  0  2  0  0  0  0  0  0
  1  7  1  0
  1  2  2  0
  2  4  1  0
  3  2  1  0
  4  5  2  0
  6  5  1  0
  7  6  2  0
  8 10  2  0
  8  1  1  0
  9  8  1  0
 11  9  1  0
 12 13  2  0
 12 14  1  0
 13 15  1  0
 14 11  2  0
 15 11  1  0
 16 12  1  0
 17 14  1  0
 18 19  1  0
 18  7  1  0
 20 19  1  0
 21 22  1  0
 21 20  1  0
 22 20  1  0
M  RAD  8   4   2   5   2   6   2  16   2  17   2  19   3  20   2  21   3
M  RAD  1  22   3
M  END
>  <REMARK>  (1) 
 SMILES Cc1n[nH]c(NC(=O)c2c(Cl)cccc2OCC2CC2)c1C
 SMILES IDX 9 1 10 2 11 3 12 4 13 5 14 6 15 7 7 8 6 9 8 11 5 12 2 13
 SMILES IDX 3 14 21 15 4 16 1 17 22 18 16 20 17 21 18 22 19 23 20 24
 H PARENT 6 10 4 19

>  <TORSDO>  (1) 
F 5

$$$$
