/home/pchatterjee/Documents/git/vs_workflow/DiffDock/diffdock_run/pdbqt_scrubbed/Z3006954377.pdbqt
     RDKit          3D

 22 24  0  0  0  0  0  0  0  0999 V2000
    4.1116   44.6230   51.3154 C   0  0  0  0  0  0  0  0  0  0  0  0
    3.1595   45.4013   51.9178 C   0  0  0  0  0  0  0  0  0  0  0  0
    3.5520   46.9015   52.6931 Cl  0  0  0  0  0  0  0  0  0  0  0  0
    1.8047   45.0367   51.9215 C   0  0  0  0  0  3  0  0  0  0  0  0
    1.3851   43.8772   51.3149 C   0  0  0  0  0  3  0  0  0  0  0  0
    2.3218   43.0860   50.7065 C   0  0  0  0  0  3  0  0  0  0  0  0
    3.6387   43.4535   50.7110 C   0  0  0  0  0  0  0  0  0  0  0  0
    5.5260   44.8615   51.2663 C   0  0  0  0  0  0  0  0  0  0  0  0
    6.4138   44.5448   50.2187 N   0  0  0  0  0  0  0  0  0  0  0  0
    6.0776   45.4285   52.2733 O   0  0  0  0  0  0  0  0  0  0  0  0
    7.7989   44.8582   50.3863 C   0  0  0  0  0  0  0  0  0  0  0  0
    9.6622   45.7537   51.1239 C   0  0  0  0  0  0  0  0  0  0  0  0
    9.9687   44.8835   50.1456 N   0  0  0  0  0  0  0  0  0  0  0  0
    8.2896   45.7658   51.3065 C   0  0  0  0  0  0  0  0  0  0  0  0
    8.8442   44.3290   49.6853 N   0  0  0  0  0  0  0  0  0  0  0  0
   10.6344   46.5734   51.8895 C   0  0  0  0  0  1  0  0  0  0  0  0
    7.5060   46.5877   52.2915 C   0  0  0  0  0  1  0  0  0  0  0  0
    4.5255   42.5744   50.0594 O   0  0  0  0  0  0  0  0  0  0  0  0
    3.8994   41.5160   49.3169 C   0  0  0  0  0  2  0  0  0  0  0  0
    4.9716   40.7515   48.5409 C   0  0  0  0  0  3  0  0  0  0  0  0
    4.7628   40.7326   47.0675 C   0  0  0  0  0  2  0  0  0  0  0  0
    5.7692   41.6790   47.6016 C   0  0  0  0  0  2  0  0  0  0  0  0
  1  7  1  0
  1  2  2  0
  2  4  1  0
  3  2  1  0
  4  5  2  0
  6  5  1  0
  7  6  2  0
  8 10  2  0
  8  1  1  0
  9  8  1  0
 11  9  1  0
 12 13  2  0
 12 14  1  0
 13 15  1  0
 14 11  2  0
 15 11  1  0
 16 12  1  0
 17 14  1  0
 18 19  1  0
 18  7  1  0
 20 19  1  0
 21 22  1  0
 21 20  1  0
 22 20  1  0
M  RAD  8   4   2   5   2   6   2  16   2  17   2  19   3  20   2  21   3
M  RAD  1  22   3
M  END
>  <REMARK>  (1) 
 SMILES Cc1n[nH]c(NC(=O)c2c(Cl)cccc2OCC2CC2)c1C
 SMILES IDX 9 1 10 2 11 3 12 4 13 5 14 6 15 7 7 8 6 9 8 11 5 12 2 13
 SMILES IDX 3 14 21 15 4 16 1 17 22 18 16 20 17 21 18 22 19 23 20 24
 H PARENT 6 10 4 19

>  <TORSDO>  (1) 
F 5

$$$$
