/home/pchatterjee/Documents/git/vs_workflow/DiffDock/diffdock_run/pdbqt_scrubbed/Z1532981033.pdbqt
     RDKit          3D

 24 23  0  0  1  0  0  0  0  0999 V2000
    8.0497   44.9398   50.8182 C   0  0  0  0  0  0  0  0  0  0  0  0
    9.1496   44.8217   50.0392 N   0  0  0  0  0  0  0  0  0  0  0  0
    9.1633   44.0596   48.9180 C   0  0  0  0  0  3  0  0  0  0  0  0
    8.0314   43.3944   48.5700 C   0  0  0  0  0  3  0  0  0  0  0  0
    6.8845   43.4984   49.3542 C   0  0  0  0  0  0  0  0  0  0  0  0
    6.9343   44.2787   50.4670 N   0  0  0  0  0  0  0  0  0  0  0  0
    8.1424   45.7651   51.9732 N   0  0  0  0  0  0  0  0  0  0  0  0
    7.8688   47.1845   52.1161 C   0  0  0  0  0  3  0  0  0  0  0  0
    9.1909   47.6224   52.7595 C   0  0  0  0  0  2  0  0  0  0  0  0
    9.5130   46.4775   53.6655 C   0  0  0  0  0  2  0  0  0  0  0  0
    8.5506   45.3361   53.3156 C   0  0  0  0  0  2  0  0  0  0  0  0
    6.8158   47.3497   53.2183 C   0  0  0  0  0  2  0  0  0  0  0  0
    7.0113   48.5384   54.0000 N   0  0  0  0  0  2  0  0  0  0  0  0
    6.2051   44.1814   50.9731 *   0  0  0  0  0  0  0  0  0  0  0  0
    6.2051   44.1814   50.9731 O   0  0  0  0  0 15  0  0  0  0  0  0
    6.2051   44.1814   50.9731 *   0  0  0  0  0  0  0  0  0  0  0  0
    5.7203   42.8270   49.0149 O   0  0  0  0  0  0  0  0  0  0  0  0
    4.5371   42.9038   49.7795 C   0  0  0  0  0  2  0  0  0  0  0  0
    3.6497   41.7472   49.5391 C   0  0  0  0  0  0  0  0  0  0  0  0
    3.6896   41.1771   48.2750 C   0  0  0  0  0  3  0  0  0  0  0  0
    2.8017   41.2187   50.4914 C   0  0  0  0  0  3  0  0  0  0  0  0
    2.9023   40.1066   47.9706 C   0  0  0  0  0  3  0  0  0  0  0  0
    2.0212   40.1352   50.1441 C   0  0  0  0  0  3  0  0  0  0  0  0
    2.0459   39.5611   48.9085 C   0  0  0  0  0  3  0  0  0  0  0  0
  1  2  2  0
  2  3  1  0
  4  3  2  0
  5  4  1  0
  6  1  1  0
  6  5  2  0
  7  8  1  0
  7  1  1  0
  8 12  1  0
  9  8  1  0
 10 11  1  0
 10  9  1  0
 11  7  1  0
 13 12  1  0
 17  5  1  0
 18 17  1  0
 19 20  2  0
 19 18  1  0
 21 19  1  0
 22 20  1  0
 23 24  1  0
 23 21  2  0
 24 22  2  0
M  RAD  8   3   2   4   2   8   2   9   3  10   3  11   3  12   3  13   2
M  RAD  6  18   3  20   2  21   2  22   2  23   2  24   2
V   14 *
V   16 *
M  END
>  <REMARK>  (1) 
 SMILES O=C1CC2CCC(CN1)N2c1nccc(OCc2ccccc2)n1
 SMILES IDX 11 1 12 2 13 3 14 4 15 5 24 6 10 7 7 8 6 9 5 10 4 11 8 12
 SMILES IDX 9 13 2 14 1 15 3 18 16 20 17 21 18 22 19 23 23 24 20 25
 SMILES IDX 22 26 21 27
 H PARENT 9 16
 Flexibility Score:   44.900

>  <TORSDO>  (1) 
F 4

$$$$
