/home/pchatterjee/Documents/git/vs_workflow/DiffDock/diffdock_run/pdbqt_scrubbed/Z1532981033.pdbqt
     RDKit          3D

 24 23  0  0  1  0  0  0  0  0999 V2000
    8.1555   45.0045   50.7895 C   0  0  0  0  0  0  0  0  0  0  0  0
    9.2534   44.8809   50.0085 N   0  0  0  0  0  0  0  0  0  0  0  0
    9.2680   44.1008   48.8997 C   0  0  0  0  0  3  0  0  0  0  0  0
    8.1392   43.4227   48.5667 C   0  0  0  0  0  3  0  0  0  0  0  0
    6.9945   43.5321   49.3534 C   0  0  0  0  0  0  0  0  0  0  0  0
    7.0432   44.3306   50.4532 N   0  0  0  0  0  0  0  0  0  0  0  0
    8.2471   45.8491   51.9306 N   0  0  0  0  0  0  0  0  0  0  0  0
    7.9648   47.2687   52.0515 C   0  0  0  0  0  3  0  0  0  0  0  0
    9.2863   47.7256   52.6828 C   0  0  0  0  0  2  0  0  0  0  0  0
    9.6191   46.5976   53.6061 C   0  0  0  0  0  2  0  0  0  0  0  0
    8.6629   45.4445   53.2782 C   0  0  0  0  0  2  0  0  0  0  0  0
    6.9147   47.4450   53.1548 C   0  0  0  0  0  2  0  0  0  0  0  0
    7.1053   48.6476   53.9163 N   0  0  0  0  0  2  0  0  0  0  0  0
    6.3165   44.2368   50.9635 *   0  0  0  0  0  0  0  0  0  0  0  0
    6.3165   44.2368   50.9635 O   0  0  0  0  0 15  0  0  0  0  0  0
    6.3165   44.2368   50.9635 *   0  0  0  0  0  0  0  0  0  0  0  0
    5.8334   42.8478   49.0294 O   0  0  0  0  0  0  0  0  0  0  0  0
    4.6525   42.9294   49.7969 C   0  0  0  0  0  2  0  0  0  0  0  0
    3.7717   41.7634   49.5786 C   0  0  0  0  0  0  0  0  0  0  0  0
    3.8108   41.1731   48.3238 C   0  0  0  0  0  3  0  0  0  0  0  0
    2.9306   41.2450   50.5425 C   0  0  0  0  0  3  0  0  0  0  0  0
    3.0294   40.0927   48.0397 C   0  0  0  0  0  3  0  0  0  0  0  0
    2.1559   40.1510   50.2157 C   0  0  0  0  0  3  0  0  0  0  0  0
    2.1799   39.5571   48.9894 C   0  0  0  0  0  3  0  0  0  0  0  0
  1  2  2  0
  2  3  1  0
  4  3  2  0
  5  4  1  0
  6  1  1  0
  6  5  2  0
  7  8  1  0
  7  1  1  0
  8 12  1  0
  9  8  1  0
 10 11  1  0
 10  9  1  0
 11  7  1  0
 13 12  1  0
 17  5  1  0
 18 17  1  0
 19 20  2  0
 19 18  1  0
 21 19  1  0
 22 20  1  0
 23 24  1  0
 23 21  2  0
 24 22  2  0
M  RAD  8   3   2   4   2   8   2   9   3  10   3  11   3  12   3  13   2
M  RAD  6  18   3  20   2  21   2  22   2  23   2  24   2
V   14 *
V   16 *
M  END
>  <REMARK>  (1) 
 SMILES O=C1CC2CCC(CN1)N2c1nccc(OCc2ccccc2)n1
 SMILES IDX 11 1 12 2 13 3 14 4 15 5 24 6 10 7 7 8 6 9 5 10 4 11 8 12
 SMILES IDX 9 13 2 14 1 15 3 18 16 20 17 21 18 22 19 23 23 24 20 25
 SMILES IDX 22 26 21 27
 H PARENT 9 16
 Flexibility Score:   44.900

>  <TORSDO>  (1) 
F 4

$$$$
