/home/pchatterjee/Documents/git/vs_workflow/DiffDock/diffdock_run/pdbqt_scrubbed/Z1532981033.pdbqt
     RDKit          3D

 24 23  0  0  1  0  0  0  0  0999 V2000
    8.0720   45.0712   50.8780 C   0  0  0  0  0  0  0  0  0  0  0  0
    9.1873   44.9983   50.1155 N   0  0  0  0  0  0  0  0  0  0  0  0
    9.2384   44.2630   48.9776 C   0  0  0  0  0  3  0  0  0  0  0  0
    8.1293   43.5785   48.5952 C   0  0  0  0  0  3  0  0  0  0  0  0
    6.9674   43.6361   49.3620 C   0  0  0  0  0  0  0  0  0  0  0  0
    6.9794   44.3913   50.4929 N   0  0  0  0  0  0  0  0  0  0  0  0
    8.1251   45.8716   52.0530 N   0  0  0  0  0  0  0  0  0  0  0  0
    7.8139   47.2801   52.2235 C   0  0  0  0  0  3  0  0  0  0  0  0
    9.1138   47.7353   52.8992 C   0  0  0  0  0  2  0  0  0  0  0  0
    9.4494   46.5779   53.7842 C   0  0  0  0  0  2  0  0  0  0  0  0
    8.5216   45.4216   53.3920 C   0  0  0  0  0  2  0  0  0  0  0  0
    6.7391   47.3938   53.3111 C   0  0  0  0  0  2  0  0  0  0  0  0
    6.8919   48.5685   54.1228 N   0  0  0  0  0  2  0  0  0  0  0  0
    6.2446   44.2644   50.9841 *   0  0  0  0  0  0  0  0  0  0  0  0
    6.2446   44.2644   50.9841 O   0  0  0  0  0 15  0  0  0  0  0  0
    6.2446   44.2644   50.9841 *   0  0  0  0  0  0  0  0  0  0  0  0
    5.8260   42.9444   48.9876 O   0  0  0  0  0  0  0  0  0  0  0  0
    4.6288   42.9744   49.7334 C   0  0  0  0  0  2  0  0  0  0  0  0
    3.7746   41.8023   49.4516 C   0  0  0  0  0  0  0  0  0  0  0  0
    3.8495   41.2628   48.1757 C   0  0  0  0  0  3  0  0  0  0  0  0
    2.9244   41.2312   50.3770 C   0  0  0  0  0  3  0  0  0  0  0  0
    3.0943   40.1806   47.8336 C   0  0  0  0  0  3  0  0  0  0  0  0
    2.1770   40.1372   49.9918 C   0  0  0  0  0  3  0  0  0  0  0  0
    2.2364   39.5927   48.7440 C   0  0  0  0  0  3  0  0  0  0  0  0
  1  2  2  0
  2  3  1  0
  4  3  2  0
  5  4  1  0
  6  1  1  0
  6  5  2  0
  7  8  1  0
  7  1  1  0
  8 12  1  0
  9  8  1  0
 10 11  1  0
 10  9  1  0
 11  7  1  0
 13 12  1  0
 17  5  1  0
 18 17  1  0
 19 20  2  0
 19 18  1  0
 21 19  1  0
 22 20  1  0
 23 24  1  0
 23 21  2  0
 24 22  2  0
M  RAD  8   3   2   4   2   8   2   9   3  10   3  11   3  12   3  13   2
M  RAD  6  18   3  20   2  21   2  22   2  23   2  24   2
V   14 *
V   16 *
M  END
>  <REMARK>  (1) 
 SMILES O=C1CC2CCC(CN1)N2c1nccc(OCc2ccccc2)n1
 SMILES IDX 11 1 12 2 13 3 14 4 15 5 24 6 10 7 7 8 6 9 5 10 4 11 8 12
 SMILES IDX 9 13 2 14 1 15 3 18 16 20 17 21 18 22 19 23 23 24 20 25
 SMILES IDX 22 26 21 27
 H PARENT 9 16
 Flexibility Score:   44.900

>  <TORSDO>  (1) 
F 4

$$$$
