/home/pchatterjee/Documents/git/vs_workflow/DiffDock/diffdock_run/pdbqt_scrubbed/Z1532981033.pdbqt
     RDKit          3D

 24 23  0  0  1  0  0  0  0  0999 V2000
    8.1757   45.3046   51.2061 C   0  0  0  0  0  0  0  0  0  0  0  0
    9.3429   45.2635   50.5232 N   0  0  0  0  0  0  0  0  0  0  0  0
    9.4956   44.5261   49.3958 C   0  0  0  0  0  3  0  0  0  0  0  0
    8.4372   43.8062   48.9413 C   0  0  0  0  0  3  0  0  0  0  0  0
    7.2236   43.8305   49.6253 C   0  0  0  0  0  0  0  0  0  0  0  0
    7.1338   44.5898   50.7500 N   0  0  0  0  0  0  0  0  0  0  0  0
    8.1224   46.1104   52.3773 N   0  0  0  0  0  0  0  0  0  0  0  0
    7.7572   47.5091   52.5179 C   0  0  0  0  0  3  0  0  0  0  0  0
    8.9924   48.0068   53.2795 C   0  0  0  0  0  2  0  0  0  0  0  0
    9.3010   46.8634   54.1922 C   0  0  0  0  0  2  0  0  0  0  0  0
    8.4386   45.6777   53.7432 C   0  0  0  0  0  2  0  0  0  0  0  0
    6.6064   47.5933   53.5276 C   0  0  0  0  0  2  0  0  0  0  0  0
    6.6664   48.7751   54.3414 N   0  0  0  0  0  2  0  0  0  0  0  0
    6.3709   44.4419   51.1898 *   0  0  0  0  0  0  0  0  0  0  0  0
    6.3709   44.4419   51.1898 O   0  0  0  0  0 15  0  0  0  0  0  0
    6.3709   44.4419   51.1898 *   0  0  0  0  0  0  0  0  0  0  0  0
    6.1327   43.1025   49.1767 O   0  0  0  0  0  0  0  0  0  0  0  0
    4.8863   43.0980   49.8375 C   0  0  0  0  0  2  0  0  0  0  0  0
    4.0900   41.8990   49.5038 C   0  0  0  0  0  0  0  0  0  0  0  0
    4.2699   41.3576   48.2393 C   0  0  0  0  0  3  0  0  0  0  0  0
    3.1955   41.3052   50.3713 C   0  0  0  0  0  3  0  0  0  0  0  0
    3.5739   40.2513   47.8517 C   0  0  0  0  0  3  0  0  0  0  0  0
    2.5106   40.1872   49.9414 C   0  0  0  0  0  3  0  0  0  0  0  0
    2.6731   39.6404   48.7038 C   0  0  0  0  0  3  0  0  0  0  0  0
  1  2  2  0
  2  3  1  0
  4  3  2  0
  5  4  1  0
  6  1  1  0
  6  5  2  0
  7  8  1  0
  7  1  1  0
  8 12  1  0
  9  8  1  0
 10 11  1  0
 10  9  1  0
 11  7  1  0
 13 12  1  0
 17  5  1  0
 18 17  1  0
 19 20  2  0
 19 18  1  0
 21 19  1  0
 22 20  1  0
 23 24  1  0
 23 21  2  0
 24 22  2  0
M  RAD  8   3   2   4   2   8   2   9   3  10   3  11   3  12   3  13   2
M  RAD  6  18   3  20   2  21   2  22   2  23   2  24   2
V   14 *
V   16 *
M  END
>  <REMARK>  (1) 
 SMILES O=C1CC2CCC(CN1)N2c1nccc(OCc2ccccc2)n1
 SMILES IDX 11 1 12 2 13 3 14 4 15 5 24 6 10 7 7 8 6 9 5 10 4 11 8 12
 SMILES IDX 9 13 2 14 1 15 3 18 16 20 17 21 18 22 19 23 23 24 20 25
 SMILES IDX 22 26 21 27
 H PARENT 9 16
 Flexibility Score:   44.900

>  <TORSDO>  (1) 
F 4

$$$$
