/home/pchatterjee/Documents/git/vs_workflow/DiffDock/diffdock_run/pdbqt_scrubbed/Z1532981033.pdbqt
     RDKit          3D

 24 23  0  0  1  0  0  0  0  0999 V2000
    8.0182   44.9096   50.8491 C   0  0  0  0  0  0  0  0  0  0  0  0
    9.1208   44.7974   50.0732 N   0  0  0  0  0  0  0  0  0  0  0  0
    9.1600   43.9899   48.9847 C   0  0  0  0  0  3  0  0  0  0  0  0
    8.0515   43.2719   48.6675 C   0  0  0  0  0  3  0  0  0  0  0  0
    6.9025   43.3687   49.4495 C   0  0  0  0  0  0  0  0  0  0  0  0
    6.9261   44.1961   50.5285 N   0  0  0  0  0  0  0  0  0  0  0  0
    8.0832   45.7853   51.9685 N   0  0  0  0  0  0  0  0  0  0  0  0
    7.7605   47.1990   52.0527 C   0  0  0  0  0  3  0  0  0  0  0  0
    9.0672   47.7091   52.6740 C   0  0  0  0  0  2  0  0  0  0  0  0
    9.4298   46.6150   53.6263 C   0  0  0  0  0  2  0  0  0  0  0  0
    8.5074   45.4272   53.3266 C   0  0  0  0  0  2  0  0  0  0  0  0
    6.7035   47.3735   53.1495 C   0  0  0  0  0  2  0  0  0  0  0  0
    6.8582   48.5999   53.8804 N   0  0  0  0  0  2  0  0  0  0  0  0
    6.2012   44.0947   51.0400 *   0  0  0  0  0  0  0  0  0  0  0  0
    6.2012   44.0947   51.0400 O   0  0  0  0  0 15  0  0  0  0  0  0
    6.2012   44.0947   51.0400 *   0  0  0  0  0  0  0  0  0  0  0  0
    5.7620   42.6437   49.1413 O   0  0  0  0  0  0  0  0  0  0  0  0
    4.5775   42.7112   49.9048 C   0  0  0  0  0  2  0  0  0  0  0  0
    3.7307   41.5155   49.7151 C   0  0  0  0  0  0  0  0  0  0  0  0
    3.7892   40.8947   48.4758 C   0  0  0  0  0  3  0  0  0  0  0  0
    2.9025   40.9982   50.6907 C   0  0  0  0  0  3  0  0  0  0  0  0
    3.0394   39.7857   48.2183 C   0  0  0  0  0  3  0  0  0  0  0  0
    2.1599   39.8746   50.3908 C   0  0  0  0  0  3  0  0  0  0  0  0
    2.2033   39.2506   49.1802 C   0  0  0  0  0  3  0  0  0  0  0  0
  1  2  2  0
  2  3  1  0
  4  3  2  0
  5  4  1  0
  6  1  1  0
  6  5  2  0
  7  8  1  0
  7  1  1  0
  8 12  1  0
  9  8  1  0
 10 11  1  0
 10  9  1  0
 11  7  1  0
 13 12  1  0
 17  5  1  0
 18 17  1  0
 19 20  2  0
 19 18  1  0
 21 19  1  0
 22 20  1  0
 23 24  1  0
 23 21  2  0
 24 22  2  0
M  RAD  8   3   2   4   2   8   2   9   3  10   3  11   3  12   3  13   2
M  RAD  6  18   3  20   2  21   2  22   2  23   2  24   2
V   14 *
V   16 *
M  END
>  <REMARK>  (1) 
 SMILES O=C1CC2CCC(CN1)N2c1nccc(OCc2ccccc2)n1
 SMILES IDX 11 1 12 2 13 3 14 4 15 5 24 6 10 7 7 8 6 9 5 10 4 11 8 12
 SMILES IDX 9 13 2 14 1 15 3 18 16 20 17 21 18 22 19 23 23 24 20 25
 SMILES IDX 22 26 21 27
 H PARENT 9 16
 Flexibility Score:   44.900

>  <TORSDO>  (1) 
F 4

$$$$
