/home/pchatterjee/Documents/git/vs_workflow/DiffDock/diffdock_run/pdbqt_scrubbed/Z1532981033.pdbqt
     RDKit          3D

 24 23  0  0  1  0  0  0  0  0999 V2000
    8.0784   45.0737   51.0878 C   0  0  0  0  0  0  0  0  0  0  0  0
    9.2247   45.0032   50.3726 N   0  0  0  0  0  0  0  0  0  0  0  0
    9.3375   44.2354   49.2609 C   0  0  0  0  0  3  0  0  0  0  0  0
    8.2596   43.5147   48.8562 C   0  0  0  0  0  3  0  0  0  0  0  0
    7.0668   43.5690   49.5742 C   0  0  0  0  0  0  0  0  0  0  0  0
    7.0170   44.3579   50.6808 N   0  0  0  0  0  0  0  0  0  0  0  0
    8.0669   45.9099   52.2386 N   0  0  0  0  0  0  0  0  0  0  0  0
    7.7189   47.3154   52.3532 C   0  0  0  0  0  3  0  0  0  0  0  0
    8.9806   47.8201   53.0654 C   0  0  0  0  0  2  0  0  0  0  0  0
    9.3049   46.6976   53.9983 C   0  0  0  0  0  2  0  0  0  0  0  0
    8.4188   45.5094   53.6056 C   0  0  0  0  0  2  0  0  0  0  0  0
    6.5990   47.4373   53.3932 C   0  0  0  0  0  2  0  0  0  0  0  0
    6.6938   48.6390   54.1738 N   0  0  0  0  0  2  0  0  0  0  0  0
    6.2659   44.2291   51.1463 *   0  0  0  0  0  0  0  0  0  0  0  0
    6.2659   44.2291   51.1463 O   0  0  0  0  0 15  0  0  0  0  0  0
    6.2659   44.2291   51.1463 *   0  0  0  0  0  0  0  0  0  0  0  0
    5.9565   42.8406   49.1765 O   0  0  0  0  0  0  0  0  0  0  0  0
    4.7299   42.8659   49.8730 C   0  0  0  0  0  2  0  0  0  0  0  0
    3.9130   41.6667   49.5939 C   0  0  0  0  0  0  0  0  0  0  0  0
    4.0509   41.0911   48.3393 C   0  0  0  0  0  3  0  0  0  0  0  0
    3.0387   41.1046   50.5022 C   0  0  0  0  0  3  0  0  0  0  0  0
    3.3335   39.9823   48.0011 C   0  0  0  0  0  3  0  0  0  0  0  0
    2.3311   39.9828   50.1216 C   0  0  0  0  0  3  0  0  0  0  0  0
    2.4523   39.4027   48.8946 C   0  0  0  0  0  3  0  0  0  0  0  0
  1  2  2  0
  2  3  1  0
  4  3  2  0
  5  4  1  0
  6  1  1  0
  6  5  2  0
  7  8  1  0
  7  1  1  0
  8 12  1  0
  9  8  1  0
 10 11  1  0
 10  9  1  0
 11  7  1  0
 13 12  1  0
 17  5  1  0
 18 17  1  0
 19 20  2  0
 19 18  1  0
 21 19  1  0
 22 20  1  0
 23 24  1  0
 23 21  2  0
 24 22  2  0
M  RAD  8   3   2   4   2   8   2   9   3  10   3  11   3  12   3  13   2
M  RAD  6  18   3  20   2  21   2  22   2  23   2  24   2
V   14 *
V   16 *
M  END
>  <REMARK>  (1) 
 SMILES O=C1CC2CCC(CN1)N2c1nccc(OCc2ccccc2)n1
 SMILES IDX 11 1 12 2 13 3 14 4 15 5 24 6 10 7 7 8 6 9 5 10 4 11 8 12
 SMILES IDX 9 13 2 14 1 15 3 18 16 20 17 21 18 22 19 23 23 24 20 25
 SMILES IDX 22 26 21 27
 H PARENT 9 16
 Flexibility Score:   44.900

>  <TORSDO>  (1) 
F 4

$$$$
