/home/pchatterjee/Documents/git/vs_workflow/DiffDock/diffdock_run/pdbqt_scrubbed/Z1532981033.pdbqt
     RDKit          3D

 24 23  0  0  1  0  0  0  0  0999 V2000
    8.0823   45.0756   51.0048 C   0  0  0  0  0  0  0  0  0  0  0  0
    9.2154   45.0063   50.2686 N   0  0  0  0  0  0  0  0  0  0  0  0
    9.3017   44.2554   49.1431 C   0  0  0  0  0  3  0  0  0  0  0  0
    8.2104   43.5510   48.7460 C   0  0  0  0  0  3  0  0  0  0  0  0
    7.0308   43.6044   49.4856 C   0  0  0  0  0  0  0  0  0  0  0  0
    7.0075   44.3758   50.6052 N   0  0  0  0  0  0  0  0  0  0  0  0
    8.0985   45.8934   52.1687 N   0  0  0  0  0  0  0  0  0  0  0  0
    7.7656   47.2999   52.3116 C   0  0  0  0  0  3  0  0  0  0  0  0
    9.0440   47.7818   53.0095 C   0  0  0  0  0  2  0  0  0  0  0  0
    9.3742   46.6418   53.9188 C   0  0  0  0  0  2  0  0  0  0  0  0
    8.4705   45.4679   53.5228 C   0  0  0  0  0  2  0  0  0  0  0  0
    6.6651   47.4152   53.3730 C   0  0  0  0  0  2  0  0  0  0  0  0
    6.7845   48.6033   54.1706 N   0  0  0  0  0  2  0  0  0  0  0  0
    6.2634   44.2464   51.0817 *   0  0  0  0  0  0  0  0  0  0  0  0
    6.2634   44.2464   51.0817 O   0  0  0  0  0 15  0  0  0  0  0  0
    6.2634   44.2464   51.0817 *   0  0  0  0  0  0  0  0  0  0  0  0
    5.9071   42.8924   49.0959 O   0  0  0  0  0  0  0  0  0  0  0  0
    4.6930   42.9174   49.8141 C   0  0  0  0  0  2  0  0  0  0  0  0
    3.8604   41.7302   49.5305 C   0  0  0  0  0  0  0  0  0  0  0  0
    3.9711   41.1735   48.2647 C   0  0  0  0  0  3  0  0  0  0  0  0
    2.9969   41.1614   50.4449 C   0  0  0  0  0  3  0  0  0  0  0  0
    3.2378   40.0767   47.9216 C   0  0  0  0  0  3  0  0  0  0  0  0
    2.2725   40.0523   50.0591 C   0  0  0  0  0  3  0  0  0  0  0  0
    2.3670   39.4908   48.8211 C   0  0  0  0  0  3  0  0  0  0  0  0
  1  2  2  0
  2  3  1  0
  4  3  2  0
  5  4  1  0
  6  1  1  0
  6  5  2  0
  7  8  1  0
  7  1  1  0
  8 12  1  0
  9  8  1  0
 10 11  1  0
 10  9  1  0
 11  7  1  0
 13 12  1  0
 17  5  1  0
 18 17  1  0
 19 20  2  0
 19 18  1  0
 21 19  1  0
 22 20  1  0
 23 24  1  0
 23 21  2  0
 24 22  2  0
M  RAD  8   3   2   4   2   8   2   9   3  10   3  11   3  12   3  13   2
M  RAD  6  18   3  20   2  21   2  22   2  23   2  24   2
V   14 *
V   16 *
M  END
>  <REMARK>  (1) 
 SMILES O=C1CC2CCC(CN1)N2c1nccc(OCc2ccccc2)n1
 SMILES IDX 11 1 12 2 13 3 14 4 15 5 24 6 10 7 7 8 6 9 5 10 4 11 8 12
 SMILES IDX 9 13 2 14 1 15 3 18 16 20 17 21 18 22 19 23 23 24 20 25
 SMILES IDX 22 26 21 27
 H PARENT 9 16
 Flexibility Score:   44.900

>  <TORSDO>  (1) 
F 4

$$$$
