/home/pchatterjee/Documents/git/vs_workflow/DiffDock/diffdock_run/pdbqt_scrubbed/Z1532981033.pdbqt
     RDKit          3D

 24 23  0  0  1  0  0  0  0  0999 V2000
    7.9719   44.8883   50.7535 C   0  0  0  0  0  0  0  0  0  0  0  0
    9.0606   44.7642   49.9598 N   0  0  0  0  0  0  0  0  0  0  0  0
    9.0638   43.9799   48.8539 C   0  0  0  0  0  3  0  0  0  0  0  0
    7.9326   43.2980   48.5371 C   0  0  0  0  0  3  0  0  0  0  0  0
    6.7972   43.4077   49.3371 C   0  0  0  0  0  0  0  0  0  0  0  0
    6.8573   44.2105   50.4332 N   0  0  0  0  0  0  0  0  0  0  0  0
    8.0752   45.7374   51.8902 N   0  0  0  0  0  0  0  0  0  0  0  0
    7.7910   47.1568   52.0092 C   0  0  0  0  0  3  0  0  0  0  0  0
    9.1189   47.6192   52.6228 C   0  0  0  0  0  2  0  0  0  0  0  0
    9.4655   46.4955   53.5462 C   0  0  0  0  0  2  0  0  0  0  0  0
    8.5082   45.3389   53.2343 C   0  0  0  0  0  2  0  0  0  0  0  0
    6.7539   47.3349   53.1243 C   0  0  0  0  0  2  0  0  0  0  0  0
    6.9507   48.5407   53.8790 N   0  0  0  0  0  2  0  0  0  0  0  0
    6.1369   44.1170   50.9525 *   0  0  0  0  0  0  0  0  0  0  0  0
    6.1369   44.1170   50.9525 O   0  0  0  0  0 15  0  0  0  0  0  0
    6.1369   44.1170   50.9525 *   0  0  0  0  0  0  0  0  0  0  0  0
    5.6340   42.7195   49.0296 O   0  0  0  0  0  0  0  0  0  0  0  0
    4.4622   42.8012   49.8111 C   0  0  0  0  0  2  0  0  0  0  0  0
    3.5816   41.6323   49.6077 C   0  0  0  0  0  0  0  0  0  0  0  0
    3.6070   41.0374   48.3548 C   0  0  0  0  0  3  0  0  0  0  0  0
    2.7534   41.1157   50.5837 C   0  0  0  0  0  3  0  0  0  0  0  0
    2.8248   39.9541   48.0842 C   0  0  0  0  0  3  0  0  0  0  0  0
    1.9775   40.0186   50.2703 C   0  0  0  0  0  3  0  0  0  0  0  0
    1.9881   39.4201   49.0461 C   0  0  0  0  0  3  0  0  0  0  0  0
  1  2  2  0
  2  3  1  0
  4  3  2  0
  5  4  1  0
  6  1  1  0
  6  5  2  0
  7  8  1  0
  7  1  1  0
  8 12  1  0
  9  8  1  0
 10 11  1  0
 10  9  1  0
 11  7  1  0
 13 12  1  0
 17  5  1  0
 18 17  1  0
 19 20  2  0
 19 18  1  0
 21 19  1  0
 22 20  1  0
 23 24  1  0
 23 21  2  0
 24 22  2  0
M  RAD  8   3   2   4   2   8   2   9   3  10   3  11   3  12   3  13   2
M  RAD  6  18   3  20   2  21   2  22   2  23   2  24   2
V   14 *
V   16 *
M  END
>  <REMARK>  (1) 
 SMILES O=C1CC2CCC(CN1)N2c1nccc(OCc2ccccc2)n1
 SMILES IDX 11 1 12 2 13 3 14 4 15 5 24 6 10 7 7 8 6 9 5 10 4 11 8 12
 SMILES IDX 9 13 2 14 1 15 3 18 16 20 17 21 18 22 19 23 23 24 20 25
 SMILES IDX 22 26 21 27
 H PARENT 9 16
 Flexibility Score:   44.900

>  <TORSDO>  (1) 
F 4

$$$$
