/home/pchatterjee/Documents/git/vs_workflow/DiffDock/diffdock_run/pdbqt_scrubbed/Z1532981033.pdbqt
     RDKit          3D

 24 23  0  0  1  0  0  0  0  0999 V2000
    8.2342   45.0475   50.8684 C   0  0  0  0  0  0  0  0  0  0  0  0
    9.3499   44.9645   50.1075 N   0  0  0  0  0  0  0  0  0  0  0  0
    9.3972   44.2259   48.9715 C   0  0  0  0  0  3  0  0  0  0  0  0
    8.2836   43.5486   48.5894 C   0  0  0  0  0  3  0  0  0  0  0  0
    7.1212   43.6166   49.3545 C   0  0  0  0  0  0  0  0  0  0  0  0
    7.1371   44.3746   50.4835 N   0  0  0  0  0  0  0  0  0  0  0  0
    8.2915   45.8505   52.0413 N   0  0  0  0  0  0  0  0  0  0  0  0
    7.9904   47.2616   52.2079 C   0  0  0  0  0  3  0  0  0  0  0  0
    9.2928   47.7090   52.8842 C   0  0  0  0  0  2  0  0  0  0  0  0
    9.6187   46.5514   53.7726 C   0  0  0  0  0  2  0  0  0  0  0  0
    8.6831   45.4010   53.3820 C   0  0  0  0  0  2  0  0  0  0  0  0
    6.9150   47.3859   53.2937 C   0  0  0  0  0  2  0  0  0  0  0  0
    7.0754   48.5615   54.1028 N   0  0  0  0  0  2  0  0  0  0  0  0
    6.4008   44.2543   50.9741 *   0  0  0  0  0  0  0  0  0  0  0  0
    6.4008   44.2543   50.9741 O   0  0  0  0  0 15  0  0  0  0  0  0
    6.4008   44.2543   50.9741 *   0  0  0  0  0  0  0  0  0  0  0  0
    5.9752   42.9323   48.9804 O   0  0  0  0  0  0  0  0  0  0  0  0
    4.7773   42.9729   49.7245 C   0  0  0  0  0  2  0  0  0  0  0  0
    3.9149   41.8063   49.4445 C   0  0  0  0  0  0  0  0  0  0  0  0
    3.9876   41.2631   48.1701 C   0  0  0  0  0  3  0  0  0  0  0  0
    3.0594   41.2438   50.3702 C   0  0  0  0  0  3  0  0  0  0  0  0
    3.2250   40.1856   47.8297 C   0  0  0  0  0  3  0  0  0  0  0  0
    2.3045   40.1543   49.9868 C   0  0  0  0  0  3  0  0  0  0  0  0
    2.3616   39.6063   48.7404 C   0  0  0  0  0  3  0  0  0  0  0  0
  1  2  2  0
  2  3  1  0
  4  3  2  0
  5  4  1  0
  6  1  1  0
  6  5  2  0
  7  8  1  0
  7  1  1  0
  8 12  1  0
  9  8  1  0
 10 11  1  0
 10  9  1  0
 11  7  1  0
 13 12  1  0
 17  5  1  0
 18 17  1  0
 19 20  2  0
 19 18  1  0
 21 19  1  0
 22 20  1  0
 23 24  1  0
 23 21  2  0
 24 22  2  0
M  RAD  8   3   2   4   2   8   2   9   3  10   3  11   3  12   3  13   2
M  RAD  6  18   3  20   2  21   2  22   2  23   2  24   2
V   14 *
V   16 *
M  END
>  <REMARK>  (1) 
 SMILES O=C1CC2CCC(CN1)N2c1nccc(OCc2ccccc2)n1
 SMILES IDX 11 1 12 2 13 3 14 4 15 5 24 6 10 7 7 8 6 9 5 10 4 11 8 12
 SMILES IDX 9 13 2 14 1 15 3 18 16 20 17 21 18 22 19 23 23 24 20 25
 SMILES IDX 22 26 21 27
 H PARENT 9 16
 Flexibility Score:   44.900

>  <TORSDO>  (1) 
F 4

$$$$
