/home/pchatterjee/Documents/git/vs_workflow/DiffDock/diffdock_run/pdbqt_scrubbed/Z1532981033.pdbqt
     RDKit          3D

 24 23  0  0  1  0  0  0  0  0999 V2000
    7.9858   44.9519   50.7392 C   0  0  0  0  0  0  0  0  0  0  0  0
    9.0739   44.8401   49.9428 N   0  0  0  0  0  0  0  0  0  0  0  0
    9.0667   44.0975   48.8085 C   0  0  0  0  0  3  0  0  0  0  0  0
    7.9254   43.4460   48.4650 C   0  0  0  0  0  3  0  0  0  0  0  0
    6.7904   43.5439   49.2671 C   0  0  0  0  0  0  0  0  0  0  0  0
    6.8611   44.3044   50.3923 N   0  0  0  0  0  0  0  0  0  0  0  0
    8.1003   45.7564   51.9068 N   0  0  0  0  0  0  0  0  0  0  0  0
    7.8385   47.1748   52.0782 C   0  0  0  0  0  3  0  0  0  0  0  0
    9.1724   47.5927   52.7103 C   0  0  0  0  0  2  0  0  0  0  0  0
    9.4993   46.4301   53.5918 C   0  0  0  0  0  2  0  0  0  0  0  0
    8.5243   45.3013   53.2357 C   0  0  0  0  0  2  0  0  0  0  0  0
    6.8022   47.3277   53.1978 C   0  0  0  0  0  2  0  0  0  0  0  0
    7.0167   48.5014   53.9971 N   0  0  0  0  0  2  0  0  0  0  0  0
    6.1384   44.2031   50.9069 *   0  0  0  0  0  0  0  0  0  0  0  0
    6.1384   44.2031   50.9069 O   0  0  0  0  0 15  0  0  0  0  0  0
    6.1384   44.2031   50.9069 *   0  0  0  0  0  0  0  0  0  0  0  0
    5.6169   42.8862   48.9327 O   0  0  0  0  0  0  0  0  0  0  0  0
    4.4451   42.9576   49.7151 C   0  0  0  0  0  2  0  0  0  0  0  0
    3.5465   41.8112   49.4672 C   0  0  0  0  0  0  0  0  0  0  0  0
    3.5648   41.2629   48.1931 C   0  0  0  0  0  3  0  0  0  0  0  0
    2.7083   41.2719   50.4222 C   0  0  0  0  0  3  0  0  0  0  0  0
    2.7660   40.2031   47.8813 C   0  0  0  0  0  3  0  0  0  0  0  0
    1.9156   40.1997   50.0672 C   0  0  0  0  0  3  0  0  0  0  0  0
    1.9190   39.6471   48.8216 C   0  0  0  0  0  3  0  0  0  0  0  0
  1  2  2  0
  2  3  1  0
  4  3  2  0
  5  4  1  0
  6  1  1  0
  6  5  2  0
  7  8  1  0
  7  1  1  0
  8 12  1  0
  9  8  1  0
 10 11  1  0
 10  9  1  0
 11  7  1  0
 13 12  1  0
 17  5  1  0
 18 17  1  0
 19 20  2  0
 19 18  1  0
 21 19  1  0
 22 20  1  0
 23 24  1  0
 23 21  2  0
 24 22  2  0
M  RAD  8   3   2   4   2   8   2   9   3  10   3  11   3  12   3  13   2
M  RAD  6  18   3  20   2  21   2  22   2  23   2  24   2
V   14 *
V   16 *
M  END
>  <REMARK>  (1) 
 SMILES O=C1CC2CCC(CN1)N2c1nccc(OCc2ccccc2)n1
 SMILES IDX 11 1 12 2 13 3 14 4 15 5 24 6 10 7 7 8 6 9 5 10 4 11 8 12
 SMILES IDX 9 13 2 14 1 15 3 18 16 20 17 21 18 22 19 23 23 24 20 25
 SMILES IDX 22 26 21 27
 H PARENT 9 16
 Flexibility Score:   44.900

>  <TORSDO>  (1) 
F 4

$$$$
