/home/pchatterjee/Documents/git/vs_workflow/DiffDock/diffdock_run/pdbqt_scrubbed/Z1041113950.pdbqt
     RDKit          3D

 27 30  0  0  0  0  0  0  0  0999 V2000
    9.8325   84.0443   74.7110 C   0  0  0  0  0  0  0  0  0  0  0  0
    8.5231   84.3524   74.6636 N   0  0  0  0  0  0  0  0  0  0  0  0
    8.0810   85.5546   74.2025 C   0  0  0  0  0  0  0  0  0  0  0  0
    8.9960   86.4480   73.7863 N   0  0  0  0  0  0  0  0  0  0  0  0
   10.3236   86.2025   73.8074 C   0  0  0  0  0  0  0  0  0  0  0  0
   11.1676   87.1356   73.3795 N   0  0  0  0  0  0  0  0  0  0  0  0
   12.4682   86.8491   73.4189 C   0  0  0  0  0  3  0  0  0  0  0  0
   12.9050   85.6363   73.8847 C   0  0  0  0  0  3  0  0  0  0  0  0
   12.0618   84.6872   74.3191 N   0  0  0  0  0  0  0  0  0  0  0  0
   10.7606   84.9767   74.2784 C   0  0  0  0  0  0  0  0  0  0  0  0
   10.2043   82.7622   75.2101 N   0  0  0  0  0  0  0  0  0  0  0  0
    9.2596   81.8490   75.7691 C   0  0  0  0  0  0  0  0  0  0  0  0
    7.5543   79.9651   76.8935 C   0  0  0  0  0  0  0  0  0  0  0  0
    8.9291   79.7219   76.8330 C   0  0  0  0  0  3  0  0  0  0  0  0
    7.0502   81.1596   76.3851 C   0  0  0  0  0  0  0  0  0  0  0  0
    9.7773   80.6639   76.2714 C   0  0  0  0  0  3  0  0  0  0  0  0
    7.9039   82.1112   75.8180 C   0  0  0  0  0  3  0  0  0  0  0  0
    6.6526   78.9426   77.5010 C   0  0  0  0  0  1  0  0  0  0  0  0
    5.5954   81.3945   76.4603 C   0  0  0  0  0  1  0  0  0  0  0  0
    6.6935   85.8545   74.1609 N   0  0  0  0  0  0  0  0  0  0  0  0
    5.6728   84.9035   74.4277 C   0  0  0  0  0  0  0  0  0  0  0  0
    4.8861   84.3335   73.4501 C   0  0  0  0  0  3  0  0  0  0  0  0
    5.5019   84.5627   75.7748 C   0  0  0  0  0  3  0  0  0  0  0  0
    3.9061   83.4046   73.8038 C   0  0  0  0  0  3  0  0  0  0  0  0
    4.5280   83.6385   76.1334 C   0  0  0  0  0  0  0  0  0  0  0  0
    3.7419   83.0720   75.1335 C   0  0  0  0  0  3  0  0  0  0  0  0
    4.3490   83.2947   77.4528 F   0  0  0  0  0  0  0  0  0  0  0  0
  1 10  1  0
  1 11  1  0
  2  1  2  0
  3  4  2  0
  3  2  1  0
  4  5  1  0
  5  6  1  0
  5 10  2  0
  6  7  2  0
  7  8  1  0
  9  8  2  0
 10  9  1  0
 12 11  1  0
 12 17  2  0
 13 15  2  0
 14 16  2  0
 14 13  1  0
 15 17  1  0
 15 19  1  0
 16 12  1  0
 18 13  1  0
 20  3  1  0
 21 23  1  0
 21 20  1  0
 22 21  2  0
 24 26  2  0
 24 22  1  0
 25 27  1  0
 25 23  2  0
 26 25  1  0
M  RAD  8   7   2   8   2  14   2  16   2  17   2  18   2  19   2  22   2
M  RAD  3  23   2  24   2  26   2
M  END
>  <REMARK>  (1) 
 SMILES Cc1ccc(Nc2nc(Nc3cccc(F)c3)nc3nccnc23)cc1C
 SMILES IDX 7 1 8 2 9 3 18 4 19 5 20 6 21 7 22 8 23 9 24 10 6 11 5 13
 SMILES IDX 2 14 3 15 26 16 4 17 25 18 1 19 27 20 10 21 11 23 12 24
 SMILES IDX 17 25 13 26 15 27 14 28 16 29
 H PARENT 6 12 10 22

>  <TORSDO>  (1) 
F 4

$$$$
