/home/pchatterjee/Documents/git/vs_workflow/DiffDock/diffdock_run/pdbqt_scrubbed/Z1041113950.pdbqt
     RDKit          3D

 27 30  0  0  0  0  0  0  0  0999 V2000
    6.8212   45.0439   51.5455 C   0  0  0  0  0  0  0  0  0  0  0  0
    6.4700   44.0371   50.7239 N   0  0  0  0  0  0  0  0  0  0  0  0
    7.3833   43.3777   49.9595 C   0  0  0  0  0  0  0  0  0  0  0  0
    8.6705   43.7586   50.0418 N   0  0  0  0  0  0  0  0  0  0  0  0
    9.0893   44.7600   50.8450 C   0  0  0  0  0  0  0  0  0  0  0  0
   10.3790   45.0797   50.8725 N   0  0  0  0  0  0  0  0  0  0  0  0
   10.7460   46.0741   51.6796 C   0  0  0  0  0  3  0  0  0  0  0  0
    9.8201   46.7330   52.4459 C   0  0  0  0  0  3  0  0  0  0  0  0
    8.5158   46.4185   52.4260 N   0  0  0  0  0  0  0  0  0  0  0  0
    8.1514   45.4227   51.6172 C   0  0  0  0  0  0  0  0  0  0  0  0
    5.7977   45.6783   52.3077 N   0  0  0  0  0  0  0  0  0  0  0  0
    4.4627   45.1761   52.3744 C   0  0  0  0  0  0  0  0  0  0  0  0
    1.9119   44.1076   52.6450 C   0  0  0  0  0  0  0  0  0  0  0  0
    2.9232   43.7493   53.5404 C   0  0  0  0  0  3  0  0  0  0  0  0
    2.1967   45.0042   51.6181 C   0  0  0  0  0  0  0  0  0  0  0  0
    4.1949   44.2842   53.4027 C   0  0  0  0  0  3  0  0  0  0  0  0
    3.4787   45.5450   51.4772 C   0  0  0  0  0  3  0  0  0  0  0  0
    0.5474   43.5244   52.8049 C   0  0  0  0  0  1  0  0  0  0  0  0
    1.1130   45.3680   50.6851 C   0  0  0  0  0  1  0  0  0  0  0  0
    6.9872   42.3172   49.1021 N   0  0  0  0  0  0  0  0  0  0  0  0
    5.6345   41.9433   48.8832 C   0  0  0  0  0  0  0  0  0  0  0  0
    5.1845   41.3504   47.7232 C   0  0  0  0  0  3  0  0  0  0  0  0
    4.7547   42.2140   49.9381 C   0  0  0  0  0  3  0  0  0  0  0  0
    3.8359   41.0144   47.5951 C   0  0  0  0  0  3  0  0  0  0  0  0
    3.4109   41.8818   49.8168 C   0  0  0  0  0  0  0  0  0  0  0  0
    2.9727   41.2834   48.6384 C   0  0  0  0  0  3  0  0  0  0  0  0
    2.5355   42.1422   50.8448 F   0  0  0  0  0  0  0  0  0  0  0  0
  1 10  1  0
  1 11  1  0
  2  1  2  0
  3  4  2  0
  3  2  1  0
  4  5  1  0
  5  6  1  0
  5 10  2  0
  6  7  2  0
  7  8  1  0
  9  8  2  0
 10  9  1  0
 12 11  1  0
 12 17  2  0
 13 15  2  0
 14 16  2  0
 14 13  1  0
 15 17  1  0
 15 19  1  0
 16 12  1  0
 18 13  1  0
 20  3  1  0
 21 23  1  0
 21 20  1  0
 22 21  2  0
 24 26  2  0
 24 22  1  0
 25 27  1  0
 25 23  2  0
 26 25  1  0
M  RAD  8   7   2   8   2  14   2  16   2  17   2  18   2  19   2  22   2
M  RAD  3  23   2  24   2  26   2
M  END
>  <REMARK>  (1) 
 SMILES Cc1ccc(Nc2nc(Nc3cccc(F)c3)nc3nccnc23)cc1C
 SMILES IDX 7 1 8 2 9 3 18 4 19 5 20 6 21 7 22 8 23 9 24 10 6 11 5 13
 SMILES IDX 2 14 3 15 26 16 4 17 25 18 1 19 27 20 10 21 11 23 12 24
 SMILES IDX 17 25 13 26 15 27 14 28 16 29
 H PARENT 6 12 10 22

>  <TORSDO>  (1) 
F 4

$$$$
