/home/pchatterjee/Documents/git/vs_workflow/DiffDock/diffdock_run/pdbqt_scrubbed/Z1041113950.pdbqt
     RDKit          3D

 27 30  0  0  0  0  0  0  0  0999 V2000
    6.7593   45.3651   51.3425 C   0  0  0  0  0  0  0  0  0  0  0  0
    6.3696   44.2970   50.6220 N   0  0  0  0  0  0  0  0  0  0  0  0
    7.2601   43.5139   49.9534 C   0  0  0  0  0  0  0  0  0  0  0  0
    8.5643   43.8337   50.0273 N   0  0  0  0  0  0  0  0  0  0  0  0
    9.0216   44.8909   50.7319 C   0  0  0  0  0  0  0  0  0  0  0  0
   10.3259   45.1441   50.7578 N   0  0  0  0  0  0  0  0  0  0  0  0
   10.7311   46.1975   51.4656 C   0  0  0  0  0  3  0  0  0  0  0  0
    9.8279   46.9810   52.1359 C   0  0  0  0  0  3  0  0  0  0  0  0
    8.5091   46.7346   52.1166 N   0  0  0  0  0  0  0  0  0  0  0  0
    8.1065   45.6795   51.4073 C   0  0  0  0  0  0  0  0  0  0  0  0
    5.7575   46.1289   52.0089 N   0  0  0  0  0  0  0  0  0  0  0  0
    4.4828   45.5893   52.3596 C   0  0  0  0  0  0  0  0  0  0  0  0
    1.9521   44.5650   52.8769 C   0  0  0  0  0  0  0  0  0  0  0  0
    2.2750   45.0299   51.5992 C   0  0  0  0  0  3  0  0  0  0  0  0
    2.9110   44.6210   53.8853 C   0  0  0  0  0  0  0  0  0  0  0  0
    3.5386   45.5403   51.3443 C   0  0  0  0  0  3  0  0  0  0  0  0
    4.1862   45.1355   53.6305 C   0  0  0  0  0  3  0  0  0  0  0  0
    0.5881   44.0178   53.1375 C   0  0  0  0  0  1  0  0  0  0  0  0
    2.5473   44.1241   55.2262 C   0  0  0  0  0  1  0  0  0  0  0  0
    6.8233   42.3910   49.2016 N   0  0  0  0  0  0  0  0  0  0  0  0
    5.4822   41.9233   49.1895 C   0  0  0  0  0  0  0  0  0  0  0  0
    4.6350   42.0065   50.2734 C   0  0  0  0  0  3  0  0  0  0  0  0
    5.0505   41.3577   47.9838 C   0  0  0  0  0  3  0  0  0  0  0  0
    3.3299   41.5221   50.1713 C   0  0  0  0  0  3  0  0  0  0  0  0
    3.7524   40.8736   47.8758 C   0  0  0  0  0  0  0  0  0  0  0  0
    2.9094   40.9654   48.9801 C   0  0  0  0  0  3  0  0  0  0  0  0
    3.3151   40.3153   46.6977 F   0  0  0  0  0  0  0  0  0  0  0  0
  1 10  1  0
  1 11  1  0
  2  1  2  0
  3  4  2  0
  3  2  1  0
  4  5  1  0
  5  6  1  0
  5 10  2  0
  6  7  2  0
  7  8  1  0
  9  8  2  0
 10  9  1  0
 12 11  1  0
 12 17  2  0
 13 15  2  0
 14 16  2  0
 14 13  1  0
 15 17  1  0
 15 19  1  0
 16 12  1  0
 18 13  1  0
 20  3  1  0
 21 23  1  0
 21 20  1  0
 22 21  2  0
 24 26  2  0
 24 22  1  0
 25 27  1  0
 25 23  2  0
 26 25  1  0
M  RAD  8   7   2   8   2  14   2  16   2  17   2  18   2  19   2  22   2
M  RAD  3  23   2  24   2  26   2
M  END
>  <REMARK>  (1) 
 SMILES Cc1ccc(Nc2nc(Nc3cccc(F)c3)nc3nccnc23)cc1C
 SMILES IDX 7 1 8 2 9 3 18 4 19 5 20 6 21 7 22 8 23 9 24 10 6 11 5 13
 SMILES IDX 2 14 3 15 26 16 4 17 25 18 1 19 27 20 10 21 11 23 12 24
 SMILES IDX 17 25 13 26 15 27 14 28 16 29
 H PARENT 6 12 10 22

>  <TORSDO>  (1) 
F 4

$$$$
