/home/pchatterjee/Documents/git/vs_workflow/DiffDock/diffdock_run/pdbqt_scrubbed/Z1041113950.pdbqt
     RDKit          3D

 27 30  0  0  0  0  0  0  0  0999 V2000
   14.2308   87.0332   68.8618 C   0  0  0  0  0  0  0  0  0  0  0  0
   15.5709   86.9669   68.9691 N   0  0  0  0  0  0  0  0  0  0  0  0
   16.3797   87.9757   68.5434 C   0  0  0  0  0  0  0  0  0  0  0  0
   15.8031   89.0634   68.0020 N   0  0  0  0  0  0  0  0  0  0  0  0
   14.4660   89.1935   67.8650 C   0  0  0  0  0  0  0  0  0  0  0  0
   13.9695   90.2990   67.3196 N   0  0  0  0  0  0  0  0  0  0  0  0
   12.6448   90.3831   67.2047 C   0  0  0  0  0  3  0  0  0  0  0  0
   11.8376   89.3627   67.6358 C   0  0  0  0  0  3  0  0  0  0  0  0
   12.3281   88.2424   68.1877 N   0  0  0  0  0  0  0  0  0  0  0  0
   13.6544   88.1610   68.3015 C   0  0  0  0  0  0  0  0  0  0  0  0
   13.4627   85.9291   69.3329 N   0  0  0  0  0  0  0  0  0  0  0  0
   14.0596   84.7320   69.8324 C   0  0  0  0  0  0  0  0  0  0  0  0
   15.0761   82.3171   70.7579 C   0  0  0  0  0  0  0  0  0  0  0  0
   13.7954   82.3742   70.2017 C   0  0  0  0  0  3  0  0  0  0  0  0
   15.8351   83.4817   70.8426 C   0  0  0  0  0  0  0  0  0  0  0  0
   13.2911   83.5806   69.7409 C   0  0  0  0  0  3  0  0  0  0  0  0
   15.3284   84.6998   70.3785 C   0  0  0  0  0  3  0  0  0  0  0  0
   15.6069   81.0118   71.2499 C   0  0  0  0  0  1  0  0  0  0  0  0
   17.1846   83.3971   71.4332 C   0  0  0  0  0  1  0  0  0  0  0  0
   17.7911   87.8820   68.6697 N   0  0  0  0  0  0  0  0  0  0  0  0
   18.4647   86.7287   69.1530 C   0  0  0  0  0  0  0  0  0  0  0  0
   19.4005   86.7590   70.1644 C   0  0  0  0  0  3  0  0  0  0  0  0
   18.1185   85.5224   68.5324 C   0  0  0  0  0  3  0  0  0  0  0  0
   20.0125   85.5745   70.5777 C   0  0  0  0  0  3  0  0  0  0  0  0
   18.7241   84.3397   68.9393 C   0  0  0  0  0  0  0  0  0  0  0  0
   19.6673   84.3879   69.9625 C   0  0  0  0  0  3  0  0  0  0  0  0
   18.3939   83.1477   68.3384 F   0  0  0  0  0  0  0  0  0  0  0  0
  1 10  1  0
  1 11  1  0
  2  1  2  0
  3  4  2  0
  3  2  1  0
  4  5  1  0
  5  6  1  0
  5 10  2  0
  6  7  2  0
  7  8  1  0
  9  8  2  0
 10  9  1  0
 12 11  1  0
 12 17  2  0
 13 15  2  0
 14 16  2  0
 14 13  1  0
 15 17  1  0
 15 19  1  0
 16 12  1  0
 18 13  1  0
 20  3  1  0
 21 23  1  0
 21 20  1  0
 22 21  2  0
 24 26  2  0
 24 22  1  0
 25 27  1  0
 25 23  2  0
 26 25  1  0
M  RAD  8   7   2   8   2  14   2  16   2  17   2  18   2  19   2  22   2
M  RAD  3  23   2  24   2  26   2
M  END
>  <REMARK>  (1) 
 SMILES Cc1ccc(Nc2nc(Nc3cccc(F)c3)nc3nccnc23)cc1C
 SMILES IDX 7 1 8 2 9 3 18 4 19 5 20 6 21 7 22 8 23 9 24 10 6 11 5 13
 SMILES IDX 2 14 3 15 26 16 4 17 25 18 1 19 27 20 10 21 11 23 12 24
 SMILES IDX 17 25 13 26 15 27 14 28 16 29
 H PARENT 6 12 10 22

>  <TORSDO>  (1) 
F 4

$$$$
