/home/pchatterjee/Documents/git/vs_workflow/DiffDock/diffdock_run/pdbqt_scrubbed/Z1041113950.pdbqt
     RDKit          3D

 27 30  0  0  0  0  0  0  0  0999 V2000
    6.8668   45.2216   51.1730 C   0  0  0  0  0  0  0  0  0  0  0  0
    6.4819   44.1728   50.4221 N   0  0  0  0  0  0  0  0  0  0  0  0
    7.3803   43.3786   49.7777 C   0  0  0  0  0  0  0  0  0  0  0  0
    8.6874   43.6669   49.9076 N   0  0  0  0  0  0  0  0  0  0  0  0
    9.1402   44.7035   50.6451 C   0  0  0  0  0  0  0  0  0  0  0  0
   10.4479   44.9259   50.7261 N   0  0  0  0  0  0  0  0  0  0  0  0
   10.8484   45.9598   51.4647 C   0  0  0  0  0  3  0  0  0  0  0  0
    9.9373   46.7547   52.1103 C   0  0  0  0  0  3  0  0  0  0  0  0
    8.6150   46.5393   52.0355 N   0  0  0  0  0  0  0  0  0  0  0  0
    8.2172   45.5037   51.2955 C   0  0  0  0  0  0  0  0  0  0  0  0
    5.8569   45.9992   51.8106 N   0  0  0  0  0  0  0  0  0  0  0  0
    4.5394   45.5037   52.0510 C   0  0  0  0  0  0  0  0  0  0  0  0
    1.9308   44.5977   52.3603 C   0  0  0  0  0  0  0  0  0  0  0  0
    2.3131   45.2534   51.1869 C   0  0  0  0  0  3  0  0  0  0  0  0
    2.8701   44.4040   53.3701 C   0  0  0  0  0  0  0  0  0  0  0  0
    3.6154   45.7043   51.0357 C   0  0  0  0  0  3  0  0  0  0  0  0
    4.1843   44.8580   53.2197 C   0  0  0  0  0  3  0  0  0  0  0  0
    0.5257   44.1172   52.5099 C   0  0  0  0  0  1  0  0  0  0  0  0
    2.4436   43.7088   54.5997 C   0  0  0  0  0  1  0  0  0  0  0  0
    6.9484   42.2766   48.9929 N   0  0  0  0  0  0  0  0  0  0  0  0
    5.5832   41.9559   48.7675 C   0  0  0  0  0  0  0  0  0  0  0  0
    5.1221   41.3424   47.6227 C   0  0  0  0  0  3  0  0  0  0  0  0
    4.7027   42.3035   49.7990 C   0  0  0  0  0  3  0  0  0  0  0  0
    3.7614   41.0626   47.4866 C   0  0  0  0  0  3  0  0  0  0  0  0
    3.3469   42.0275   49.6697 C   0  0  0  0  0  0  0  0  0  0  0  0
    2.8977   41.4073   48.5068 C   0  0  0  0  0  3  0  0  0  0  0  0
    2.4707   42.3636   50.6748 F   0  0  0  0  0  0  0  0  0  0  0  0
  1 10  1  0
  1 11  1  0
  2  1  2  0
  3  4  2  0
  3  2  1  0
  4  5  1  0
  5  6  1  0
  5 10  2  0
  6  7  2  0
  7  8  1  0
  9  8  2  0
 10  9  1  0
 12 11  1  0
 12 17  2  0
 13 15  2  0
 14 16  2  0
 14 13  1  0
 15 17  1  0
 15 19  1  0
 16 12  1  0
 18 13  1  0
 20  3  1  0
 21 23  1  0
 21 20  1  0
 22 21  2  0
 24 26  2  0
 24 22  1  0
 25 27  1  0
 25 23  2  0
 26 25  1  0
M  RAD  8   7   2   8   2  14   2  16   2  17   2  18   2  19   2  22   2
M  RAD  3  23   2  24   2  26   2
M  END
>  <REMARK>  (1) 
 SMILES Cc1ccc(Nc2nc(Nc3cccc(F)c3)nc3nccnc23)cc1C
 SMILES IDX 7 1 8 2 9 3 18 4 19 5 20 6 21 7 22 8 23 9 24 10 6 11 5 13
 SMILES IDX 2 14 3 15 26 16 4 17 25 18 1 19 27 20 10 21 11 23 12 24
 SMILES IDX 17 25 13 26 15 27 14 28 16 29
 H PARENT 6 12 10 22

>  <TORSDO>  (1) 
F 4

$$$$
