/home/pchatterjee/Documents/git/vs_workflow/DiffDock/diffdock_run/pdbqt_scrubbed/Z1041113950.pdbqt
     RDKit          3D

 27 30  0  0  0  0  0  0  0  0999 V2000
    6.8076   45.2089   51.1667 C   0  0  0  0  0  0  0  0  0  0  0  0
    6.4403   44.2139   50.3379 N   0  0  0  0  0  0  0  0  0  0  0  0
    7.3522   43.4814   49.6414 C   0  0  0  0  0  0  0  0  0  0  0  0
    8.6547   43.7762   49.7998 N   0  0  0  0  0  0  0  0  0  0  0  0
    9.0902   44.7609   50.6147 C   0  0  0  0  0  0  0  0  0  0  0  0
   10.3944   44.9936   50.7194 N   0  0  0  0  0  0  0  0  0  0  0  0
   10.7776   45.9749   51.5350 C   0  0  0  0  0  3  0  0  0  0  0  0
    9.8530   46.7078   52.2326 C   0  0  0  0  0  3  0  0  0  0  0  0
    8.5340   46.4814   52.1345 N   0  0  0  0  0  0  0  0  0  0  0  0
    8.1535   45.4985   51.3174 C   0  0  0  0  0  0  0  0  0  0  0  0
    5.7844   45.9238   51.8545 N   0  0  0  0  0  0  0  0  0  0  0  0
    4.4529   45.4258   51.9885 C   0  0  0  0  0  0  0  0  0  0  0  0
    1.8077   44.5904   52.1509 C   0  0  0  0  0  0  0  0  0  0  0  0
    2.1377   45.7463   51.4382 C   0  0  0  0  0  3  0  0  0  0  0  0
    2.8174   43.8640   52.7772 C   0  0  0  0  0  0  0  0  0  0  0  0
    3.4585   46.1604   51.3590 C   0  0  0  0  0  3  0  0  0  0  0  0
    4.1504   44.2799   52.6988 C   0  0  0  0  0  3  0  0  0  0  0  0
    0.3819   44.1557   52.2279 C   0  0  0  0  0  1  0  0  0  0  0  0
    2.4451   42.6468   53.5236 C   0  0  0  0  0  1  0  0  0  0  0  0
    6.9387   42.4353   48.7745 N   0  0  0  0  0  0  0  0  0  0  0  0
    5.6141   41.9243   48.7310 C   0  0  0  0  0  0  0  0  0  0  0  0
    5.2088   40.9265   47.8709 C   0  0  0  0  0  3  0  0  0  0  0  0
    4.7139   42.5018   49.6343 C   0  0  0  0  0  3  0  0  0  0  0  0
    3.8854   40.4837   47.8983 C   0  0  0  0  0  3  0  0  0  0  0  0
    3.3949   42.0654   49.6665 C   0  0  0  0  0  0  0  0  0  0  0  0
    3.0019   41.0565   48.7911 C   0  0  0  0  0  3  0  0  0  0  0  0
    2.4999   42.6238   50.5485 F   0  0  0  0  0  0  0  0  0  0  0  0
  1 10  1  0
  1 11  1  0
  2  1  2  0
  3  4  2  0
  3  2  1  0
  4  5  1  0
  5  6  1  0
  5 10  2  0
  6  7  2  0
  7  8  1  0
  9  8  2  0
 10  9  1  0
 12 11  1  0
 12 17  2  0
 13 15  2  0
 14 16  2  0
 14 13  1  0
 15 17  1  0
 15 19  1  0
 16 12  1  0
 18 13  1  0
 20  3  1  0
 21 23  1  0
 21 20  1  0
 22 21  2  0
 24 26  2  0
 24 22  1  0
 25 27  1  0
 25 23  2  0
 26 25  1  0
M  RAD  8   7   2   8   2  14   2  16   2  17   2  18   2  19   2  22   2
M  RAD  3  23   2  24   2  26   2
M  END
>  <REMARK>  (1) 
 SMILES Cc1ccc(Nc2nc(Nc3cccc(F)c3)nc3nccnc23)cc1C
 SMILES IDX 7 1 8 2 9 3 18 4 19 5 20 6 21 7 22 8 23 9 24 10 6 11 5 13
 SMILES IDX 2 14 3 15 26 16 4 17 25 18 1 19 27 20 10 21 11 23 12 24
 SMILES IDX 17 25 13 26 15 27 14 28 16 29
 H PARENT 6 12 10 22

>  <TORSDO>  (1) 
F 4

$$$$
