/home/pchatterjee/Documents/git/vs_workflow/DiffDock/diffdock_run/pdbqt_scrubbed/Z1041113950.pdbqt
     RDKit          3D

 27 30  0  0  0  0  0  0  0  0999 V2000
   13.3391   84.3008   70.7607 C   0  0  0  0  0  0  0  0  0  0  0  0
   13.4757   85.1849   69.7549 N   0  0  0  0  0  0  0  0  0  0  0  0
   12.4085   85.8378   69.2182 C   0  0  0  0  0  0  0  0  0  0  0  0
   11.1890   85.5780   69.7219 N   0  0  0  0  0  0  0  0  0  0  0  0
   10.9827   84.7032   70.7297 C   0  0  0  0  0  0  0  0  0  0  0  0
    9.7473   84.4985   71.1747 N   0  0  0  0  0  0  0  0  0  0  0  0
    9.5918   83.6266   72.1700 C   0  0  0  0  0  3  0  0  0  0  0  0
   10.6716   82.9733   72.7047 C   0  0  0  0  0  3  0  0  0  0  0  0
   11.9230   83.1723   72.2632 N   0  0  0  0  0  0  0  0  0  0  0  0
   12.0755   84.0456   71.2669 C   0  0  0  0  0  0  0  0  0  0  0  0
   14.5118   83.6632   71.2598 N   0  0  0  0  0  0  0  0  0  0  0  0
   15.7983   83.8417   70.6664 C   0  0  0  0  0  0  0  0  0  0  0  0
   18.3076   84.0166   69.4858 C   0  0  0  0  0  0  0  0  0  0  0  0
   17.6855   82.7741   69.6349 C   0  0  0  0  0  3  0  0  0  0  0  0
   17.6569   85.1631   69.9346 C   0  0  0  0  0  0  0  0  0  0  0  0
   16.4335   82.6903   70.2243 C   0  0  0  0  0  3  0  0  0  0  0  0
   16.3939   85.0809   70.5296 C   0  0  0  0  0  3  0  0  0  0  0  0
   19.6555   84.0926   68.8493 C   0  0  0  0  0  1  0  0  0  0  0  0
   18.3330   86.4638   69.7662 C   0  0  0  0  0  1  0  0  0  0  0  0
   12.5798   86.7676   68.1585 N   0  0  0  0  0  0  0  0  0  0  0  0
   13.8345   87.0590   67.5601 C   0  0  0  0  0  0  0  0  0  0  0  0
   14.1667   86.7023   66.2709 C   0  0  0  0  0  3  0  0  0  0  0  0
   14.7442   87.7494   68.3699 C   0  0  0  0  0  3  0  0  0  0  0  0
   15.4244   87.0319   65.7632 C   0  0  0  0  0  3  0  0  0  0  0  0
   15.9979   88.0805   67.8704 C   0  0  0  0  0  0  0  0  0  0  0  0
   16.3175   87.7128   66.5660 C   0  0  0  0  0  3  0  0  0  0  0  0
   16.9014   88.7582   68.6548 F   0  0  0  0  0  0  0  0  0  0  0  0
  1 10  1  0
  1 11  1  0
  2  1  2  0
  3  4  2  0
  3  2  1  0
  4  5  1  0
  5  6  1  0
  5 10  2  0
  6  7  2  0
  7  8  1  0
  9  8  2  0
 10  9  1  0
 12 11  1  0
 12 17  2  0
 13 15  2  0
 14 16  2  0
 14 13  1  0
 15 17  1  0
 15 19  1  0
 16 12  1  0
 18 13  1  0
 20  3  1  0
 21 23  1  0
 21 20  1  0
 22 21  2  0
 24 26  2  0
 24 22  1  0
 25 27  1  0
 25 23  2  0
 26 25  1  0
M  RAD  8   7   2   8   2  14   2  16   2  17   2  18   2  19   2  22   2
M  RAD  3  23   2  24   2  26   2
M  END
>  <REMARK>  (1) 
 SMILES Cc1ccc(Nc2nc(Nc3cccc(F)c3)nc3nccnc23)cc1C
 SMILES IDX 7 1 8 2 9 3 18 4 19 5 20 6 21 7 22 8 23 9 24 10 6 11 5 13
 SMILES IDX 2 14 3 15 26 16 4 17 25 18 1 19 27 20 10 21 11 23 12 24
 SMILES IDX 17 25 13 26 15 27 14 28 16 29
 H PARENT 6 12 10 22

>  <TORSDO>  (1) 
F 4

$$$$
