/home/pchatterjee/Documents/git/vs_workflow/DiffDock/diffdock_run/pdbqt_scrubbed/Z1041113950.pdbqt
     RDKit          3D

 27 30  0  0  0  0  0  0  0  0999 V2000
   14.1274   86.9655   68.4464 C   0  0  0  0  0  0  0  0  0  0  0  0
   15.4388   86.6841   68.3334 N   0  0  0  0  0  0  0  0  0  0  0  0
   16.2946   87.4945   67.6523 C   0  0  0  0  0  0  0  0  0  0  0  0
   15.7953   88.6054   67.0819 N   0  0  0  0  0  0  0  0  0  0  0  0
   14.4908   88.9458   67.1572 C   0  0  0  0  0  0  0  0  0  0  0  0
   14.0711   90.0602   66.5672 N   0  0  0  0  0  0  0  0  0  0  0  0
   12.7759   90.3557   66.6678 C   0  0  0  0  0  3  0  0  0  0  0  0
   11.9209   89.5342   67.3555 C   0  0  0  0  0  3  0  0  0  0  0  0
   12.3337   88.4069   67.9548 N   0  0  0  0  0  0  0  0  0  0  0  0
   13.6307   88.1138   67.8525 C   0  0  0  0  0  0  0  0  0  0  0  0
   13.3054   86.0593   69.1772 N   0  0  0  0  0  0  0  0  0  0  0  0
   13.8112   84.8574   69.7591 C   0  0  0  0  0  0  0  0  0  0  0  0
   14.6442   82.4418   70.8509 C   0  0  0  0  0  0  0  0  0  0  0  0
   13.3691   82.5581   70.2911 C   0  0  0  0  0  3  0  0  0  0  0  0
   15.4904   83.5478   70.8552 C   0  0  0  0  0  0  0  0  0  0  0  0
   12.9564   83.7647   69.7471 C   0  0  0  0  0  3  0  0  0  0  0  0
   15.0763   84.7660   70.3071 C   0  0  0  0  0  3  0  0  0  0  0  0
   15.0757   81.1368   71.4328 C   0  0  0  0  0  1  0  0  0  0  0  0
   16.8322   83.4012   71.4513 C   0  0  0  0  0  1  0  0  0  0  0  0
   17.6747   87.1760   67.5494 N   0  0  0  0  0  0  0  0  0  0  0  0
   18.2479   85.9794   68.0566 C   0  0  0  0  0  0  0  0  0  0  0  0
   18.0421   84.7372   67.4962 C   0  0  0  0  0  3  0  0  0  0  0  0
   19.0584   86.1302   69.1881 C   0  0  0  0  0  3  0  0  0  0  0  0
   18.6478   83.6136   68.0609 C   0  0  0  0  0  3  0  0  0  0  0  0
   19.6643   85.0156   69.7550 C   0  0  0  0  0  0  0  0  0  0  0  0
   19.4462   83.7680   69.1765 C   0  0  0  0  0  3  0  0  0  0  0  0
   20.4628   85.1490   70.8666 F   0  0  0  0  0  0  0  0  0  0  0  0
  1 10  1  0
  1 11  1  0
  2  1  2  0
  3  4  2  0
  3  2  1  0
  4  5  1  0
  5  6  1  0
  5 10  2  0
  6  7  2  0
  7  8  1  0
  9  8  2  0
 10  9  1  0
 12 11  1  0
 12 17  2  0
 13 15  2  0
 14 16  2  0
 14 13  1  0
 15 17  1  0
 15 19  1  0
 16 12  1  0
 18 13  1  0
 20  3  1  0
 21 23  1  0
 21 20  1  0
 22 21  2  0
 24 26  2  0
 24 22  1  0
 25 27  1  0
 25 23  2  0
 26 25  1  0
M  RAD  8   7   2   8   2  14   2  16   2  17   2  18   2  19   2  22   2
M  RAD  3  23   2  24   2  26   2
M  END
>  <REMARK>  (1) 
 SMILES Cc1ccc(Nc2nc(Nc3cccc(F)c3)nc3nccnc23)cc1C
 SMILES IDX 7 1 8 2 9 3 18 4 19 5 20 6 21 7 22 8 23 9 24 10 6 11 5 13
 SMILES IDX 2 14 3 15 26 16 4 17 25 18 1 19 27 20 10 21 11 23 12 24
 SMILES IDX 17 25 13 26 15 27 14 28 16 29
 H PARENT 6 12 10 22

>  <TORSDO>  (1) 
F 4

$$$$
