/home/pchatterjee/Documents/git/vs_workflow/DiffDock/diffdock_run/pdbqt_scrubbed/Z1041113950.pdbqt
     RDKit          3D

 27 30  0  0  0  0  0  0  0  0999 V2000
    6.8919   45.0967   51.3090 C   0  0  0  0  0  0  0  0  0  0  0  0
    6.4960   44.0810   50.5194 N   0  0  0  0  0  0  0  0  0  0  0  0
    7.3348   43.4967   49.6205 C   0  0  0  0  0  0  0  0  0  0  0  0
    8.5934   43.9626   49.5338 N   0  0  0  0  0  0  0  0  0  0  0  0
    9.0540   44.9777   50.2959 C   0  0  0  0  0  0  0  0  0  0  0  0
   10.3114   45.3836   50.1531 N   0  0  0  0  0  0  0  0  0  0  0  0
   10.7218   46.3882   50.9260 C   0  0  0  0  0  3  0  0  0  0  0  0
    9.8708   46.9712   51.8285 C   0  0  0  0  0  3  0  0  0  0  0  0
    8.5996   46.5694   51.9809 N   0  0  0  0  0  0  0  0  0  0  0  0
    8.1917   45.5636   51.2060 C   0  0  0  0  0  0  0  0  0  0  0  0
    5.9454   45.6486   52.2205 N   0  0  0  0  0  0  0  0  0  0  0  0
    4.6195   45.1370   52.3589 C   0  0  0  0  0  0  0  0  0  0  0  0
    2.0895   44.0673   52.7782 C   0  0  0  0  0  0  0  0  0  0  0  0
    3.1150   43.8288   53.6970 C   0  0  0  0  0  3  0  0  0  0  0  0
    2.3496   44.8453   51.6528 C   0  0  0  0  0  0  0  0  0  0  0  0
    4.3763   44.3640   53.4850 C   0  0  0  0  0  3  0  0  0  0  0  0
    3.6212   45.3861   51.4368 C   0  0  0  0  0  3  0  0  0  0  0  0
    0.7363   43.4853   53.0189 C   0  0  0  0  0  1  0  0  0  0  0  0
    1.2513   45.0838   50.6967 C   0  0  0  0  0  1  0  0  0  0  0  0
    6.8930   42.4250   48.8002 N   0  0  0  0  0  0  0  0  0  0  0  0
    5.5715   41.9049   48.8261 C   0  0  0  0  0  0  0  0  0  0  0  0
    4.9626   41.3131   47.7404 C   0  0  0  0  0  3  0  0  0  0  0  0
    4.8985   42.0260   50.0477 C   0  0  0  0  0  3  0  0  0  0  0  0
    3.6593   40.8273   47.8568 C   0  0  0  0  0  3  0  0  0  0  0  0
    3.6008   41.5442   50.1701 C   0  0  0  0  0  0  0  0  0  0  0  0
    3.0004   40.9491   49.0637 C   0  0  0  0  0  3  0  0  0  0  0  0
    2.9278   41.6567   51.3640 F   0  0  0  0  0  0  0  0  0  0  0  0
  1 10  1  0
  1 11  1  0
  2  1  2  0
  3  4  2  0
  3  2  1  0
  4  5  1  0
  5  6  1  0
  5 10  2  0
  6  7  2  0
  7  8  1  0
  9  8  2  0
 10  9  1  0
 12 11  1  0
 12 17  2  0
 13 15  2  0
 14 16  2  0
 14 13  1  0
 15 17  1  0
 15 19  1  0
 16 12  1  0
 18 13  1  0
 20  3  1  0
 21 23  1  0
 21 20  1  0
 22 21  2  0
 24 26  2  0
 24 22  1  0
 25 27  1  0
 25 23  2  0
 26 25  1  0
M  RAD  8   7   2   8   2  14   2  16   2  17   2  18   2  19   2  22   2
M  RAD  3  23   2  24   2  26   2
M  END
>  <REMARK>  (1) 
 SMILES Cc1ccc(Nc2nc(Nc3cccc(F)c3)nc3nccnc23)cc1C
 SMILES IDX 7 1 8 2 9 3 18 4 19 5 20 6 21 7 22 8 23 9 24 10 6 11 5 13
 SMILES IDX 2 14 3 15 26 16 4 17 25 18 1 19 27 20 10 21 11 23 12 24
 SMILES IDX 17 25 13 26 15 27 14 28 16 29
 H PARENT 6 12 10 22

>  <TORSDO>  (1) 
F 4

$$$$
