/home/pchatterjee/Documents/git/vs_workflow/DiffDock/diffdock_run/pdbqt_scrubbed/Z1041113950.pdbqt
     RDKit          3D

 27 30  0  0  0  0  0  0  0  0999 V2000
    6.7076   45.0036   51.3624 C   0  0  0  0  0  0  0  0  0  0  0  0
    6.3384   44.0449   50.4927 N   0  0  0  0  0  0  0  0  0  0  0  0
    7.2327   43.4389   49.6644 C   0  0  0  0  0  0  0  0  0  0  0  0
    8.5196   43.8236   49.7323 N   0  0  0  0  0  0  0  0  0  0  0  0
    8.9559   44.7785   50.5815 C   0  0  0  0  0  0  0  0  0  0  0  0
   10.2440   45.1055   50.5910 N   0  0  0  0  0  0  0  0  0  0  0  0
   10.6288   46.0527   51.4452 C   0  0  0  0  0  3  0  0  0  0  0  0
    9.7218   46.6581   52.2758 C   0  0  0  0  0  3  0  0  0  0  0  0
    8.4193   46.3357   52.2745 N   0  0  0  0  0  0  0  0  0  0  0  0
    8.0372   45.3872   51.4185 C   0  0  0  0  0  0  0  0  0  0  0  0
    5.7031   45.5839   52.1903 N   0  0  0  0  0  0  0  0  0  0  0  0
    4.3624   45.0947   52.2335 C   0  0  0  0  0  0  0  0  0  0  0  0
    1.6985   44.3060   52.2892 C   0  0  0  0  0  0  0  0  0  0  0  0
    2.0304   45.6491   52.0920 C   0  0  0  0  0  3  0  0  0  0  0  0
    2.7158   43.3699   52.4570 C   0  0  0  0  0  0  0  0  0  0  0  0
    3.3604   46.0394   52.0647 C   0  0  0  0  0  3  0  0  0  0  0  0
    4.0582   43.7613   52.4299 C   0  0  0  0  0  3  0  0  0  0  0  0
    0.2626   43.8995   52.3162 C   0  0  0  0  0  1  0  0  0  0  0  0
    2.3414   41.9576   52.6634 C   0  0  0  0  0  1  0  0  0  0  0  0
    6.8178   42.4285   48.7568 N   0  0  0  0  0  0  0  0  0  0  0  0
    5.5769   41.7440   48.8521 C   0  0  0  0  0  0  0  0  0  0  0  0
    5.4654   40.3722   48.9243 C   0  0  0  0  0  3  0  0  0  0  0  0
    4.4380   42.5579   48.8710 C   0  0  0  0  0  3  0  0  0  0  0  0
    4.2031   39.7838   49.0177 C   0  0  0  0  0  3  0  0  0  0  0  0
    3.1784   41.9783   48.9640 C   0  0  0  0  0  0  0  0  0  0  0  0
    3.0834   40.5910   49.0362 C   0  0  0  0  0  3  0  0  0  0  0  0
    2.0512   42.7656   48.9834 F   0  0  0  0  0  0  0  0  0  0  0  0
  1 10  1  0
  1 11  1  0
  2  1  2  0
  3  4  2  0
  3  2  1  0
  4  5  1  0
  5  6  1  0
  5 10  2  0
  6  7  2  0
  7  8  1  0
  9  8  2  0
 10  9  1  0
 12 11  1  0
 12 17  2  0
 13 15  2  0
 14 16  2  0
 14 13  1  0
 15 17  1  0
 15 19  1  0
 16 12  1  0
 18 13  1  0
 20  3  1  0
 21 23  1  0
 21 20  1  0
 22 21  2  0
 24 26  2  0
 24 22  1  0
 25 27  1  0
 25 23  2  0
 26 25  1  0
M  RAD  8   7   2   8   2  14   2  16   2  17   2  18   2  19   2  22   2
M  RAD  3  23   2  24   2  26   2
M  END
>  <REMARK>  (1) 
 SMILES Cc1ccc(Nc2nc(Nc3cccc(F)c3)nc3nccnc23)cc1C
 SMILES IDX 7 1 8 2 9 3 18 4 19 5 20 6 21 7 22 8 23 9 24 10 6 11 5 13
 SMILES IDX 2 14 3 15 26 16 4 17 25 18 1 19 27 20 10 21 11 23 12 24
 SMILES IDX 17 25 13 26 15 27 14 28 16 29
 H PARENT 6 12 10 22

>  <TORSDO>  (1) 
F 4

$$$$
