/home/pchatterjee/Documents/git/vs_workflow/DiffDock/diffdock_run/pdbqt_scrubbed/Z2610310359.pdbqt
     RDKit          3D

 24 27  0  0  1  0  0  0  0  0999 V2000
    8.2077   47.8260   53.4281 C   0  0  0  0  0  3  0  0  0  0  0  0
    9.1419   48.0377   52.2577 C   0  0  0  0  0  2  0  0  0  0  0  0
   10.3785   47.1367   52.3531 C   0  0  0  0  0  2  0  0  0  0  0  0
    9.9091   45.6743   52.3261 C   0  0  0  0  0  2  0  0  0  0  0  0
    8.4780   45.6261   52.5753 N   0  0  0  0  0  0  0  0  0  0  0  0
    7.9310   46.3506   53.7088 C   0  0  0  0  0  2  0  0  0  0  0  0
    8.5908   48.6076   54.6552 C   0  0  0  0  0  2  0  0  0  0  0  0
    7.5417   48.7339   55.5690 O   0  0  0  0  0  0  0  0  0  0  0  0
    7.6904   44.8939   51.6549 C   0  0  0  0  0  0  0  0  0  0  0  0
    6.3250   44.8559   51.7040 N   0  0  0  0  0  0  0  0  0  0  0  0
    8.3441   44.2026   50.6800 N   0  0  0  0  0  0  0  0  0  0  0  0
    5.6327   44.1432   50.8032 C   0  0  0  0  0  0  0  0  0  0  0  0
    7.6763   43.4804   49.7637 C   0  0  0  0  0  0  0  0  0  0  0  0
    6.3120   43.4470   49.8200 C   0  0  0  0  0  0  0  0  0  0  0  0
    8.0250   42.7172   48.7255 N   0  0  0  0  0  0  0  0  0  0  0  0
    5.8758   42.6712   48.8228 N   0  0  0  0  0  0  0  0  0  0  0  0
    6.9465   42.1965   48.1094 C   0  0  0  0  0  3  0  0  0  0  0  0
    4.2194   43.9805   50.8116 N   0  0  0  0  0  0  0  0  0  0  0  0
    3.3690   44.6500   51.7462 C   0  0  0  0  0  0  0  0  0  0  0  0
    3.0858   45.9936   51.4411 C   0  0  0  0  0  3  0  0  0  0  0  0
    2.8403   44.0412   52.8606 C   0  0  0  0  0  3  0  0  0  0  0  0
    2.2666   46.7106   52.2758 C   0  0  0  0  0  3  0  0  0  0  0  0
    2.0243   44.8031   53.6668 C   0  0  0  0  0  3  0  0  0  0  0  0
    1.7195   46.0904   53.4279 C   0  0  0  0  0  3  0  0  0  0  0  0
  1  7  1  0
  1  6  1  0
  2  1  1  0
  3  2  1  0
  3  4  1  0
  4  5  1  0
  5  6  1  0
  5  9  1  0
  7  8  1  0
  9 10  2  0
 10 12  1  0
 11  9  1  0
 11 13  2  0
 12 18  1  0
 13 14  1  0
 14 12  2  0
 14 16  1  0
 15 13  1  0
 15 17  2  0
 17 16  1  0
 18 19  1  0
 19 21  2  0
 20 22  2  0
 20 19  1  0
 21 23  1  0
 22 24  1  0
 24 23  2  0
M  RAD  8   1   2   2   3   3   3   4   3   6   3   7   3  17   2  20   2
M  RAD  4  21   2  22   2  23   2  24   2
M  END
>  <REMARK>  (1) 
 SMILES OCC1CCCN(c2nc(Nc3ccccc3)c3[nH]cnc3n2)C1
 SMILES IDX 3 1 4 2 5 3 6 4 7 5 24 6 2 7 1 8 8 10 9 11 23 12 10 13 22 14
 SMILES IDX 18 15 21 16 19 17 20 18 11 20 12 22 13 23 17 24 14 25 16 26
 SMILES IDX 15 27
 H PARENT 1 9 19 19 11 21

>  <TORSDO>  (1) 
F 5

$$$$
