/home/pchatterjee/Documents/git/vs_workflow/DiffDock/diffdock_run/pdbqt_scrubbed/Z2610310359.pdbqt
     RDKit          3D

 24 27  0  0  1  0  0  0  0  0999 V2000
    2.5771   44.8379   52.3515 C   0  0  0  0  0  3  0  0  0  0  0  0
    2.6643   46.2447   51.8031 C   0  0  0  0  0  2  0  0  0  0  0  0
    3.2966   47.2064   52.8158 C   0  0  0  0  0  2  0  0  0  0  0  0
    4.7248   46.7227   53.1087 C   0  0  0  0  0  2  0  0  0  0  0  0
    4.8774   45.3603   52.6261 N   0  0  0  0  0  0  0  0  0  0  0  0
    3.8831   44.3651   52.9862 C   0  0  0  0  0  2  0  0  0  0  0  0
    1.3700   44.6014   53.2177 C   0  0  0  0  0  2  0  0  0  0  0  0
    1.2067   43.2590   53.5682 O   0  0  0  0  0  0  0  0  0  0  0  0
    5.9863   45.0969   51.7866 C   0  0  0  0  0  0  0  0  0  0  0  0
    5.9821   44.1252   50.8255 N   0  0  0  0  0  0  0  0  0  0  0  0
    7.1005   45.8613   51.9602 N   0  0  0  0  0  0  0  0  0  0  0  0
    7.0646   43.9224   50.0602 C   0  0  0  0  0  0  0  0  0  0  0  0
    8.1996   45.6807   51.2074 C   0  0  0  0  0  0  0  0  0  0  0  0
    8.1877   44.7072   50.2495 C   0  0  0  0  0  0  0  0  0  0  0  0
    9.4064   46.2481   51.1467 N   0  0  0  0  0  0  0  0  0  0  0  0
    9.3773   44.7119   49.6402 N   0  0  0  0  0  0  0  0  0  0  0  0
   10.1705   45.6855   50.1910 C   0  0  0  0  0  3  0  0  0  0  0  0
    7.1869   42.8930   49.0859 N   0  0  0  0  0  0  0  0  0  0  0  0
    6.1068   42.0215   48.7413 C   0  0  0  0  0  0  0  0  0  0  0  0
    5.2085   41.7401   49.7865 C   0  0  0  0  0  3  0  0  0  0  0  0
    5.9282   41.4974   47.4822 C   0  0  0  0  0  3  0  0  0  0  0  0
    4.1337   40.9232   49.5430 C   0  0  0  0  0  3  0  0  0  0  0  0
    4.8346   40.6832   47.2883 C   0  0  0  0  0  3  0  0  0  0  0  0
    3.9442   40.3773   48.2478 C   0  0  0  0  0  3  0  0  0  0  0  0
  1  7  1  0
  1  6  1  0
  2  1  1  0
  3  2  1  0
  3  4  1  0
  4  5  1  0
  5  6  1  0
  5  9  1  0
  7  8  1  0
  9 10  2  0
 10 12  1  0
 11  9  1  0
 11 13  2  0
 12 18  1  0
 13 14  1  0
 14 12  2  0
 14 16  1  0
 15 13  1  0
 15 17  2  0
 17 16  1  0
 18 19  1  0
 19 21  2  0
 20 22  2  0
 20 19  1  0
 21 23  1  0
 22 24  1  0
 24 23  2  0
M  RAD  8   1   2   2   3   3   3   4   3   6   3   7   3  17   2  20   2
M  RAD  4  21   2  22   2  23   2  24   2
M  END
>  <REMARK>  (1) 
 SMILES OCC1CCCN(c2nc(Nc3ccccc3)c3[nH]cnc3n2)C1
 SMILES IDX 3 1 4 2 5 3 6 4 7 5 24 6 2 7 1 8 8 10 9 11 23 12 10 13 22 14
 SMILES IDX 18 15 21 16 19 17 20 18 11 20 12 22 13 23 17 24 14 25 16 26
 SMILES IDX 15 27
 H PARENT 1 9 19 19 11 21

>  <TORSDO>  (1) 
F 5

$$$$
