/home/pchatterjee/Documents/git/vs_workflow/DiffDock/diffdock_run/pdbqt_scrubbed/Z2610310359.pdbqt
     RDKit          3D

 24 27  0  0  1  0  0  0  0  0999 V2000
    4.2429   46.6775   54.0145 C   0  0  0  0  0  3  0  0  0  0  0  0
    3.4849   45.4385   53.5931 C   0  0  0  0  0  2  0  0  0  0  0  0
    2.6631   45.6850   52.3227 C   0  0  0  0  0  2  0  0  0  0  0  0
    3.6318   46.0558   51.1898 C   0  0  0  0  0  2  0  0  0  0  0  0
    4.9263   46.3933   51.7579 N   0  0  0  0  0  0  0  0  0  0  0  0
    4.9929   47.3374   52.8592 C   0  0  0  0  0  2  0  0  0  0  0  0
    3.4200   47.6427   54.8234 C   0  0  0  0  0  2  0  0  0  0  0  0
    4.1694   48.7102   55.3236 O   0  0  0  0  0  0  0  0  0  0  0  0
    6.0565   45.7357   51.2157 C   0  0  0  0  0  0  0  0  0  0  0  0
    5.9659   44.6388   50.4054 N   0  0  0  0  0  0  0  0  0  0  0  0
    7.2841   46.2374   51.5274 N   0  0  0  0  0  0  0  0  0  0  0  0
    7.0739   44.0582   49.9219 C   0  0  0  0  0  0  0  0  0  0  0  0
    8.4116   45.6765   51.0568 C   0  0  0  0  0  0  0  0  0  0  0  0
    8.3125   44.5802   50.2482 C   0  0  0  0  0  0  0  0  0  0  0  0
    9.7163   45.9272   51.1861 N   0  0  0  0  0  0  0  0  0  0  0  0
    9.5493   44.2005   49.9128 N   0  0  0  0  0  0  0  0  0  0  0  0
   10.4612   45.0434   50.4948 C   0  0  0  0  0  3  0  0  0  0  0  0
    7.0903   42.8744   49.1332 N   0  0  0  0  0  0  0  0  0  0  0  0
    5.9119   42.1134   48.8552 C   0  0  0  0  0  0  0  0  0  0  0  0
    5.8012   41.6435   47.5341 C   0  0  0  0  0  3  0  0  0  0  0  0
    4.9506   41.8337   49.7984 C   0  0  0  0  0  3  0  0  0  0  0  0
    4.7089   40.8925   47.1807 C   0  0  0  0  0  3  0  0  0  0  0  0
    3.8736   41.0765   49.3944 C   0  0  0  0  0  3  0  0  0  0  0  0
    3.7126   40.6017   48.1471 C   0  0  0  0  0  3  0  0  0  0  0  0
  1  7  1  0
  1  6  1  0
  2  1  1  0
  3  2  1  0
  3  4  1  0
  4  5  1  0
  5  6  1  0
  5  9  1  0
  7  8  1  0
  9 10  2  0
 10 12  1  0
 11  9  1  0
 11 13  2  0
 12 18  1  0
 13 14  1  0
 14 12  2  0
 14 16  1  0
 15 13  1  0
 15 17  2  0
 17 16  1  0
 18 19  1  0
 19 21  2  0
 20 22  2  0
 20 19  1  0
 21 23  1  0
 22 24  1  0
 24 23  2  0
M  RAD  8   1   2   2   3   3   3   4   3   6   3   7   3  17   2  20   2
M  RAD  4  21   2  22   2  23   2  24   2
M  END
>  <REMARK>  (1) 
 SMILES OCC1CCCN(c2nc(Nc3ccccc3)c3[nH]cnc3n2)C1
 SMILES IDX 3 1 4 2 5 3 6 4 7 5 24 6 2 7 1 8 8 10 9 11 23 12 10 13 22 14
 SMILES IDX 18 15 21 16 19 17 20 18 11 20 12 22 13 23 17 24 14 25 16 26
 SMILES IDX 15 27
 H PARENT 1 9 19 19 11 21

>  <TORSDO>  (1) 
F 5

$$$$
