/home/pchatterjee/Documents/git/vs_workflow/DiffDock/diffdock_run/pdbqt_scrubbed/Z2610310359.pdbqt
     RDKit          3D

 24 27  0  0  1  0  0  0  0  0999 V2000
    8.4909   47.8015   53.3947 C   0  0  0  0  0  3  0  0  0  0  0  0
    9.3714   48.0145   52.1836 C   0  0  0  0  0  2  0  0  0  0  0  0
   10.5803   47.0719   52.1925 C   0  0  0  0  0  2  0  0  0  0  0  0
   10.0613   45.6267   52.1524 C   0  0  0  0  0  2  0  0  0  0  0  0
    8.6438   45.6179   52.4735 N   0  0  0  0  0  0  0  0  0  0  0  0
    8.1793   46.3287   53.6516 C   0  0  0  0  0  2  0  0  0  0  0  0
    8.9615   48.5367   54.6200 C   0  0  0  0  0  2  0  0  0  0  0  0
    8.0084   48.5578   55.6411 O   0  0  0  0  0  0  0  0  0  0  0  0
    7.7865   44.9368   51.5763 C   0  0  0  0  0  0  0  0  0  0  0  0
    6.4270   44.9121   51.7148 N   0  0  0  0  0  0  0  0  0  0  0  0
    8.3643   44.2824   50.5305 N   0  0  0  0  0  0  0  0  0  0  0  0
    5.6664   44.2485   50.8317 C   0  0  0  0  0  0  0  0  0  0  0  0
    7.6270   43.6098   49.6299 C   0  0  0  0  0  0  0  0  0  0  0  0
    6.2692   43.5894   49.7756 C   0  0  0  0  0  0  0  0  0  0  0  0
    7.8953   42.8900   48.5382 N   0  0  0  0  0  0  0  0  0  0  0  0
    5.7568   42.8641   48.7767 N   0  0  0  0  0  0  0  0  0  0  0  0
    6.7710   42.4097   47.9732 C   0  0  0  0  0  3  0  0  0  0  0  0
    4.2546   44.1017   50.9273 N   0  0  0  0  0  0  0  0  0  0  0  0
    3.4745   44.7588   51.9295 C   0  0  0  0  0  0  0  0  0  0  0  0
    2.8563   45.9535   51.5183 C   0  0  0  0  0  3  0  0  0  0  0  0
    3.3114   44.2693   53.2046 C   0  0  0  0  0  3  0  0  0  0  0  0
    2.0767   46.6447   52.4108 C   0  0  0  0  0  3  0  0  0  0  0  0
    2.5198   44.9995   54.0629 C   0  0  0  0  0  3  0  0  0  0  0  0
    1.9056   46.1474   53.7279 C   0  0  0  0  0  3  0  0  0  0  0  0
  1  7  1  0
  1  6  1  0
  2  1  1  0
  3  2  1  0
  3  4  1  0
  4  5  1  0
  5  6  1  0
  5  9  1  0
  7  8  1  0
  9 10  2  0
 10 12  1  0
 11  9  1  0
 11 13  2  0
 12 18  1  0
 13 14  1  0
 14 12  2  0
 14 16  1  0
 15 13  1  0
 15 17  2  0
 17 16  1  0
 18 19  1  0
 19 21  2  0
 20 22  2  0
 20 19  1  0
 21 23  1  0
 22 24  1  0
 24 23  2  0
M  RAD  8   1   2   2   3   3   3   4   3   6   3   7   3  17   2  20   2
M  RAD  4  21   2  22   2  23   2  24   2
M  END
>  <REMARK>  (1) 
 SMILES OCC1CCCN(c2nc(Nc3ccccc3)c3[nH]cnc3n2)C1
 SMILES IDX 3 1 4 2 5 3 6 4 7 5 24 6 2 7 1 8 8 10 9 11 23 12 10 13 22 14
 SMILES IDX 18 15 21 16 19 17 20 18 11 20 12 22 13 23 17 24 14 25 16 26
 SMILES IDX 15 27
 H PARENT 1 9 19 19 11 21

>  <TORSDO>  (1) 
F 5

$$$$
