/home/pchatterjee/Documents/git/vs_workflow/DiffDock/diffdock_run/pdbqt_scrubbed/Z2610310359.pdbqt
     RDKit          3D

 24 27  0  0  1  0  0  0  0  0999 V2000
    2.5612   44.9262   52.3694 C   0  0  0  0  0  3  0  0  0  0  0  0
    2.6581   46.3175   51.7842 C   0  0  0  0  0  2  0  0  0  0  0  0
    3.3003   47.3003   52.7700 C   0  0  0  0  0  2  0  0  0  0  0  0
    4.7254   46.8133   53.0722 C   0  0  0  0  0  2  0  0  0  0  0  0
    4.8663   45.4376   52.6251 N   0  0  0  0  0  0  0  0  0  0  0  0
    3.8651   44.4599   53.0134 C   0  0  0  0  0  2  0  0  0  0  0  0
    1.3545   44.7219   53.2442 C   0  0  0  0  0  2  0  0  0  0  0  0
    1.1882   43.3924   53.6396 O   0  0  0  0  0  0  0  0  0  0  0  0
    5.9710   45.1437   51.7903 C   0  0  0  0  0  0  0  0  0  0  0  0
    5.9279   44.2076   50.7953 N   0  0  0  0  0  0  0  0  0  0  0  0
    7.1223   45.8398   52.0043 N   0  0  0  0  0  0  0  0  0  0  0  0
    7.0086   43.9730   50.0365 C   0  0  0  0  0  0  0  0  0  0  0  0
    8.2205   45.6260   51.2591 C   0  0  0  0  0  0  0  0  0  0  0  0
    8.1695   44.6885   50.2672 C   0  0  0  0  0  0  0  0  0  0  0  0
    9.4568   46.1288   51.2332 N   0  0  0  0  0  0  0  0  0  0  0  0
    9.3661   44.6497   49.6729 N   0  0  0  0  0  0  0  0  0  0  0  0
   10.2028   45.5591   50.2674 C   0  0  0  0  0  3  0  0  0  0  0  0
    7.0889   42.9729   49.0279 N   0  0  0  0  0  0  0  0  0  0  0  0
    5.9574   42.2072   48.6056 C   0  0  0  0  0  0  0  0  0  0  0  0
    5.0158   41.9266   49.6122 C   0  0  0  0  0  3  0  0  0  0  0  0
    5.7723   41.7793   47.3116 C   0  0  0  0  0  3  0  0  0  0  0  0
    3.8910   41.2083   49.2945 C   0  0  0  0  0  3  0  0  0  0  0  0
    4.6278   41.0619   47.0432 C   0  0  0  0  0  3  0  0  0  0  0  0
    3.6944   40.7618   47.9628 C   0  0  0  0  0  3  0  0  0  0  0  0
  1  7  1  0
  1  6  1  0
  2  1  1  0
  3  2  1  0
  3  4  1  0
  4  5  1  0
  5  6  1  0
  5  9  1  0
  7  8  1  0
  9 10  2  0
 10 12  1  0
 11  9  1  0
 11 13  2  0
 12 18  1  0
 13 14  1  0
 14 12  2  0
 14 16  1  0
 15 13  1  0
 15 17  2  0
 17 16  1  0
 18 19  1  0
 19 21  2  0
 20 22  2  0
 20 19  1  0
 21 23  1  0
 22 24  1  0
 24 23  2  0
M  RAD  8   1   2   2   3   3   3   4   3   6   3   7   3  17   2  20   2
M  RAD  4  21   2  22   2  23   2  24   2
M  END
>  <REMARK>  (1) 
 SMILES OCC1CCCN(c2nc(Nc3ccccc3)c3[nH]cnc3n2)C1
 SMILES IDX 3 1 4 2 5 3 6 4 7 5 24 6 2 7 1 8 8 10 9 11 23 12 10 13 22 14
 SMILES IDX 18 15 21 16 19 17 20 18 11 20 12 22 13 23 17 24 14 25 16 26
 SMILES IDX 15 27
 H PARENT 1 9 19 19 11 21

>  <TORSDO>  (1) 
F 5

$$$$
