/home/pchatterjee/Documents/git/vs_workflow/DiffDock/diffdock_run/pdbqt_scrubbed/Z2610310359.pdbqt
     RDKit          3D

 24 27  0  0  1  0  0  0  0  0999 V2000
    2.5678   44.9207   52.1646 C   0  0  0  0  0  3  0  0  0  0  0  0
    2.7515   46.3050   51.5837 C   0  0  0  0  0  2  0  0  0  0  0  0
    3.3666   47.2682   52.6054 C   0  0  0  0  0  2  0  0  0  0  0  0
    4.7514   46.7312   52.9970 C   0  0  0  0  0  2  0  0  0  0  0  0
    4.8696   45.3493   52.5624 N   0  0  0  0  0  0  0  0  0  0  0  0
    3.8112   44.4103   52.8896 C   0  0  0  0  0  2  0  0  0  0  0  0
    1.3023   44.7642   52.9629 C   0  0  0  0  0  2  0  0  0  0  0  0
    1.2138   43.5266   53.6048 O   0  0  0  0  0  0  0  0  0  0  0  0
    6.0126   45.0119   51.7988 C   0  0  0  0  0  0  0  0  0  0  0  0
    6.0174   44.0199   50.8585 N   0  0  0  0  0  0  0  0  0  0  0  0
    7.1519   45.7234   52.0261 N   0  0  0  0  0  0  0  0  0  0  0  0
    7.1328   43.7460   50.1661 C   0  0  0  0  0  0  0  0  0  0  0  0
    8.2842   45.4711   51.3467 C   0  0  0  0  0  0  0  0  0  0  0  0
    8.2809   44.4779   50.4093 C   0  0  0  0  0  0  0  0  0  0  0  0
    9.5199   45.9761   51.3499 N   0  0  0  0  0  0  0  0  0  0  0  0
    9.5041   44.4093   49.8750 N   0  0  0  0  0  0  0  0  0  0  0  0
   10.3111   45.3545   50.4548 C   0  0  0  0  0  3  0  0  0  0  0  0
    7.2614   42.6898   49.2217 N   0  0  0  0  0  0  0  0  0  0  0  0
    6.1419   41.9409   48.7411 C   0  0  0  0  0  0  0  0  0  0  0  0
    5.0888   41.7833   49.6602 C   0  0  0  0  0  3  0  0  0  0  0  0
    6.0695   41.4172   47.4713 C   0  0  0  0  0  3  0  0  0  0  0  0
    3.9677   41.0899   49.2803 C   0  0  0  0  0  3  0  0  0  0  0  0
    4.9238   40.7295   47.1382 C   0  0  0  0  0  3  0  0  0  0  0  0
    3.8867   40.5451   47.9734 C   0  0  0  0  0  3  0  0  0  0  0  0
  1  7  1  0
  1  6  1  0
  2  1  1  0
  3  2  1  0
  3  4  1  0
  4  5  1  0
  5  6  1  0
  5  9  1  0
  7  8  1  0
  9 10  2  0
 10 12  1  0
 11  9  1  0
 11 13  2  0
 12 18  1  0
 13 14  1  0
 14 12  2  0
 14 16  1  0
 15 13  1  0
 15 17  2  0
 17 16  1  0
 18 19  1  0
 19 21  2  0
 20 22  2  0
 20 19  1  0
 21 23  1  0
 22 24  1  0
 24 23  2  0
M  RAD  8   1   2   2   3   3   3   4   3   6   3   7   3  17   2  20   2
M  RAD  4  21   2  22   2  23   2  24   2
M  END
>  <REMARK>  (1) 
 SMILES OCC1CCCN(c2nc(Nc3ccccc3)c3[nH]cnc3n2)C1
 SMILES IDX 3 1 4 2 5 3 6 4 7 5 24 6 2 7 1 8 8 10 9 11 23 12 10 13 22 14
 SMILES IDX 18 15 21 16 19 17 20 18 11 20 12 22 13 23 17 24 14 25 16 26
 SMILES IDX 15 27
 H PARENT 1 9 19 19 11 21

>  <TORSDO>  (1) 
F 5

$$$$
