/home/pchatterjee/Documents/git/vs_workflow/DiffDock/diffdock_run/pdbqt_scrubbed/Z2610310359.pdbqt
     RDKit          3D

 24 27  0  0  1  0  0  0  0  0999 V2000
    2.4404   44.9583   52.3853 C   0  0  0  0  0  3  0  0  0  0  0  0
    2.5645   46.3412   51.7855 C   0  0  0  0  0  2  0  0  0  0  0  0
    3.1903   47.3309   52.7749 C   0  0  0  0  0  2  0  0  0  0  0  0
    4.6030   46.8355   53.1192 C   0  0  0  0  0  2  0  0  0  0  0  0
    4.7427   45.4531   52.6929 N   0  0  0  0  0  0  0  0  0  0  0  0
    3.7234   44.4890   53.0678 C   0  0  0  0  0  2  0  0  0  0  0  0
    1.2102   44.7756   53.2317 C   0  0  0  0  0  2  0  0  0  0  0  0
    0.9870   43.4429   53.5861 O   0  0  0  0  0  0  0  0  0  0  0  0
    5.8655   45.1391   51.8902 C   0  0  0  0  0  0  0  0  0  0  0  0
    5.8551   44.1539   50.9429 N   0  0  0  0  0  0  0  0  0  0  0  0
    7.0003   45.8669   52.0858 N   0  0  0  0  0  0  0  0  0  0  0  0
    6.9516   43.9024   50.2126 C   0  0  0  0  0  0  0  0  0  0  0  0
    8.1137   45.6373   51.3683 C   0  0  0  0  0  0  0  0  0  0  0  0
    8.0954   44.6507   50.4240 C   0  0  0  0  0  0  0  0  0  0  0  0
    9.3409   46.1616   51.3353 N   0  0  0  0  0  0  0  0  0  0  0  0
    9.3016   44.6051   49.8499 N   0  0  0  0  0  0  0  0  0  0  0  0
   10.1121   45.5588   50.4103 C   0  0  0  0  0  3  0  0  0  0  0  0
    7.0659   42.8551   49.2566 N   0  0  0  0  0  0  0  0  0  0  0  0
    5.9878   41.9674   48.9488 C   0  0  0  0  0  0  0  0  0  0  0  0
    6.0007   41.4405   47.6446 C   0  0  0  0  0  3  0  0  0  0  0  0
    5.0071   41.6252   49.8504 C   0  0  0  0  0  3  0  0  0  0  0  0
    5.0115   40.5688   47.2657 C   0  0  0  0  0  3  0  0  0  0  0  0
    4.0365   40.7471   49.4221 C   0  0  0  0  0  3  0  0  0  0  0  0
    3.9957   40.2129   48.1892 C   0  0  0  0  0  3  0  0  0  0  0  0
  1  7  1  0
  1  6  1  0
  2  1  1  0
  3  2  1  0
  3  4  1  0
  4  5  1  0
  5  6  1  0
  5  9  1  0
  7  8  1  0
  9 10  2  0
 10 12  1  0
 11  9  1  0
 11 13  2  0
 12 18  1  0
 13 14  1  0
 14 12  2  0
 14 16  1  0
 15 13  1  0
 15 17  2  0
 17 16  1  0
 18 19  1  0
 19 21  2  0
 20 22  2  0
 20 19  1  0
 21 23  1  0
 22 24  1  0
 24 23  2  0
M  RAD  8   1   2   2   3   3   3   4   3   6   3   7   3  17   2  20   2
M  RAD  4  21   2  22   2  23   2  24   2
M  END
>  <REMARK>  (1) 
 SMILES OCC1CCCN(c2nc(Nc3ccccc3)c3[nH]cnc3n2)C1
 SMILES IDX 3 1 4 2 5 3 6 4 7 5 24 6 2 7 1 8 8 10 9 11 23 12 10 13 22 14
 SMILES IDX 18 15 21 16 19 17 20 18 11 20 12 22 13 23 17 24 14 25 16 26
 SMILES IDX 15 27
 H PARENT 1 9 19 19 11 21

>  <TORSDO>  (1) 
F 5

$$$$
