/home/pchatterjee/Documents/git/vs_workflow/DiffDock/diffdock_run/pdbqt_scrubbed/Z2610310359.pdbqt
     RDKit          3D

 24 27  0  0  1  0  0  0  0  0999 V2000
    4.2801   46.4557   54.1636 C   0  0  0  0  0  3  0  0  0  0  0  0
    3.5439   45.1965   53.7636 C   0  0  0  0  0  2  0  0  0  0  0  0
    2.6726   45.4228   52.5228 C   0  0  0  0  0  2  0  0  0  0  0  0
    3.5912   45.8244   51.3590 C   0  0  0  0  0  2  0  0  0  0  0  0
    4.8941   46.1973   51.8841 N   0  0  0  0  0  0  0  0  0  0  0  0
    4.9710   47.1400   52.9861 C   0  0  0  0  0  2  0  0  0  0  0  0
    3.4578   47.3946   55.0036 C   0  0  0  0  0  2  0  0  0  0  0  0
    4.2063   48.4496   55.5310 O   0  0  0  0  0  0  0  0  0  0  0  0
    6.0236   45.5740   51.3014 C   0  0  0  0  0  0  0  0  0  0  0  0
    5.9438   44.4373   50.5467 N   0  0  0  0  0  0  0  0  0  0  0  0
    7.2388   46.1519   51.5137 N   0  0  0  0  0  0  0  0  0  0  0  0
    7.0505   43.8924   50.0206 C   0  0  0  0  0  0  0  0  0  0  0  0
    8.3646   45.6282   50.9984 C   0  0  0  0  0  0  0  0  0  0  0  0
    8.2764   44.4919   50.2459 C   0  0  0  0  0  0  0  0  0  0  0  0
    9.6593   45.9513   51.0349 N   0  0  0  0  0  0  0  0  0  0  0  0
    9.5096   44.1608   49.8507 N   0  0  0  0  0  0  0  0  0  0  0  0
   10.4079   45.0756   50.3375 C   0  0  0  0  0  3  0  0  0  0  0  0
    7.0834   42.6754   49.2845 N   0  0  0  0  0  0  0  0  0  0  0  0
    5.9033   41.9375   48.9563 C   0  0  0  0  0  0  0  0  0  0  0  0
    5.8995   41.3538   47.6765 C   0  0  0  0  0  3  0  0  0  0  0  0
    4.8430   41.7814   49.8185 C   0  0  0  0  0  3  0  0  0  0  0  0
    4.8128   40.6156   47.2814 C   0  0  0  0  0  3  0  0  0  0  0  0
    3.7761   41.0319   49.3753 C   0  0  0  0  0  3  0  0  0  0  0  0
    3.7148   40.4520   48.1640 C   0  0  0  0  0  3  0  0  0  0  0  0
  1  7  1  0
  1  6  1  0
  2  1  1  0
  3  2  1  0
  3  4  1  0
  4  5  1  0
  5  6  1  0
  5  9  1  0
  7  8  1  0
  9 10  2  0
 10 12  1  0
 11  9  1  0
 11 13  2  0
 12 18  1  0
 13 14  1  0
 14 12  2  0
 14 16  1  0
 15 13  1  0
 15 17  2  0
 17 16  1  0
 18 19  1  0
 19 21  2  0
 20 22  2  0
 20 19  1  0
 21 23  1  0
 22 24  1  0
 24 23  2  0
M  RAD  8   1   2   2   3   3   3   4   3   6   3   7   3  17   2  20   2
M  RAD  4  21   2  22   2  23   2  24   2
M  END
>  <REMARK>  (1) 
 SMILES OCC1CCCN(c2nc(Nc3ccccc3)c3[nH]cnc3n2)C1
 SMILES IDX 3 1 4 2 5 3 6 4 7 5 24 6 2 7 1 8 8 10 9 11 23 12 10 13 22 14
 SMILES IDX 18 15 21 16 19 17 20 18 11 20 12 22 13 23 17 24 14 25 16 26
 SMILES IDX 15 27
 H PARENT 1 9 19 19 11 21

>  <TORSDO>  (1) 
F 5

$$$$
