/home/pchatterjee/Documents/git/vs_workflow/DiffDock/diffdock_run/pdbqt_scrubbed/Z2610310359.pdbqt
     RDKit          3D

 24 27  0  0  1  0  0  0  0  0999 V2000
    2.3447   45.1426   52.2430 C   0  0  0  0  0  3  0  0  0  0  0  0
    2.4940   46.5178   51.6314 C   0  0  0  0  0  2  0  0  0  0  0  0
    3.1149   47.5105   52.6207 C   0  0  0  0  0  2  0  0  0  0  0  0
    4.5162   47.0030   52.9929 C   0  0  0  0  0  2  0  0  0  0  0  0
    4.6472   45.6148   52.5830 N   0  0  0  0  0  0  0  0  0  0  0  0
    3.6111   44.6661   52.9510 C   0  0  0  0  0  2  0  0  0  0  0  0
    1.0990   44.9823   53.0711 C   0  0  0  0  0  2  0  0  0  0  0  0
    0.9869   43.7134   53.6447 O   0  0  0  0  0  0  0  0  0  0  0  0
    5.7791   45.2801   51.8018 C   0  0  0  0  0  0  0  0  0  0  0  0
    5.7699   44.2923   50.8571 N   0  0  0  0  0  0  0  0  0  0  0  0
    6.9219   45.9899   52.0161 N   0  0  0  0  0  0  0  0  0  0  0  0
    6.8752   44.0208   50.1478 C   0  0  0  0  0  0  0  0  0  0  0  0
    8.0443   45.7399   51.3198 C   0  0  0  0  0  0  0  0  0  0  0  0
    8.0271   44.7509   50.3780 C   0  0  0  0  0  0  0  0  0  0  0  0
    9.2803   46.2442   51.3077 N   0  0  0  0  0  0  0  0  0  0  0  0
    9.2427   44.6840   49.8262 N   0  0  0  0  0  0  0  0  0  0  0  0
   10.0584   45.6261   50.3987 C   0  0  0  0  0  3  0  0  0  0  0  0
    6.9898   42.9688   49.1969 N   0  0  0  0  0  0  0  0  0  0  0  0
    5.8823   42.1507   48.8109 C   0  0  0  0  0  0  0  0  0  0  0  0
    5.9734   41.5889   47.5246 C   0  0  0  0  0  3  0  0  0  0  0  0
    4.8029   41.9026   49.6266 C   0  0  0  0  0  3  0  0  0  0  0  0
    4.9616   40.7786   47.0755 C   0  0  0  0  0  3  0  0  0  0  0  0
    3.8136   41.0833   49.1302 C   0  0  0  0  0  3  0  0  0  0  0  0
    3.8445   40.5199   47.9100 C   0  0  0  0  0  3  0  0  0  0  0  0
  1  7  1  0
  1  6  1  0
  2  1  1  0
  3  2  1  0
  3  4  1  0
  4  5  1  0
  5  6  1  0
  5  9  1  0
  7  8  1  0
  9 10  2  0
 10 12  1  0
 11  9  1  0
 11 13  2  0
 12 18  1  0
 13 14  1  0
 14 12  2  0
 14 16  1  0
 15 13  1  0
 15 17  2  0
 17 16  1  0
 18 19  1  0
 19 21  2  0
 20 22  2  0
 20 19  1  0
 21 23  1  0
 22 24  1  0
 24 23  2  0
M  RAD  8   1   2   2   3   3   3   4   3   6   3   7   3  17   2  20   2
M  RAD  4  21   2  22   2  23   2  24   2
M  END
>  <REMARK>  (1) 
 SMILES OCC1CCCN(c2nc(Nc3ccccc3)c3[nH]cnc3n2)C1
 SMILES IDX 3 1 4 2 5 3 6 4 7 5 24 6 2 7 1 8 8 10 9 11 23 12 10 13 22 14
 SMILES IDX 18 15 21 16 19 17 20 18 11 20 12 22 13 23 17 24 14 25 16 26
 SMILES IDX 15 27
 H PARENT 1 9 19 19 11 21

>  <TORSDO>  (1) 
F 5

$$$$
