/home/pchatterjee/Documents/git/vs_workflow/DiffDock/diffdock_run/pdbqt_scrubbed/Z2610310359.pdbqt
     RDKit          3D

 24 27  0  0  1  0  0  0  0  0999 V2000
   10.1527   47.4147   54.7171 C   0  0  0  0  0  3  0  0  0  0  0  0
    8.7910   47.4078   55.3752 C   0  0  0  0  0  2  0  0  0  0  0  0
    7.9258   48.5779   54.8932 C   0  0  0  0  0  2  0  0  0  0  0  0
    7.7204   48.4297   53.3782 C   0  0  0  0  0  2  0  0  0  0  0  0
    8.6769   47.4674   52.8572 N   0  0  0  0  0  0  0  0  0  0  0  0
   10.0805   47.6043   53.2034 C   0  0  0  0  0  2  0  0  0  0  0  0
   11.1430   48.3267   55.3885 C   0  0  0  0  0  2  0  0  0  0  0  0
   12.4181   48.2561   54.8221 O   0  0  0  0  0  0  0  0  0  0  0  0
    8.1613   46.4152   52.0629 C   0  0  0  0  0  0  0  0  0  0  0  0
    6.8570   46.0101   52.1140 N   0  0  0  0  0  0  0  0  0  0  0  0
    9.0227   45.7909   51.2120 N   0  0  0  0  0  0  0  0  0  0  0  0
    6.4269   45.0058   51.3362 C   0  0  0  0  0  0  0  0  0  0  0  0
    8.6195   44.7819   50.4205 C   0  0  0  0  0  0  0  0  0  0  0  0
    7.3146   44.3826   50.4779 C   0  0  0  0  0  0  0  0  0  0  0  0
    9.2101   43.9957   49.5178 N   0  0  0  0  0  0  0  0  0  0  0  0
    7.1523   43.3743   49.6157 N   0  0  0  0  0  0  0  0  0  0  0  0
    8.3435   43.1104   48.9896 C   0  0  0  0  0  3  0  0  0  0  0  0
    5.1123   44.4629   51.3668 N   0  0  0  0  0  0  0  0  0  0  0  0
    4.0854   44.9703   52.2230 C   0  0  0  0  0  0  0  0  0  0  0  0
    3.2238   45.9114   51.6309 C   0  0  0  0  0  3  0  0  0  0  0  0
    3.9212   44.5702   53.5287 C   0  0  0  0  0  3  0  0  0  0  0  0
    2.2003   46.4418   52.3745 C   0  0  0  0  0  3  0  0  0  0  0  0
    2.8796   45.1317   54.2331 C   0  0  0  0  0  3  0  0  0  0  0  0
    2.0260   46.0358   53.7222 C   0  0  0  0  0  3  0  0  0  0  0  0
  1  7  1  0
  1  6  1  0
  2  1  1  0
  3  2  1  0
  3  4  1  0
  4  5  1  0
  5  6  1  0
  5  9  1  0
  7  8  1  0
  9 10  2  0
 10 12  1  0
 11  9  1  0
 11 13  2  0
 12 18  1  0
 13 14  1  0
 14 12  2  0
 14 16  1  0
 15 13  1  0
 15 17  2  0
 17 16  1  0
 18 19  1  0
 19 21  2  0
 20 22  2  0
 20 19  1  0
 21 23  1  0
 22 24  1  0
 24 23  2  0
M  RAD  8   1   2   2   3   3   3   4   3   6   3   7   3  17   2  20   2
M  RAD  4  21   2  22   2  23   2  24   2
M  END
>  <REMARK>  (1) 
 SMILES OCC1CCCN(c2nc(Nc3ccccc3)c3[nH]cnc3n2)C1
 SMILES IDX 3 1 4 2 5 3 6 4 7 5 24 6 2 7 1 8 8 10 9 11 23 12 10 13 22 14
 SMILES IDX 18 15 21 16 19 17 20 18 11 20 12 22 13 23 17 24 14 25 16 26
 SMILES IDX 15 27
 H PARENT 1 9 19 19 11 21

>  <TORSDO>  (1) 
F 5

$$$$
