/home/pchatterjee/Documents/git/vs_workflow/DiffDock/diffdock_run/pdbqt_scrubbed/Z1381816014.pdbqt
     RDKit          3D

 24 26  0  0  1  0  0  0  0  0999 V2000
    4.9269   41.1270   47.9753 C   0  0  0  0  0  3  0  0  0  0  0  0
    5.9705   41.7594   48.7573 N   0  0  0  0  0  0  0  0  0  0  0  0
    5.7995   42.9659   49.4735 C   0  0  0  0  0  0  0  0  0  0  0  0
    4.6641   43.4701   49.7309 O   0  0  0  0  0  0  0  0  0  0  0  0
    6.9690   43.6857   49.9510 C   0  0  0  0  0  0  0  0  0  0  0  0
    8.2540   43.5413   49.5802 N   0  0  0  0  0  0  0  0  0  0  0  0
    6.9903   44.6680   50.8877 N   0  0  0  0  0  0  0  0  0  0  0  0
    9.0061   44.3857   50.2524 O   0  0  0  0  0  0  0  0  0  0  0  0
    8.2501   45.0939   51.0675 C   0  0  0  0  0  0  0  0  0  0  0  0
    8.7031   46.1333   51.9807 C   0  0  0  0  0  0  0  0  0  0  0  0
    7.8354   46.8485   52.7429 C   0  0  0  0  0  3  0  0  0  0  0  0
   10.0540   46.4019   52.0768 C   0  0  0  0  0  3  0  0  0  0  0  0
    8.3728   47.8147   53.5787 C   0  0  0  0  0  3  0  0  0  0  0  0
   10.5878   47.3320   52.8794 N   0  0  0  0  0  0  0  0  0  0  0  0
    9.7321   48.0416   53.6350 C   0  0  0  0  0  3  0  0  0  0  0  0
    3.6690   41.0710   48.8187 C   0  0  0  0  0  2  0  0  0  0  0  0
    3.1817   39.6416   48.9115 C   0  0  0  0  0  2  0  0  0  0  0  0
    2.1138   39.5179   49.7912 O   0  0  0  0  0  0  0  0  0  0  0  0
    4.5937   41.9284   46.7376 C   0  0  0  0  0  3  0  0  0  0  0  0
    4.7017   41.1369   45.4762 C   0  0  0  0  0  2  0  0  0  0  0  0
    3.3599   42.7583   46.8653 C   0  0  0  0  0  2  0  0  0  0  0  0
    3.3698   40.9697   44.7820 C   0  0  0  0  0  2  0  0  0  0  0  0
    2.0822   42.0275   46.5693 C   0  0  0  0  0  2  0  0  0  0  0  0
    2.3326   40.7096   45.8521 C   0  0  0  0  0  2  0  0  0  0  0  0
  1 16  1  0
  1  2  1  0
  2  3  1  0
  3  5  1  0
  3  4  2  0
  5  6  2  0
  7  9  2  0
  7  5  1  0
  8  6  1  0
  9  8  1  0
 10 12  1  0
 10  9  1  0
 11 10  2  0
 13 11  1  0
 13 15  2  0
 14 12  2  0
 15 14  1  0
 17 18  1  0
 17 16  1  0
 19  1  1  0
 20 19  1  0
 21 19  1  0
 22 20  1  0
 23 24  1  0
 23 21  1  0
 24 22  1  0
M  RAD  8   1   2  11   2  12   2  13   2  15   2  16   3  17   3  19   2
M  RAD  5  20   3  21   3  22   3  23   3  24   3
M  END
>  <REMARK>  (1) 
 SMILES O=C(NC(CCO)C1CCCCC1)c1noc(-c2cccnc2)n1
 SMILES IDX 4 1 3 2 2 3 1 4 14 6 15 7 24 8 16 9 17 10 18 11 19 12 23 13
 SMILES IDX 20 14 22 15 21 16 5 17 6 18 7 19 8 21 9 22 13 23 10 24 12 25
 SMILES IDX 11 26
 H PARENT 3 5 7 20

>  <TORSDO>  (1) 
F 7

$$$$
