/home/pchatterjee/Documents/git/vs_workflow/DiffDock/diffdock_run/pdbqt_scrubbed/Z1381816014.pdbqt
     RDKit          3D

 24 26  0  0  1  0  0  0  0  0999 V2000
    5.0766   43.4199   49.7296 C   0  0  0  0  0  3  0  0  0  0  0  0
    6.0717   44.1153   50.5213 N   0  0  0  0  0  0  0  0  0  0  0  0
    7.4399   44.1963   50.1763 C   0  0  0  0  0  0  0  0  0  0  0  0
    7.9538   43.5619   49.2052 O   0  0  0  0  0  0  0  0  0  0  0  0
    8.3256   45.0434   50.9586 C   0  0  0  0  0  0  0  0  0  0  0  0
    9.6675   45.1245   50.9132 N   0  0  0  0  0  0  0  0  0  0  0  0
    7.9595   45.9392   51.9106 N   0  0  0  0  0  0  0  0  0  0  0  0
   10.0867   46.0157   51.7854 O   0  0  0  0  0  0  0  0  0  0  0  0
    9.0513   46.5341   52.4152 C   0  0  0  0  0  0  0  0  0  0  0  0
    9.0944   47.5531   53.4541 C   0  0  0  0  0  0  0  0  0  0  0  0
    7.9692   48.1620   53.9107 C   0  0  0  0  0  3  0  0  0  0  0  0
   10.3138   47.9129   53.9928 C   0  0  0  0  0  3  0  0  0  0  0  0
    8.1232   49.1183   54.9020 C   0  0  0  0  0  3  0  0  0  0  0  0
   10.4781   48.8348   54.9506 N   0  0  0  0  0  0  0  0  0  0  0  0
    9.3667   49.4393   55.4048 C   0  0  0  0  0  3  0  0  0  0  0  0
    5.5637   42.0048   49.4907 C   0  0  0  0  0  2  0  0  0  0  0  0
    4.5586   41.2570   48.6423 C   0  0  0  0  0  2  0  0  0  0  0  0
    4.9055   39.9204   48.4915 O   0  0  0  0  0  0  0  0  0  0  0  0
    3.7565   43.3156   50.4587 C   0  0  0  0  0  3  0  0  0  0  0  0
    3.8977   42.8473   51.8694 C   0  0  0  0  0  2  0  0  0  0  0  0
    2.8611   44.4938   50.2652 C   0  0  0  0  0  2  0  0  0  0  0  0
    3.4832   43.8989   52.8725 C   0  0  0  0  0  2  0  0  0  0  0  0
    3.1283   45.6410   51.1962 C   0  0  0  0  0  2  0  0  0  0  0  0
    4.0011   45.2291   52.3721 C   0  0  0  0  0  2  0  0  0  0  0  0
  1 16  1  0
  1  2  1  0
  2  3  1  0
  3  5  1  0
  3  4  2  0
  5  6  2  0
  7  9  2  0
  7  5  1  0
  8  6  1  0
  9  8  1  0
 10 12  1  0
 10  9  1  0
 11 10  2  0
 13 11  1  0
 13 15  2  0
 14 12  2  0
 15 14  1  0
 17 18  1  0
 17 16  1  0
 19  1  1  0
 20 19  1  0
 21 19  1  0
 22 20  1  0
 23 24  1  0
 23 21  1  0
 24 22  1  0
M  RAD  8   1   2  11   2  12   2  13   2  15   2  16   3  17   3  19   2
M  RAD  5  20   3  21   3  22   3  23   3  24   3
M  END
>  <REMARK>  (1) 
 SMILES O=C(NC(CCO)C1CCCCC1)c1noc(-c2cccnc2)n1
 SMILES IDX 4 1 3 2 2 3 1 4 14 6 15 7 24 8 16 9 17 10 18 11 19 12 23 13
 SMILES IDX 20 14 22 15 21 16 5 17 6 18 7 19 8 21 9 22 13 23 10 24 12 25
 SMILES IDX 11 26
 H PARENT 3 5 7 20

>  <TORSDO>  (1) 
F 7

$$$$
