/home/pchatterjee/Documents/git/vs_workflow/DiffDock/diffdock_run/pdbqt_scrubbed/Z1381816014.pdbqt
     RDKit          3D

 24 26  0  0  1  0  0  0  0  0999 V2000
    5.6992   41.6213   49.0446 C   0  0  0  0  0  3  0  0  0  0  0  0
    5.8621   42.5936   50.1069 N   0  0  0  0  0  0  0  0  0  0  0  0
    6.9802   43.4493   50.2297 C   0  0  0  0  0  0  0  0  0  0  0  0
    8.0342   43.3250   49.5346 O   0  0  0  0  0  0  0  0  0  0  0  0
    6.9462   44.5360   51.1951 C   0  0  0  0  0  0  0  0  0  0  0  0
    5.8765   45.1436   51.7391 N   0  0  0  0  0  0  0  0  0  0  0  0
    8.0155   45.1635   51.7480 N   0  0  0  0  0  0  0  0  0  0  0  0
    6.2757   46.0816   52.5705 O   0  0  0  0  0  0  0  0  0  0  0  0
    7.5932   46.1150   52.5947 C   0  0  0  0  0  0  0  0  0  0  0  0
    8.4195   47.0127   53.3887 C   0  0  0  0  0  0  0  0  0  0  0  0
    7.8786   47.9532   54.2062 C   0  0  0  0  0  3  0  0  0  0  0  0
    9.7940   46.9072   53.3104 C   0  0  0  0  0  3  0  0  0  0  0  0
    8.7562   48.7561   54.9176 C   0  0  0  0  0  3  0  0  0  0  0  0
   10.6543   47.6755   53.9914 N   0  0  0  0  0  0  0  0  0  0  0  0
   10.1224   48.6072   54.8013 C   0  0  0  0  0  3  0  0  0  0  0  0
    4.3771   40.9095   49.2505 C   0  0  0  0  0  2  0  0  0  0  0  0
    4.1263   40.7198   50.7305 C   0  0  0  0  0  2  0  0  0  0  0  0
    2.9135   41.2723   51.1220 O   0  0  0  0  0  0  0  0  0  0  0  0
    5.6380   42.2831   47.6868 C   0  0  0  0  0  3  0  0  0  0  0  0
    6.2172   41.4445   46.5958 C   0  0  0  0  0  2  0  0  0  0  0  0
    4.3203   42.9113   47.3763 C   0  0  0  0  0  2  0  0  0  0  0  0
    5.1827   41.0251   45.5770 C   0  0  0  0  0  2  0  0  0  0  0  0
    3.2970   41.9693   46.8112 C   0  0  0  0  0  2  0  0  0  0  0  0
    3.9228   40.6675   46.3340 C   0  0  0  0  0  2  0  0  0  0  0  0
  1 16  1  0
  1  2  1  0
  2  3  1  0
  3  5  1  0
  3  4  2  0
  5  6  2  0
  7  9  2  0
  7  5  1  0
  8  6  1  0
  9  8  1  0
 10 12  1  0
 10  9  1  0
 11 10  2  0
 13 11  1  0
 13 15  2  0
 14 12  2  0
 15 14  1  0
 17 18  1  0
 17 16  1  0
 19  1  1  0
 20 19  1  0
 21 19  1  0
 22 20  1  0
 23 24  1  0
 23 21  1  0
 24 22  1  0
M  RAD  8   1   2  11   2  12   2  13   2  15   2  16   3  17   3  19   2
M  RAD  5  20   3  21   3  22   3  23   3  24   3
M  END
>  <REMARK>  (1) 
 SMILES O=C(NC(CCO)C1CCCCC1)c1noc(-c2cccnc2)n1
 SMILES IDX 4 1 3 2 2 3 1 4 14 6 15 7 24 8 16 9 17 10 18 11 19 12 23 13
 SMILES IDX 20 14 22 15 21 16 5 17 6 18 7 19 8 21 9 22 13 23 10 24 12 25
 SMILES IDX 11 26
 H PARENT 3 5 7 20

>  <TORSDO>  (1) 
F 7

$$$$
