/home/pchatterjee/Documents/git/vs_workflow/DiffDock/diffdock_run/pdbqt_scrubbed/Z1381816014.pdbqt
     RDKit          3D

 24 26  0  0  1  0  0  0  0  0999 V2000
    7.3566   47.4845   53.4764 C   0  0  0  0  0  3  0  0  0  0  0  0
    7.4959   46.3335   52.6067 N   0  0  0  0  0  0  0  0  0  0  0  0
    6.4616   45.8382   51.7806 C   0  0  0  0  0  0  0  0  0  0  0  0
    5.2670   46.2628   51.8271 O   0  0  0  0  0  0  0  0  0  0  0  0
    6.7555   44.7876   50.8193 C   0  0  0  0  0  0  0  0  0  0  0  0
    7.9511   44.3913   50.3470 N   0  0  0  0  0  0  0  0  0  0  0  0
    5.8566   43.9832   50.1968 N   0  0  0  0  0  0  0  0  0  0  0  0
    7.7842   43.4067   49.4907 O   0  0  0  0  0  0  0  0  0  0  0  0
    6.4992   43.1348   49.3795 C   0  0  0  0  0  0  0  0  0  0  0  0
    5.9035   42.1117   48.5323 C   0  0  0  0  0  0  0  0  0  0  0  0
    4.6231   41.6917   48.7048 C   0  0  0  0  0  3  0  0  0  0  0  0
    6.6600   41.5500   47.5231 C   0  0  0  0  0  3  0  0  0  0  0  0
    4.1551   40.7125   47.8428 C   0  0  0  0  0  3  0  0  0  0  0  0
    6.2217   40.6035   46.6827 N   0  0  0  0  0  0  0  0  0  0  0  0
    4.9552   40.1856   46.8506 C   0  0  0  0  0  3  0  0  0  0  0  0
    7.2072   46.9885   54.9007 C   0  0  0  0  0  2  0  0  0  0  0  0
    5.7895   46.5107   55.1271 C   0  0  0  0  0  2  0  0  0  0  0  0
    5.6192   45.9913   56.4041 O   0  0  0  0  0  0  0  0  0  0  0  0
    8.5866   48.3627   53.4411 C   0  0  0  0  0  3  0  0  0  0  0  0
    8.7462   49.2027   54.6650 C   0  0  0  0  0  2  0  0  0  0  0  0
    9.8218   47.6599   52.9852 C   0  0  0  0  0  2  0  0  0  0  0  0
    9.9791   48.8391   55.4598 C   0  0  0  0  0  2  0  0  0  0  0  0
   10.5518   46.9158   54.0656 C   0  0  0  0  0  2  0  0  0  0  0  0
   10.0908   47.3306   55.4547 C   0  0  0  0  0  2  0  0  0  0  0  0
  1 16  1  0
  1  2  1  0
  2  3  1  0
  3  5  1  0
  3  4  2  0
  5  6  2  0
  7  9  2  0
  7  5  1  0
  8  6  1  0
  9  8  1  0
 10 12  1  0
 10  9  1  0
 11 10  2  0
 13 11  1  0
 13 15  2  0
 14 12  2  0
 15 14  1  0
 17 18  1  0
 17 16  1  0
 19  1  1  0
 20 19  1  0
 21 19  1  0
 22 20  1  0
 23 24  1  0
 23 21  1  0
 24 22  1  0
M  RAD  8   1   2  11   2  12   2  13   2  15   2  16   3  17   3  19   2
M  RAD  5  20   3  21   3  22   3  23   3  24   3
M  END
>  <REMARK>  (1) 
 SMILES O=C(NC(CCO)C1CCCCC1)c1noc(-c2cccnc2)n1
 SMILES IDX 4 1 3 2 2 3 1 4 14 6 15 7 24 8 16 9 17 10 18 11 19 12 23 13
 SMILES IDX 20 14 22 15 21 16 5 17 6 18 7 19 8 21 9 22 13 23 10 24 12 25
 SMILES IDX 11 26
 H PARENT 3 5 7 20

>  <TORSDO>  (1) 
F 7

$$$$
