/home/pchatterjee/Documents/git/vs_workflow/DiffDock/diffdock_run/pdbqt_scrubbed/Z1381816014.pdbqt
     RDKit          3D

 24 26  0  0  1  0  0  0  0  0999 V2000
    4.8752   41.0728   48.4723 C   0  0  0  0  0  3  0  0  0  0  0  0
    6.0393   41.7747   48.9748 N   0  0  0  0  0  0  0  0  0  0  0  0
    5.9872   43.0341   49.6142 C   0  0  0  0  0  0  0  0  0  0  0  0
    4.9055   43.6555   49.8454 O   0  0  0  0  0  0  0  0  0  0  0  0
    7.2228   43.6721   50.0387 C   0  0  0  0  0  0  0  0  0  0  0  0
    8.4842   43.3944   49.6628 N   0  0  0  0  0  0  0  0  0  0  0  0
    7.3450   44.6980   50.9192 N   0  0  0  0  0  0  0  0  0  0  0  0
    9.3180   44.2038   50.2793 O   0  0  0  0  0  0  0  0  0  0  0  0
    8.6400   45.0195   51.0618 C   0  0  0  0  0  0  0  0  0  0  0  0
    9.1968   46.0625   51.9112 C   0  0  0  0  0  0  0  0  0  0  0  0
   10.5368   46.2423   52.0438 C   0  0  0  0  0  3  0  0  0  0  0  0
    8.3398   46.8949   52.6034 C   0  0  0  0  0  3  0  0  0  0  0  0
   10.9601   47.2650   52.8780 C   0  0  0  0  0  3  0  0  0  0  0  0
    8.7340   47.8868   53.4127 N   0  0  0  0  0  0  0  0  0  0  0  0
   10.0593   48.0675   53.5462 C   0  0  0  0  0  3  0  0  0  0  0  0
    3.8090   41.0891   49.5492 C   0  0  0  0  0  2  0  0  0  0  0  0
    2.7961   39.9979   49.2793 C   0  0  0  0  0  2  0  0  0  0  0  0
    1.7885   39.9830   50.2352 O   0  0  0  0  0  0  0  0  0  0  0  0
    4.2893   41.7601   47.2600 C   0  0  0  0  0  3  0  0  0  0  0  0
    5.1508   41.6488   46.0457 C   0  0  0  0  0  2  0  0  0  0  0  0
    2.8406   41.4757   47.0416 C   0  0  0  0  0  2  0  0  0  0  0  0
    4.4967   40.8480   44.9435 C   0  0  0  0  0  2  0  0  0  0  0  0
    2.5596   40.2078   46.2883 C   0  0  0  0  0  2  0  0  0  0  0  0
    3.8013   39.6716   45.5920 C   0  0  0  0  0  2  0  0  0  0  0  0
  1 16  1  0
  1  2  1  0
  2  3  1  0
  3  5  1  0
  3  4  2  0
  5  6  2  0
  7  9  2  0
  7  5  1  0
  8  6  1  0
  9  8  1  0
 10 12  1  0
 10  9  1  0
 11 10  2  0
 13 11  1  0
 13 15  2  0
 14 12  2  0
 15 14  1  0
 17 18  1  0
 17 16  1  0
 19  1  1  0
 20 19  1  0
 21 19  1  0
 22 20  1  0
 23 24  1  0
 23 21  1  0
 24 22  1  0
M  RAD  8   1   2  11   2  12   2  13   2  15   2  16   3  17   3  19   2
M  RAD  5  20   3  21   3  22   3  23   3  24   3
M  END
>  <REMARK>  (1) 
 SMILES O=C(NC(CCO)C1CCCCC1)c1noc(-c2cccnc2)n1
 SMILES IDX 4 1 3 2 2 3 1 4 14 6 15 7 24 8 16 9 17 10 18 11 19 12 23 13
 SMILES IDX 20 14 22 15 21 16 5 17 6 18 7 19 8 21 9 22 13 23 10 24 12 25
 SMILES IDX 11 26
 H PARENT 3 5 7 20

>  <TORSDO>  (1) 
F 7

$$$$
