/home/pchatterjee/Documents/git/vs_workflow/DiffDock/diffdock_run/pdbqt_scrubbed/Z1381816014.pdbqt
     RDKit          3D

 24 26  0  0  1  0  0  0  0  0999 V2000
    4.4978   42.9957   50.3223 C   0  0  0  0  0  3  0  0  0  0  0  0
    5.1076   43.5581   51.5107 N   0  0  0  0  0  0  0  0  0  0  0  0
    6.3175   44.2886   51.5073 C   0  0  0  0  0  0  0  0  0  0  0  0
    7.2649   44.0663   50.6934 O   0  0  0  0  0  0  0  0  0  0  0  0
    6.5116   45.3550   52.4764 C   0  0  0  0  0  0  0  0  0  0  0  0
    5.5993   45.9480   53.2673 N   0  0  0  0  0  0  0  0  0  0  0  0
    7.6815   45.9740   52.7779 N   0  0  0  0  0  0  0  0  0  0  0  0
    6.1831   46.8697   54.0022 O   0  0  0  0  0  0  0  0  0  0  0  0
    7.4701   46.9064   53.7194 C   0  0  0  0  0  0  0  0  0  0  0  0
    8.4605   47.7900   54.3175 C   0  0  0  0  0  0  0  0  0  0  0  0
    8.1108   48.7934   55.1638 C   0  0  0  0  0  3  0  0  0  0  0  0
    9.7954   47.6048   54.0172 C   0  0  0  0  0  3  0  0  0  0  0  0
    9.1332   49.5759   55.6769 C   0  0  0  0  0  3  0  0  0  0  0  0
   10.7940   48.3524   54.5051 N   0  0  0  0  0  0  0  0  0  0  0  0
   10.4515   49.3462   55.3429 C   0  0  0  0  0  3  0  0  0  0  0  0
    3.9117   41.6453   50.6827 C   0  0  0  0  0  2  0  0  0  0  0  0
    3.7756   40.8002   49.4351 C   0  0  0  0  0  2  0  0  0  0  0  0
    3.5730   39.4604   49.7405 O   0  0  0  0  0  0  0  0  0  0  0  0
    3.3577   43.8526   49.8211 C   0  0  0  0  0  3  0  0  0  0  0  0
    2.1538   43.0614   49.4293 C   0  0  0  0  0  2  0  0  0  0  0  0
    3.0843   45.0533   50.6643 C   0  0  0  0  0  2  0  0  0  0  0  0
    0.9594   43.3511   50.3088 C   0  0  0  0  0  2  0  0  0  0  0  0
    2.1922   44.7977   51.8445 C   0  0  0  0  0  2  0  0  0  0  0  0
    1.4634   43.4674   51.7303 C   0  0  0  0  0  2  0  0  0  0  0  0
  1 16  1  0
  1  2  1  0
  2  3  1  0
  3  5  1  0
  3  4  2  0
  5  6  2  0
  7  9  2  0
  7  5  1  0
  8  6  1  0
  9  8  1  0
 10 12  1  0
 10  9  1  0
 11 10  2  0
 13 11  1  0
 13 15  2  0
 14 12  2  0
 15 14  1  0
 17 18  1  0
 17 16  1  0
 19  1  1  0
 20 19  1  0
 21 19  1  0
 22 20  1  0
 23 24  1  0
 23 21  1  0
 24 22  1  0
M  RAD  8   1   2  11   2  12   2  13   2  15   2  16   3  17   3  19   2
M  RAD  5  20   3  21   3  22   3  23   3  24   3
M  END
>  <REMARK>  (1) 
 SMILES O=C(NC(CCO)C1CCCCC1)c1noc(-c2cccnc2)n1
 SMILES IDX 4 1 3 2 2 3 1 4 14 6 15 7 24 8 16 9 17 10 18 11 19 12 23 13
 SMILES IDX 20 14 22 15 21 16 5 17 6 18 7 19 8 21 9 22 13 23 10 24 12 25
 SMILES IDX 11 26
 H PARENT 3 5 7 20

>  <TORSDO>  (1) 
F 7

$$$$
