/home/pchatterjee/Documents/git/vs_workflow/DiffDock/diffdock_run/pdbqt_scrubbed/Z1381816014.pdbqt
     RDKit          3D

 24 26  0  0  1  0  0  0  0  0999 V2000
    5.6396   41.8829   49.7650 C   0  0  0  0  0  3  0  0  0  0  0  0
    6.5266   42.7790   50.4797 N   0  0  0  0  0  0  0  0  0  0  0  0
    7.7344   43.2850   49.9478 C   0  0  0  0  0  0  0  0  0  0  0  0
    8.2639   42.8492   48.8805 O   0  0  0  0  0  0  0  0  0  0  0  0
    8.4254   44.3605   50.6404 C   0  0  0  0  0  0  0  0  0  0  0  0
    9.6954   44.7775   50.4897 N   0  0  0  0  0  0  0  0  0  0  0  0
    7.9088   45.1725   51.5977 N   0  0  0  0  0  0  0  0  0  0  0  0
    9.9315   45.7810   51.3069 O   0  0  0  0  0  0  0  0  0  0  0  0
    8.8439   46.0453   52.0032 C   0  0  0  0  0  0  0  0  0  0  0  0
    8.6963   47.0836   53.0128 C   0  0  0  0  0  0  0  0  0  0  0  0
    7.4784   47.5574   53.3839 C   0  0  0  0  0  3  0  0  0  0  0  0
    9.8260   47.6040   53.6124 C   0  0  0  0  0  3  0  0  0  0  0  0
    7.4512   48.5464   54.3544 C   0  0  0  0  0  3  0  0  0  0  0  0
    9.8155   48.5594   54.5511 N   0  0  0  0  0  0  0  0  0  0  0  0
    8.6120   49.0305   54.9207 C   0  0  0  0  0  3  0  0  0  0  0  0
    4.2211   42.3922   49.9233 C   0  0  0  0  0  2  0  0  0  0  0  0
    3.8767   42.4906   51.3934 C   0  0  0  0  0  2  0  0  0  0  0  0
    2.6884   43.1799   51.5987 O   0  0  0  0  0  0  0  0  0  0  0  0
    5.9398   41.8645   48.2836 C   0  0  0  0  0  3  0  0  0  0  0  0
    5.6916   40.5364   47.6483 C   0  0  0  0  0  2  0  0  0  0  0  0
    5.3962   43.0383   47.5392 C   0  0  0  0  0  2  0  0  0  0  0  0
    4.5738   40.5807   46.6321 C   0  0  0  0  0  2  0  0  0  0  0  0
    3.9640   42.8979   47.1114 C   0  0  0  0  0  2  0  0  0  0  0  0
    3.4810   41.4582   47.2013 C   0  0  0  0  0  2  0  0  0  0  0  0
  1 16  1  0
  1  2  1  0
  2  3  1  0
  3  5  1  0
  3  4  2  0
  5  6  2  0
  7  9  2  0
  7  5  1  0
  8  6  1  0
  9  8  1  0
 10 12  1  0
 10  9  1  0
 11 10  2  0
 13 11  1  0
 13 15  2  0
 14 12  2  0
 15 14  1  0
 17 18  1  0
 17 16  1  0
 19  1  1  0
 20 19  1  0
 21 19  1  0
 22 20  1  0
 23 24  1  0
 23 21  1  0
 24 22  1  0
M  RAD  8   1   2  11   2  12   2  13   2  15   2  16   3  17   3  19   2
M  RAD  5  20   3  21   3  22   3  23   3  24   3
M  END
>  <REMARK>  (1) 
 SMILES O=C(NC(CCO)C1CCCCC1)c1noc(-c2cccnc2)n1
 SMILES IDX 4 1 3 2 2 3 1 4 14 6 15 7 24 8 16 9 17 10 18 11 19 12 23 13
 SMILES IDX 20 14 22 15 21 16 5 17 6 18 7 19 8 21 9 22 13 23 10 24 12 25
 SMILES IDX 11 26
 H PARENT 3 5 7 20

>  <TORSDO>  (1) 
F 7

$$$$
