/home/pchatterjee/Documents/git/vs_workflow/DiffDock/diffdock_run/pdbqt_scrubbed/Z1381816014.pdbqt
     RDKit          3D

 24 26  0  0  1  0  0  0  0  0999 V2000
    5.7486   42.6956   48.8979 C   0  0  0  0  0  3  0  0  0  0  0  0
    6.3536   42.9571   50.1887 N   0  0  0  0  0  0  0  0  0  0  0  0
    7.4411   43.8377   50.3874 C   0  0  0  0  0  0  0  0  0  0  0  0
    8.4699   43.8550   49.6453 O   0  0  0  0  0  0  0  0  0  0  0  0
    7.4037   44.7823   51.4920 C   0  0  0  0  0  0  0  0  0  0  0  0
    6.4050   45.0192   52.3616 N   0  0  0  0  0  0  0  0  0  0  0  0
    8.3952   45.6294   51.8688 N   0  0  0  0  0  0  0  0  0  0  0  0
    6.7714   45.9533   53.2123 O   0  0  0  0  0  0  0  0  0  0  0  0
    7.9971   46.3476   52.9301 C   0  0  0  0  0  0  0  0  0  0  0  0
    8.7612   47.3648   53.6379 C   0  0  0  0  0  0  0  0  0  0  0  0
   10.0999   47.5116   53.4600 C   0  0  0  0  0  3  0  0  0  0  0  0
    8.1082   48.2064   54.5165 C   0  0  0  0  0  3  0  0  0  0  0  0
   10.7301   48.5117   54.1836 C   0  0  0  0  0  3  0  0  0  0  0  0
    8.7035   49.1768   55.2222 N   0  0  0  0  0  0  0  0  0  0  0  0
   10.0282   49.3249   55.0487 C   0  0  0  0  0  3  0  0  0  0  0  0
    5.7204   41.1959   48.6815 C   0  0  0  0  0  2  0  0  0  0  0  0
    5.0878   40.8867   47.3423 C   0  0  0  0  0  2  0  0  0  0  0  0
    5.2513   39.5526   46.9916 O   0  0  0  0  0  0  0  0  0  0  0  0
    4.3165   43.1767   48.8450 C   0  0  0  0  0  3  0  0  0  0  0  0
    3.3198   42.0845   49.0515 C   0  0  0  0  0  2  0  0  0  0  0  0
    4.0656   44.4240   49.6252 C   0  0  0  0  0  2  0  0  0  0  0  0
    2.5174   42.2653   50.3193 C   0  0  0  0  0  2  0  0  0  0  0  0
    3.7934   44.2034   51.0850 C   0  0  0  0  0  2  0  0  0  0  0  0
    3.4693   42.7489   51.3908 C   0  0  0  0  0  2  0  0  0  0  0  0
  1 16  1  0
  1  2  1  0
  2  3  1  0
  3  5  1  0
  3  4  2  0
  5  6  2  0
  7  9  2  0
  7  5  1  0
  8  6  1  0
  9  8  1  0
 10 12  1  0
 10  9  1  0
 11 10  2  0
 13 11  1  0
 13 15  2  0
 14 12  2  0
 15 14  1  0
 17 18  1  0
 17 16  1  0
 19  1  1  0
 20 19  1  0
 21 19  1  0
 22 20  1  0
 23 24  1  0
 23 21  1  0
 24 22  1  0
M  RAD  8   1   2  11   2  12   2  13   2  15   2  16   3  17   3  19   2
M  RAD  5  20   3  21   3  22   3  23   3  24   3
M  END
>  <REMARK>  (1) 
 SMILES O=C(NC(CCO)C1CCCCC1)c1noc(-c2cccnc2)n1
 SMILES IDX 4 1 3 2 2 3 1 4 14 6 15 7 24 8 16 9 17 10 18 11 19 12 23 13
 SMILES IDX 20 14 22 15 21 16 5 17 6 18 7 19 8 21 9 22 13 23 10 24 12 25
 SMILES IDX 11 26
 H PARENT 3 5 7 20

>  <TORSDO>  (1) 
F 7

$$$$
