/home/pchatterjee/Documents/git/vs_workflow/DiffDock/diffdock_run/pdbqt_scrubbed/Z1381816014.pdbqt
     RDKit          3D

 24 26  0  0  1  0  0  0  0  0999 V2000
    0.9425   42.6815   52.2419 C   0  0  0  0  0  3  0  0  0  0  0  0
    2.3177   43.0826   52.4624 N   0  0  0  0  0  0  0  0  0  0  0  0
    3.2707   43.2361   51.4300 C   0  0  0  0  0  0  0  0  0  0  0  0
    3.1431   42.7176   50.2792 O   0  0  0  0  0  0  0  0  0  0  0  0
    4.4681   44.0241   51.6737 C   0  0  0  0  0  0  0  0  0  0  0  0
    4.6718   44.9788   52.5992 N   0  0  0  0  0  0  0  0  0  0  0  0
    5.6421   43.9462   50.9967 N   0  0  0  0  0  0  0  0  0  0  0  0
    5.8951   45.4493   52.4877 O   0  0  0  0  0  0  0  0  0  0  0  0
    6.5163   44.8283   51.5049 C   0  0  0  0  0  0  0  0  0  0  0  0
    7.8842   45.0612   51.0645 C   0  0  0  0  0  0  0  0  0  0  0  0
    8.7496   45.8254   51.7805 C   0  0  0  0  0  3  0  0  0  0  0  0
    8.3174   44.4896   49.8846 C   0  0  0  0  0  3  0  0  0  0  0  0
   10.0287   45.9824   51.2706 C   0  0  0  0  0  3  0  0  0  0  0  0
    9.5497   44.6322   49.3796 N   0  0  0  0  0  0  0  0  0  0  0  0
   10.4086   45.3878   50.0855 C   0  0  0  0  0  3  0  0  0  0  0  0
    0.2531   42.5885   53.5883 C   0  0  0  0  0  2  0  0  0  0  0  0
   -0.8473   41.5519   53.5262 C   0  0  0  0  0  2  0  0  0  0  0  0
   -1.3716   41.2819   54.7839 O   0  0  0  0  0  0  0  0  0  0  0  0
    0.1859   43.7062   51.4278 C   0  0  0  0  0  3  0  0  0  0  0  0
   -1.2710   43.4035   51.3065 C   0  0  0  0  0  2  0  0  0  0  0  0
    0.5163   45.1201   51.7727 C   0  0  0  0  0  2  0  0  0  0  0  0
   -2.1361   44.4423   51.9821 C   0  0  0  0  0  2  0  0  0  0  0  0
   -0.2544   45.6759   52.9350 C   0  0  0  0  0  2  0  0  0  0  0  0
   -1.4601   44.8161   53.2827 C   0  0  0  0  0  2  0  0  0  0  0  0
  1 16  1  0
  1  2  1  0
  2  3  1  0
  3  5  1  0
  3  4  2  0
  5  6  2  0
  7  9  2  0
  7  5  1  0
  8  6  1  0
  9  8  1  0
 10 12  1  0
 10  9  1  0
 11 10  2  0
 13 11  1  0
 13 15  2  0
 14 12  2  0
 15 14  1  0
 17 18  1  0
 17 16  1  0
 19  1  1  0
 20 19  1  0
 21 19  1  0
 22 20  1  0
 23 24  1  0
 23 21  1  0
 24 22  1  0
M  RAD  8   1   2  11   2  12   2  13   2  15   2  16   3  17   3  19   2
M  RAD  5  20   3  21   3  22   3  23   3  24   3
M  END
>  <REMARK>  (1) 
 SMILES O=C(NC(CCO)C1CCCCC1)c1noc(-c2cccnc2)n1
 SMILES IDX 4 1 3 2 2 3 1 4 14 6 15 7 24 8 16 9 17 10 18 11 19 12 23 13
 SMILES IDX 20 14 22 15 21 16 5 17 6 18 7 19 8 21 9 22 13 23 10 24 12 25
 SMILES IDX 11 26
 H PARENT 3 5 7 20

>  <TORSDO>  (1) 
F 7

$$$$
