/home/pchatterjee/Documents/git/vs_workflow/DiffDock/diffdock_run/pdbqt_scrubbed/Z1381816014.pdbqt
     RDKit          3D

 24 26  0  0  1  0  0  0  0  0999 V2000
    4.7002   41.7407   48.3038 C   0  0  0  0  0  3  0  0  0  0  0  0
    5.8887   42.3016   48.9147 N   0  0  0  0  0  0  0  0  0  0  0  0
    5.8673   43.3180   49.8966 C   0  0  0  0  0  0  0  0  0  0  0  0
    4.8045   43.7250   50.4572 O   0  0  0  0  0  0  0  0  0  0  0  0
    7.1142   43.9458   50.3030 C   0  0  0  0  0  0  0  0  0  0  0  0
    8.3603   43.7058   49.8568 N   0  0  0  0  0  0  0  0  0  0  0  0
    7.2652   44.9208   51.2354 N   0  0  0  0  0  0  0  0  0  0  0  0
    9.2127   44.4887   50.4822 O   0  0  0  0  0  0  0  0  0  0  0  0
    8.5620   45.2496   51.3396 C   0  0  0  0  0  0  0  0  0  0  0  0
    9.1457   46.2488   52.2229 C   0  0  0  0  0  0  0  0  0  0  0  0
    8.3780   47.1040   52.9473 C   0  0  0  0  0  3  0  0  0  0  0  0
   10.5198   46.3318   52.3293 C   0  0  0  0  0  3  0  0  0  0  0  0
    9.0359   48.0164   53.7570 C   0  0  0  0  0  3  0  0  0  0  0  0
   11.1694   47.2078   53.1071 N   0  0  0  0  0  0  0  0  0  0  0  0
   10.4129   48.0555   53.8253 C   0  0  0  0  0  3  0  0  0  0  0  0
    4.1537   40.6681   49.2246 C   0  0  0  0  0  2  0  0  0  0  0  0
    3.3875   39.6446   48.4154 C   0  0  0  0  0  2  0  0  0  0  0  0
    2.2611   39.1929   49.0910 O   0  0  0  0  0  0  0  0  0  0  0  0
    3.6134   42.7788   48.1408 C   0  0  0  0  0  3  0  0  0  0  0  0
    2.5104   42.3401   47.2352 C   0  0  0  0  0  2  0  0  0  0  0  0
    3.1745   43.4050   49.4224 C   0  0  0  0  0  2  0  0  0  0  0  0
    1.1906   42.1980   47.9574 C   0  0  0  0  0  2  0  0  0  0  0  0
    2.1305   42.6285   50.1715 C   0  0  0  0  0  2  0  0  0  0  0  0
    1.4773   41.5655   49.3013 C   0  0  0  0  0  2  0  0  0  0  0  0
  1 16  1  0
  1  2  1  0
  2  3  1  0
  3  5  1  0
  3  4  2  0
  5  6  2  0
  7  9  2  0
  7  5  1  0
  8  6  1  0
  9  8  1  0
 10 12  1  0
 10  9  1  0
 11 10  2  0
 13 11  1  0
 13 15  2  0
 14 12  2  0
 15 14  1  0
 17 18  1  0
 17 16  1  0
 19  1  1  0
 20 19  1  0
 21 19  1  0
 22 20  1  0
 23 24  1  0
 23 21  1  0
 24 22  1  0
M  RAD  8   1   2  11   2  12   2  13   2  15   2  16   3  17   3  19   2
M  RAD  5  20   3  21   3  22   3  23   3  24   3
M  END
>  <REMARK>  (1) 
 SMILES O=C(NC(CCO)C1CCCCC1)c1noc(-c2cccnc2)n1
 SMILES IDX 4 1 3 2 2 3 1 4 14 6 15 7 24 8 16 9 17 10 18 11 19 12 23 13
 SMILES IDX 20 14 22 15 21 16 5 17 6 18 7 19 8 21 9 22 13 23 10 24 12 25
 SMILES IDX 11 26
 H PARENT 3 5 7 20

>  <TORSDO>  (1) 
F 7

$$$$
