/home/pchatterjee/Documents/git/vs_workflow/DiffDock/diffdock_run/pdbqt_scrubbed/Z1228382446.pdbqt
     RDKit          3D

 26 29  0  0  1  0  0  0  0  0999 V2000
    5.7149   47.0369   53.1139 C   0  0  0  0  0  2  0  0  0  0  0  0
    6.2525   45.9822   52.2865 N   0  0  0  0  0  0  0  0  0  0  0  0
    7.6286   45.9653   51.9544 C   0  0  0  0  0  0  0  0  0  0  0  0
    8.3650   46.7603   52.6290 O   0  0  0  0  0  0  0  0  0  0  0  0
    8.2186   45.1200   50.9237 C   0  0  0  0  0  0  0  0  0  0  0  0
    9.4819   44.9496   50.5832 C   0  0  0  0  0  0  0  0  0  0  0  0
    9.6304   44.0411   49.5443 O   0  0  0  0  0  0  0  0  0  0  0  0
    8.4042   43.5678   49.1683 C   0  0  0  0  0  0  0  0  0  0  0  0
    7.4181   44.3189   49.9848 C   0  0  0  0  0  3  0  0  0  0  0  0
    7.9119   42.6934   48.3414 N   0  0  0  0  0  0  0  0  0  0  0  0
    6.5177   43.3218   50.5970 C   0  0  0  0  0  0  0  0  0  0  0  0
    6.4671   42.5229   48.2853 C   0  0  0  0  0  2  0  0  0  0  0  0
    5.9403   42.3821   49.6498 N   0  0  0  0  0  0  0  0  0  0  0  0
   10.6685   45.6234   51.2010 C   0  0  0  0  0  1  0  0  0  0  0  0
    6.2411   43.2442   51.8058 O   0  0  0  0  0  0  0  0  0  0  0  0
    4.2472   47.1747   52.9878 C   0  0  0  0  0  0  0  0  0  0  0  0
    3.5294   46.2242   52.2876 C   0  0  0  0  0  3  0  0  0  0  0  0
    3.6340   48.2627   53.5815 C   0  0  0  0  0  0  0  0  0  0  0  0
    2.1646   46.4148   52.2095 C   0  0  0  0  0  3  0  0  0  0  0  0
    2.2541   48.4323   53.4881 C   0  0  0  0  0  3  0  0  0  0  0  0
    1.5211   47.4894   52.7905 C   0  0  0  0  0  3  0  0  0  0  0  0
    4.3369   49.2310   54.2908 O   0  0  0  0  0  0  0  0  0  0  0  0
    5.0158   50.3098   53.6944 C   0  0  0  0  0  3  0  0  0  0  0  0
    4.0693   51.4950   53.5496 C   0  0  0  0  0  2  0  0  0  0  0  0
    5.8130   51.1634   54.6594 C   0  0  0  0  0  2  0  0  0  0  0  0
    4.5261   51.9483   54.9417 C   0  0  0  0  0  2  0  0  0  0  0  0
  1  2  1  0
  2  3  1  0
  3  4  2  0
  3  5  1  0
  5  6  2  0
  6  7  1  0
  6 14  1  0
  8 10  2  0
  8  7  1  0
  9 11  1  0
  9  5  1  0
  9  8  1  0
 11 13  1  0
 12 10  1  0
 13 12  1  0
 15 11  2  0
 16  1  1  0
 17 16  2  0
 18 22  1  0
 18 16  1  0
 19 17  1  0
 20 18  2  0
 21 20  1  0
 21 19  2  0
 23 22  1  0
 23 25  1  0
 24 26  1  0
 24 23  1  0
 26 25  1  0
M  RAD  8   1   3   9   2  12   3  14   2  17   2  19   2  20   2  21   2
M  RAD  4  23   2  24   3  25   3  26   3
M  END
>  <REMARK>  (1) 
 SMILES Cc1oc2nc[nH]c(=O)c2c1C(=O)NCc1ccccc1OC1CCC1
 SMILES IDX 15 1 14 2 12 3 13 4 11 6 2 7 3 8 4 9 10 10 5 11 8 12 6 13
 SMILES IDX 7 14 1 15 9 16 16 18 17 19 21 20 18 21 20 22 19 23 22 24
 SMILES IDX 23 25 24 26 26 27 25 28
 H PARENT 14 5 7 17

>  <TORSDO>  (1) 
F 5

$$$$
