/home/pchatterjee/Documents/git/vs_workflow/DiffDock/diffdock_run/pdbqt_scrubbed/Z1228382446.pdbqt
     RDKit          3D

 26 29  0  0  1  0  0  0  0  0999 V2000
    5.6085   47.4478   52.2233 C   0  0  0  0  0  2  0  0  0  0  0  0
    6.1325   46.1203   52.0021 N   0  0  0  0  0  0  0  0  0  0  0  0
    7.5238   45.9198   51.8343 C   0  0  0  0  0  0  0  0  0  0  0  0
    8.2744   46.6349   52.5791 O   0  0  0  0  0  0  0  0  0  0  0  0
    8.1142   44.9767   50.8924 C   0  0  0  0  0  0  0  0  0  0  0  0
    9.3808   44.7195   50.6270 C   0  0  0  0  0  0  0  0  0  0  0  0
    9.5277   43.7353   49.6593 O   0  0  0  0  0  0  0  0  0  0  0  0
    8.2963   43.2999   49.2553 C   0  0  0  0  0  0  0  0  0  0  0  0
    7.3156   44.1545   49.9704 C   0  0  0  0  0  3  0  0  0  0  0  0
    7.7961   42.3967   48.4649 N   0  0  0  0  0  0  0  0  0  0  0  0
    6.3357   43.2488   50.6021 C   0  0  0  0  0  0  0  0  0  0  0  0
    6.3484   42.2962   48.3489 C   0  0  0  0  0  2  0  0  0  0  0  0
    5.7526   42.2765   49.6919 N   0  0  0  0  0  0  0  0  0  0  0  0
   10.5723   45.3734   51.2567 C   0  0  0  0  0  1  0  0  0  0  0  0
    6.0000   43.2688   51.7982 O   0  0  0  0  0  0  0  0  0  0  0  0
    4.1767   47.4459   52.5963 C   0  0  0  0  0  0  0  0  0  0  0  0
    3.4080   46.3246   52.3495 C   0  0  0  0  0  3  0  0  0  0  0  0
    3.6478   48.5790   53.1867 C   0  0  0  0  0  0  0  0  0  0  0  0
    2.0808   46.3914   52.7227 C   0  0  0  0  0  3  0  0  0  0  0  0
    2.3044   48.6212   53.5542 C   0  0  0  0  0  3  0  0  0  0  0  0
    1.5213   47.5067   53.3138 C   0  0  0  0  0  3  0  0  0  0  0  0
    4.4031   49.7183   53.4442 O   0  0  0  0  0  0  0  0  0  0  0  0
    3.9219   50.8454   54.1358 C   0  0  0  0  0  3  0  0  0  0  0  0
    4.0970   50.6408   55.6355 C   0  0  0  0  0  2  0  0  0  0  0  0
    4.9148   51.9838   54.2535 C   0  0  0  0  0  2  0  0  0  0  0  0
    5.4804   51.2883   55.4978 C   0  0  0  0  0  2  0  0  0  0  0  0
  1  2  1  0
  2  3  1  0
  3  4  2  0
  3  5  1  0
  5  6  2  0
  6  7  1  0
  6 14  1  0
  8 10  2  0
  8  7  1  0
  9 11  1  0
  9  5  1  0
  9  8  1  0
 11 13  1  0
 12 10  1  0
 13 12  1  0
 15 11  2  0
 16  1  1  0
 17 16  2  0
 18 22  1  0
 18 16  1  0
 19 17  1  0
 20 18  2  0
 21 20  1  0
 21 19  2  0
 23 22  1  0
 23 25  1  0
 24 26  1  0
 24 23  1  0
 26 25  1  0
M  RAD  8   1   3   9   2  12   3  14   2  17   2  19   2  20   2  21   2
M  RAD  4  23   2  24   3  25   3  26   3
M  END
>  <REMARK>  (1) 
 SMILES Cc1oc2nc[nH]c(=O)c2c1C(=O)NCc1ccccc1OC1CCC1
 SMILES IDX 15 1 14 2 12 3 13 4 11 6 2 7 3 8 4 9 10 10 5 11 8 12 6 13
 SMILES IDX 7 14 1 15 9 16 16 18 17 19 21 20 18 21 20 22 19 23 22 24
 SMILES IDX 23 25 24 26 26 27 25 28
 H PARENT 14 5 7 17

>  <TORSDO>  (1) 
F 5

$$$$
