/home/pchatterjee/Documents/git/vs_workflow/DiffDock/diffdock_run/pdbqt_scrubbed/Z1228382446.pdbqt
     RDKit          3D

 26 29  0  0  1  0  0  0  0  0999 V2000
   16.1132   85.3369   69.5401 C   0  0  0  0  0  2  0  0  0  0  0  0
   15.0793   84.7123   70.3318 N   0  0  0  0  0  0  0  0  0  0  0  0
   13.7235   85.0791   70.1546 C   0  0  0  0  0  0  0  0  0  0  0  0
   13.4579   85.6853   69.0631 O   0  0  0  0  0  0  0  0  0  0  0  0
   12.6628   84.8092   71.1175 C   0  0  0  0  0  0  0  0  0  0  0  0
   11.3923   84.5112   70.9225 C   0  0  0  0  0  0  0  0  0  0  0  0
   10.7070   84.3177   72.1140 O   0  0  0  0  0  0  0  0  0  0  0  0
   11.5607   84.4865   73.1684 C   0  0  0  0  0  0  0  0  0  0  0  0
   12.8533   84.9080   72.5728 C   0  0  0  0  0  3  0  0  0  0  0  0
   11.5373   84.3811   74.4642 N   0  0  0  0  0  0  0  0  0  0  0  0
   13.8962   84.0334   73.1448 C   0  0  0  0  0  0  0  0  0  0  0  0
   12.7525   84.6755   75.2098 C   0  0  0  0  0  2  0  0  0  0  0  0
   13.8837   83.9655   74.5970 N   0  0  0  0  0  0  0  0  0  0  0  0
   10.7021   84.3802   69.5996 C   0  0  0  0  0  1  0  0  0  0  0  0
   14.7358   83.3893   72.4936 O   0  0  0  0  0  0  0  0  0  0  0  0
   17.4206   84.6548   69.6607 C   0  0  0  0  0  0  0  0  0  0  0  0
   17.4736   83.3586   70.1363 C   0  0  0  0  0  3  0  0  0  0  0  0
   18.5604   85.3441   69.2894 C   0  0  0  0  0  0  0  0  0  0  0  0
   18.7253   82.7833   70.2229 C   0  0  0  0  0  3  0  0  0  0  0  0
   19.8126   84.7407   69.3864 C   0  0  0  0  0  3  0  0  0  0  0  0
   19.8827   83.4433   69.8608 C   0  0  0  0  0  3  0  0  0  0  0  0
   18.5302   86.6489   68.8083 O   0  0  0  0  0  0  0  0  0  0  0  0
   18.3374   87.7846   69.6166 C   0  0  0  0  0  3  0  0  0  0  0  0
   19.6645   88.2053   70.2357 C   0  0  0  0  0  2  0  0  0  0  0  0
   18.3577   89.1015   68.8678 C   0  0  0  0  0  2  0  0  0  0  0  0
   19.8852   89.0919   69.0039 C   0  0  0  0  0  2  0  0  0  0  0  0
  1  2  1  0
  2  3  1  0
  3  4  2  0
  3  5  1  0
  5  6  2  0
  6  7  1  0
  6 14  1  0
  8 10  2  0
  8  7  1  0
  9 11  1  0
  9  5  1  0
  9  8  1  0
 11 13  1  0
 12 10  1  0
 13 12  1  0
 15 11  2  0
 16  1  1  0
 17 16  2  0
 18 22  1  0
 18 16  1  0
 19 17  1  0
 20 18  2  0
 21 20  1  0
 21 19  2  0
 23 22  1  0
 23 25  1  0
 24 26  1  0
 24 23  1  0
 26 25  1  0
M  RAD  8   1   3   9   2  12   3  14   2  17   2  19   2  20   2  21   2
M  RAD  4  23   2  24   3  25   3  26   3
M  END
>  <REMARK>  (1) 
 SMILES Cc1oc2nc[nH]c(=O)c2c1C(=O)NCc1ccccc1OC1CCC1
 SMILES IDX 15 1 14 2 12 3 13 4 11 6 2 7 3 8 4 9 10 10 5 11 8 12 6 13
 SMILES IDX 7 14 1 15 9 16 16 18 17 19 21 20 18 21 20 22 19 23 22 24
 SMILES IDX 23 25 24 26 26 27 25 28
 H PARENT 14 5 7 17

>  <TORSDO>  (1) 
F 5

$$$$
