/home/pchatterjee/Documents/git/vs_workflow/DiffDock/diffdock_run/pdbqt_scrubbed/Z1228382446.pdbqt
     RDKit          3D

 26 29  0  0  1  0  0  0  0  0999 V2000
    5.7185   47.3401   52.9333 C   0  0  0  0  0  2  0  0  0  0  0  0
    6.2403   46.1598   52.2848 N   0  0  0  0  0  0  0  0  0  0  0  0
    7.6359   45.9973   52.1117 C   0  0  0  0  0  0  0  0  0  0  0  0
    8.3683   46.6113   52.9578 O   0  0  0  0  0  0  0  0  0  0  0  0
    8.2493   45.1970   51.0589 C   0  0  0  0  0  0  0  0  0  0  0  0
    9.5221   44.9954   50.7757 C   0  0  0  0  0  0  0  0  0  0  0  0
    9.6931   44.1515   49.6869 O   0  0  0  0  0  0  0  0  0  0  0  0
    8.4723   43.7568   49.2147 C   0  0  0  0  0  0  0  0  0  0  0  0
    7.4720   44.4942   50.0265 C   0  0  0  0  0  3  0  0  0  0  0  0
    7.9934   42.9604   48.3053 N   0  0  0  0  0  0  0  0  0  0  0  0
    6.5004   43.4985   50.5207 C   0  0  0  0  0  0  0  0  0  0  0  0
    6.5485   42.8559   48.1607 C   0  0  0  0  0  2  0  0  0  0  0  0
    5.9408   42.6485   49.4824 N   0  0  0  0  0  0  0  0  0  0  0  0
   10.6975   45.5759   51.5003 C   0  0  0  0  0  1  0  0  0  0  0  0
    6.1535   43.3537   51.7049 O   0  0  0  0  0  0  0  0  0  0  0  0
    4.2396   47.3693   52.9704 C   0  0  0  0  0  0  0  0  0  0  0  0
    3.5219   46.3179   52.4335 C   0  0  0  0  0  3  0  0  0  0  0  0
    3.6162   48.4603   53.5479 C   0  0  0  0  0  0  0  0  0  0  0  0
    2.1464   46.4103   52.5021 C   0  0  0  0  0  3  0  0  0  0  0  0
    2.2257   48.5296   53.6047 C   0  0  0  0  0  3  0  0  0  0  0  0
    1.4926   47.4849   53.0714 C   0  0  0  0  0  3  0  0  0  0  0  0
    4.3189   49.5292   54.0942 O   0  0  0  0  0  0  0  0  0  0  0  0
    3.7395   50.7675   54.4277 C   0  0  0  0  0  3  0  0  0  0  0  0
    4.8131   51.7109   54.9560 C   0  0  0  0  0  2  0  0  0  0  0  0
    3.5819   51.7236   53.2629 C   0  0  0  0  0  2  0  0  0  0  0  0
    5.0265   52.1751   53.5100 C   0  0  0  0  0  2  0  0  0  0  0  0
  1  2  1  0
  2  3  1  0
  3  4  2  0
  3  5  1  0
  5  6  2  0
  6  7  1  0
  6 14  1  0
  8 10  2  0
  8  7  1  0
  9 11  1  0
  9  5  1  0
  9  8  1  0
 11 13  1  0
 12 10  1  0
 13 12  1  0
 15 11  2  0
 16  1  1  0
 17 16  2  0
 18 22  1  0
 18 16  1  0
 19 17  1  0
 20 18  2  0
 21 20  1  0
 21 19  2  0
 23 22  1  0
 23 25  1  0
 24 26  1  0
 24 23  1  0
 26 25  1  0
M  RAD  8   1   3   9   2  12   3  14   2  17   2  19   2  20   2  21   2
M  RAD  4  23   2  24   3  25   3  26   3
M  END
>  <REMARK>  (1) 
 SMILES Cc1oc2nc[nH]c(=O)c2c1C(=O)NCc1ccccc1OC1CCC1
 SMILES IDX 15 1 14 2 12 3 13 4 11 6 2 7 3 8 4 9 10 10 5 11 8 12 6 13
 SMILES IDX 7 14 1 15 9 16 16 18 17 19 21 20 18 21 20 22 19 23 22 24
 SMILES IDX 23 25 24 26 26 27 25 28
 H PARENT 14 5 7 17

>  <TORSDO>  (1) 
F 5

$$$$
