/home/pchatterjee/Documents/git/vs_workflow/DiffDock/diffdock_run/pdbqt_scrubbed/Z1228382446.pdbqt
     RDKit          3D

 26 29  0  0  1  0  0  0  0  0999 V2000
    4.7874   45.0482   52.2412 C   0  0  0  0  0  2  0  0  0  0  0  0
    5.4804   46.2203   51.7598 N   0  0  0  0  0  0  0  0  0  0  0  0
    6.8758   46.3563   51.9555 C   0  0  0  0  0  0  0  0  0  0  0  0
    7.2234   47.1648   52.8801 O   0  0  0  0  0  0  0  0  0  0  0  0
    7.8903   45.6479   51.1847 C   0  0  0  0  0  0  0  0  0  0  0  0
    9.2047   45.7613   51.2012 C   0  0  0  0  0  0  0  0  0  0  0  0
    9.8205   44.8914   50.3119 O   0  0  0  0  0  0  0  0  0  0  0  0
    8.8731   44.1467   49.6664 C   0  0  0  0  0  0  0  0  0  0  0  0
    7.5655   44.6700   50.1348 C   0  0  0  0  0  3  0  0  0  0  0  0
    8.8226   43.1690   48.8106 N   0  0  0  0  0  0  0  0  0  0  0  0
    6.7658   43.5064   50.5662 C   0  0  0  0  0  0  0  0  0  0  0  0
    7.5185   42.6755   48.3918 C   0  0  0  0  0  2  0  0  0  0  0  0
    6.6821   42.4437   49.5775 N   0  0  0  0  0  0  0  0  0  0  0  0
   10.0063   46.6967   52.0534 C   0  0  0  0  0  1  0  0  0  0  0  0
    6.1931   43.3899   51.6626 O   0  0  0  0  0  0  0  0  0  0  0  0
    3.3180   45.2193   52.2671 C   0  0  0  0  0  0  0  0  0  0  0  0
    2.7729   46.3619   52.8207 C   0  0  0  0  0  3  0  0  0  0  0  0
    2.5283   44.2190   51.7302 C   0  0  0  0  0  0  0  0  0  0  0  0
    1.3958   46.4561   52.8116 C   0  0  0  0  0  3  0  0  0  0  0  0
    1.1400   44.3383   51.7333 C   0  0  0  0  0  3  0  0  0  0  0  0
    0.5787   45.4762   52.2840 C   0  0  0  0  0  3  0  0  0  0  0  0
    3.0557   43.0611   51.1681 O   0  0  0  0  0  0  0  0  0  0  0  0
    2.2958   41.9197   50.8518 C   0  0  0  0  0  3  0  0  0  0  0  0
    1.6633   42.0892   49.4760 C   0  0  0  0  0  2  0  0  0  0  0  0
    3.0936   40.7763   50.2587 C   0  0  0  0  0  2  0  0  0  0  0  0
    2.9226   41.4413   48.8875 C   0  0  0  0  0  2  0  0  0  0  0  0
  1  2  1  0
  2  3  1  0
  3  4  2  0
  3  5  1  0
  5  6  2  0
  6  7  1  0
  6 14  1  0
  8 10  2  0
  8  7  1  0
  9 11  1  0
  9  5  1  0
  9  8  1  0
 11 13  1  0
 12 10  1  0
 13 12  1  0
 15 11  2  0
 16  1  1  0
 17 16  2  0
 18 22  1  0
 18 16  1  0
 19 17  1  0
 20 18  2  0
 21 20  1  0
 21 19  2  0
 23 22  1  0
 23 25  1  0
 24 26  1  0
 24 23  1  0
 26 25  1  0
M  RAD  8   1   3   9   2  12   3  14   2  17   2  19   2  20   2  21   2
M  RAD  4  23   2  24   3  25   3  26   3
M  END
>  <REMARK>  (1) 
 SMILES Cc1oc2nc[nH]c(=O)c2c1C(=O)NCc1ccccc1OC1CCC1
 SMILES IDX 15 1 14 2 12 3 13 4 11 6 2 7 3 8 4 9 10 10 5 11 8 12 6 13
 SMILES IDX 7 14 1 15 9 16 16 18 17 19 21 20 18 21 20 22 19 23 22 24
 SMILES IDX 23 25 24 26 26 27 25 28
 H PARENT 14 5 7 17

>  <TORSDO>  (1) 
F 5

$$$$
