/home/pchatterjee/Documents/git/vs_workflow/DiffDock/diffdock_run/pdbqt_scrubbed/Z1228382446.pdbqt
     RDKit          3D

 26 29  0  0  1  0  0  0  0  0999 V2000
    5.1030   46.8911   53.2180 C   0  0  0  0  0  2  0  0  0  0  0  0
    6.2418   46.0107   53.1000 N   0  0  0  0  0  0  0  0  0  0  0  0
    7.3907   46.4205   52.3815 C   0  0  0  0  0  0  0  0  0  0  0  0
    7.8757   47.5511   52.7220 O   0  0  0  0  0  0  0  0  0  0  0  0
    8.0186   45.6464   51.3178 C   0  0  0  0  0  0  0  0  0  0  0  0
    9.2939   45.4941   51.0154 C   0  0  0  0  0  0  0  0  0  0  0  0
    9.4808   44.6597   49.9220 O   0  0  0  0  0  0  0  0  0  0  0  0
    8.2692   44.2196   49.4667 C   0  0  0  0  0  0  0  0  0  0  0  0
    7.2536   44.9166   50.2949 C   0  0  0  0  0  3  0  0  0  0  0  0
    7.8076   43.4074   48.5623 N   0  0  0  0  0  0  0  0  0  0  0  0
    6.3280   43.8835   50.8007 C   0  0  0  0  0  0  0  0  0  0  0  0
    6.3658   43.2481   48.4386 C   0  0  0  0  0  2  0  0  0  0  0  0
    5.7860   43.0149   49.7685 N   0  0  0  0  0  0  0  0  0  0  0  0
   10.4569   46.1175   51.7242 C   0  0  0  0  0  1  0  0  0  0  0  0
    6.0044   43.7231   51.9895 O   0  0  0  0  0  0  0  0  0  0  0  0
    4.1911   46.5071   54.3181 C   0  0  0  0  0  0  0  0  0  0  0  0
    4.6335   46.5699   55.6255 C   0  0  0  0  0  3  0  0  0  0  0  0
    2.9110   46.0929   53.9988 C   0  0  0  0  0  0  0  0  0  0  0  0
    3.7311   46.1974   56.6013 C   0  0  0  0  0  3  0  0  0  0  0  0
    2.0187   45.7220   55.0028 C   0  0  0  0  0  3  0  0  0  0  0  0
    2.4463   45.7794   56.3170 C   0  0  0  0  0  3  0  0  0  0  0  0
    2.4450   46.0221   52.6901 O   0  0  0  0  0  0  0  0  0  0  0  0
    1.1455   45.6153   52.3352 C   0  0  0  0  0  3  0  0  0  0  0  0
    1.0861   45.3354   50.8386 C   0  0  0  0  0  2  0  0  0  0  0  0
    0.8681   44.1404   52.5435 C   0  0  0  0  0  2  0  0  0  0  0  0
    1.4761   43.8871   51.1586 C   0  0  0  0  0  2  0  0  0  0  0  0
  1  2  1  0
  2  3  1  0
  3  4  2  0
  3  5  1  0
  5  6  2  0
  6  7  1  0
  6 14  1  0
  8 10  2  0
  8  7  1  0
  9 11  1  0
  9  5  1  0
  9  8  1  0
 11 13  1  0
 12 10  1  0
 13 12  1  0
 15 11  2  0
 16  1  1  0
 17 16  2  0
 18 22  1  0
 18 16  1  0
 19 17  1  0
 20 18  2  0
 21 20  1  0
 21 19  2  0
 23 22  1  0
 23 25  1  0
 24 26  1  0
 24 23  1  0
 26 25  1  0
M  RAD  8   1   3   9   2  12   3  14   2  17   2  19   2  20   2  21   2
M  RAD  4  23   2  24   3  25   3  26   3
M  END
>  <REMARK>  (1) 
 SMILES Cc1oc2nc[nH]c(=O)c2c1C(=O)NCc1ccccc1OC1CCC1
 SMILES IDX 15 1 14 2 12 3 13 4 11 6 2 7 3 8 4 9 10 10 5 11 8 12 6 13
 SMILES IDX 7 14 1 15 9 16 16 18 17 19 21 20 18 21 20 22 19 23 22 24
 SMILES IDX 23 25 24 26 26 27 25 28
 H PARENT 14 5 7 17

>  <TORSDO>  (1) 
F 5

$$$$
