/home/pchatterjee/Documents/git/vs_workflow/DiffDock/diffdock_run/pdbqt_scrubbed/Z1228382446.pdbqt
     RDKit          3D

 26 29  0  0  1  0  0  0  0  0999 V2000
    4.7026   46.4301   53.8693 C   0  0  0  0  0  2  0  0  0  0  0  0
    5.6036   46.6940   52.7719 N   0  0  0  0  0  0  0  0  0  0  0  0
    6.9925   46.8366   53.0058 C   0  0  0  0  0  0  0  0  0  0  0  0
    7.3080   47.5622   54.0075 O   0  0  0  0  0  0  0  0  0  0  0  0
    8.0340   46.2209   52.1925 C   0  0  0  0  0  0  0  0  0  0  0  0
    9.3439   46.2132   52.3507 C   0  0  0  0  0  0  0  0  0  0  0  0
    9.9917   45.5001   51.3514 O   0  0  0  0  0  0  0  0  0  0  0  0
    9.0709   44.9937   50.4768 C   0  0  0  0  0  0  0  0  0  0  0  0
    7.7584   45.5185   50.9297 C   0  0  0  0  0  3  0  0  0  0  0  0
    9.0470   44.2267   49.4271 N   0  0  0  0  0  0  0  0  0  0  0  0
    6.8426   44.3643   51.0233 C   0  0  0  0  0  0  0  0  0  0  0  0
    7.7649   43.9482   48.7961 C   0  0  0  0  0  2  0  0  0  0  0  0
    6.7942   43.5455   49.8230 N   0  0  0  0  0  0  0  0  0  0  0  0
   10.1106   46.8744   53.4546 C   0  0  0  0  0  1  0  0  0  0  0  0
    6.1506   44.0697   52.0123 O   0  0  0  0  0  0  0  0  0  0  0  0
    3.2994   46.2582   53.4325 C   0  0  0  0  0  0  0  0  0  0  0  0
    3.0190   46.0736   52.0922 C   0  0  0  0  0  3  0  0  0  0  0  0
    2.3025   46.2880   54.3903 C   0  0  0  0  0  0  0  0  0  0  0  0
    1.6894   45.9198   51.7550 C   0  0  0  0  0  3  0  0  0  0  0  0
    0.9674   46.1303   54.0239 C   0  0  0  0  0  3  0  0  0  0  0  0
    0.6700   45.9446   52.6859 C   0  0  0  0  0  3  0  0  0  0  0  0
    2.5622   46.4725   55.7443 O   0  0  0  0  0  0  0  0  0  0  0  0
    1.5770   46.4437   56.7487 C   0  0  0  0  0  3  0  0  0  0  0  0
    1.3370   45.0056   57.1914 C   0  0  0  0  0  2  0  0  0  0  0  0
    2.0957   46.7062   58.1478 C   0  0  0  0  0  2  0  0  0  0  0  0
    2.4342   45.2134   58.2426 C   0  0  0  0  0  2  0  0  0  0  0  0
  1  2  1  0
  2  3  1  0
  3  4  2  0
  3  5  1  0
  5  6  2  0
  6  7  1  0
  6 14  1  0
  8 10  2  0
  8  7  1  0
  9 11  1  0
  9  5  1  0
  9  8  1  0
 11 13  1  0
 12 10  1  0
 13 12  1  0
 15 11  2  0
 16  1  1  0
 17 16  2  0
 18 22  1  0
 18 16  1  0
 19 17  1  0
 20 18  2  0
 21 20  1  0
 21 19  2  0
 23 22  1  0
 23 25  1  0
 24 26  1  0
 24 23  1  0
 26 25  1  0
M  RAD  8   1   3   9   2  12   3  14   2  17   2  19   2  20   2  21   2
M  RAD  4  23   2  24   3  25   3  26   3
M  END
>  <REMARK>  (1) 
 SMILES Cc1oc2nc[nH]c(=O)c2c1C(=O)NCc1ccccc1OC1CCC1
 SMILES IDX 15 1 14 2 12 3 13 4 11 6 2 7 3 8 4 9 10 10 5 11 8 12 6 13
 SMILES IDX 7 14 1 15 9 16 16 18 17 19 21 20 18 21 20 22 19 23 22 24
 SMILES IDX 23 25 24 26 26 27 25 28
 H PARENT 14 5 7 17

>  <TORSDO>  (1) 
F 5

$$$$
