/home/pchatterjee/Documents/git/vs_workflow/DiffDock/diffdock_run/pdbqt_scrubbed/Z1228382446.pdbqt
     RDKit          3D

 26 29  0  0  1  0  0  0  0  0999 V2000
    4.6610   46.1901   53.6384 C   0  0  0  0  0  2  0  0  0  0  0  0
    5.4715   46.5238   52.4905 N   0  0  0  0  0  0  0  0  0  0  0  0
    6.8431   46.8357   52.6503 C   0  0  0  0  0  0  0  0  0  0  0  0
    7.1011   47.7546   53.4979 O   0  0  0  0  0  0  0  0  0  0  0  0
    7.9274   46.1858   51.9243 C   0  0  0  0  0  0  0  0  0  0  0  0
    9.2333   46.3468   52.0221 C   0  0  0  0  0  0  0  0  0  0  0  0
    9.9331   45.5242   51.1501 O   0  0  0  0  0  0  0  0  0  0  0  0
    9.0543   44.7627   50.4311 C   0  0  0  0  0  0  0  0  0  0  0  0
    7.7024   45.2251   50.8332 C   0  0  0  0  0  3  0  0  0  0  0  0
    9.0915   43.8071   49.5501 N   0  0  0  0  0  0  0  0  0  0  0  0
    6.9237   44.0218   51.1875 C   0  0  0  0  0  0  0  0  0  0  0  0
    7.8341   43.2775   49.0423 C   0  0  0  0  0  2  0  0  0  0  0  0
    6.9389   42.9836   50.1699 N   0  0  0  0  0  0  0  0  0  0  0  0
    9.9471   47.2879   52.9432 C   0  0  0  0  0  1  0  0  0  0  0  0
    6.2925   43.8552   52.2446 O   0  0  0  0  0  0  0  0  0  0  0  0
    3.2133   46.1708   53.3339 C   0  0  0  0  0  0  0  0  0  0  0  0
    2.7766   46.5148   52.0690 C   0  0  0  0  0  3  0  0  0  0  0  0
    2.3337   45.8051   54.3363 C   0  0  0  0  0  0  0  0  0  0  0  0
    1.4137   46.4753   51.8542 C   0  0  0  0  0  3  0  0  0  0  0  0
    0.9619   45.7731   54.0938 C   0  0  0  0  0  3  0  0  0  0  0  0
    0.5086   46.1148   52.8325 C   0  0  0  0  0  3  0  0  0  0  0  0
    2.7512   45.4552   55.6161 O   0  0  0  0  0  0  0  0  0  0  0  0
    1.8779   45.1939   56.6882 C   0  0  0  0  0  3  0  0  0  0  0  0
    2.6838   44.9245   57.9529 C   0  0  0  0  0  2  0  0  0  0  0  0
    1.3461   46.4306   57.3834 C   0  0  0  0  0  2  0  0  0  0  0  0
    2.6193   46.4300   58.2382 C   0  0  0  0  0  2  0  0  0  0  0  0
  1  2  1  0
  2  3  1  0
  3  4  2  0
  3  5  1  0
  5  6  2  0
  6  7  1  0
  6 14  1  0
  8 10  2  0
  8  7  1  0
  9 11  1  0
  9  5  1  0
  9  8  1  0
 11 13  1  0
 12 10  1  0
 13 12  1  0
 15 11  2  0
 16  1  1  0
 17 16  2  0
 18 22  1  0
 18 16  1  0
 19 17  1  0
 20 18  2  0
 21 20  1  0
 21 19  2  0
 23 22  1  0
 23 25  1  0
 24 26  1  0
 24 23  1  0
 26 25  1  0
M  RAD  8   1   3   9   2  12   3  14   2  17   2  19   2  20   2  21   2
M  RAD  4  23   2  24   3  25   3  26   3
M  END
>  <REMARK>  (1) 
 SMILES Cc1oc2nc[nH]c(=O)c2c1C(=O)NCc1ccccc1OC1CCC1
 SMILES IDX 15 1 14 2 12 3 13 4 11 6 2 7 3 8 4 9 10 10 5 11 8 12 6 13
 SMILES IDX 7 14 1 15 9 16 16 18 17 19 21 20 18 21 20 22 19 23 22 24
 SMILES IDX 23 25 24 26 26 27 25 28
 H PARENT 14 5 7 17

>  <TORSDO>  (1) 
F 5

$$$$
