/home/pchatterjee/Documents/git/vs_workflow/DiffDock/diffdock_run/pdbqt_scrubbed/Z1228382446.pdbqt
     RDKit          3D

 26 29  0  0  1  0  0  0  0  0999 V2000
    5.3886   47.0384   53.7122 C   0  0  0  0  0  2  0  0  0  0  0  0
    5.3030   46.5592   52.3525 N   0  0  0  0  0  0  0  0  0  0  0  0
    5.1942   45.1725   52.0889 C   0  0  0  0  0  0  0  0  0  0  0  0
    4.2384   44.5742   52.6869 O   0  0  0  0  0  0  0  0  0  0  0  0
    6.0833   44.4281   51.2054 C   0  0  0  0  0  0  0  0  0  0  0  0
    5.8082   43.5125   50.2961 C   0  0  0  0  0  0  0  0  0  0  0  0
    6.9478   43.0462   49.6553 O   0  0  0  0  0  0  0  0  0  0  0  0
    8.0493   43.6854   50.1526 C   0  0  0  0  0  0  0  0  0  0  0  0
    7.5488   44.5475   51.2523 C   0  0  0  0  0  3  0  0  0  0  0  0
    9.3293   43.7320   49.9289 N   0  0  0  0  0  0  0  0  0  0  0  0
    8.0906   45.9009   51.0189 C   0  0  0  0  0  0  0  0  0  0  0  0
   10.1499   44.6071   50.7537 C   0  0  0  0  0  2  0  0  0  0  0  0
    9.5300   45.9378   50.8176 N   0  0  0  0  0  0  0  0  0  0  0  0
    4.4498   42.9891   49.9432 C   0  0  0  0  0  1  0  0  0  0  0  0
    7.4253   46.9497   50.9864 O   0  0  0  0  0  0  0  0  0  0  0  0
    5.1899   48.5006   53.8199 C   0  0  0  0  0  0  0  0  0  0  0  0
    4.0920   49.0869   53.2200 C   0  0  0  0  0  3  0  0  0  0  0  0
    6.1200   49.2420   54.5254 C   0  0  0  0  0  0  0  0  0  0  0  0
    3.9687   50.4545   53.3601 C   0  0  0  0  0  3  0  0  0  0  0  0
    5.9725   50.6217   54.6523 C   0  0  0  0  0  3  0  0  0  0  0  0
    4.8786   51.2239   54.0575 C   0  0  0  0  0  3  0  0  0  0  0  0
    7.2320   48.6726   55.1370 O   0  0  0  0  0  0  0  0  0  0  0  0
    8.5492   49.1400   54.9737 C   0  0  0  0  0  3  0  0  0  0  0  0
    9.5345   48.0392   55.3467 C   0  0  0  0  0  2  0  0  0  0  0  0
    9.0848   49.0338   53.5603 C   0  0  0  0  0  2  0  0  0  0  0  0
    9.4887   47.5896   53.8811 C   0  0  0  0  0  2  0  0  0  0  0  0
  1  2  1  0
  2  3  1  0
  3  4  2  0
  3  5  1  0
  5  6  2  0
  6  7  1  0
  6 14  1  0
  8 10  2  0
  8  7  1  0
  9 11  1  0
  9  5  1  0
  9  8  1  0
 11 13  1  0
 12 10  1  0
 13 12  1  0
 15 11  2  0
 16  1  1  0
 17 16  2  0
 18 22  1  0
 18 16  1  0
 19 17  1  0
 20 18  2  0
 21 20  1  0
 21 19  2  0
 23 22  1  0
 23 25  1  0
 24 26  1  0
 24 23  1  0
 26 25  1  0
M  RAD  8   1   3   9   2  12   3  14   2  17   2  19   2  20   2  21   2
M  RAD  4  23   2  24   3  25   3  26   3
M  END
>  <REMARK>  (1) 
 SMILES Cc1oc2nc[nH]c(=O)c2c1C(=O)NCc1ccccc1OC1CCC1
 SMILES IDX 15 1 14 2 12 3 13 4 11 6 2 7 3 8 4 9 10 10 5 11 8 12 6 13
 SMILES IDX 7 14 1 15 9 16 16 18 17 19 21 20 18 21 20 22 19 23 22 24
 SMILES IDX 23 25 24 26 26 27 25 28
 H PARENT 14 5 7 17

>  <TORSDO>  (1) 
F 5

$$$$
