/home/pchatterjee/Documents/git/vs_workflow/DiffDock/diffdock_run/pdbqt_scrubbed/Z1228382446.pdbqt
     RDKit          3D

 26 29  0  0  1  0  0  0  0  0999 V2000
    3.9672   45.6705   52.5660 C   0  0  0  0  0  2  0  0  0  0  0  0
    5.3275   45.1936   52.4769 N   0  0  0  0  0  0  0  0  0  0  0  0
    5.7365   44.4011   51.3775 C   0  0  0  0  0  0  0  0  0  0  0  0
    4.8186   43.6974   50.8375 O   0  0  0  0  0  0  0  0  0  0  0  0
    7.0969   44.3526   50.8557 C   0  0  0  0  0  0  0  0  0  0  0  0
    7.5649   43.8064   49.7496 C   0  0  0  0  0  0  0  0  0  0  0  0
    8.9341   43.9877   49.6101 O   0  0  0  0  0  0  0  0  0  0  0  0
    9.4145   44.6996   50.6738 C   0  0  0  0  0  0  0  0  0  0  0  0
    8.2571   44.8896   51.5835 C   0  0  0  0  0  3  0  0  0  0  0  0
   10.5405   45.2170   51.0678 N   0  0  0  0  0  0  0  0  0  0  0  0
    8.1996   46.3278   51.9121 C   0  0  0  0  0  0  0  0  0  0  0  0
   10.5749   45.9268   52.3385 C   0  0  0  0  0  2  0  0  0  0  0  0
    9.4558   46.8773   52.3955 N   0  0  0  0  0  0  0  0  0  0  0  0
    6.7712   43.0631   48.7195 C   0  0  0  0  0  1  0  0  0  0  0  0
    7.1968   47.0536   51.8055 O   0  0  0  0  0  0  0  0  0  0  0  0
    3.3993   45.5372   53.9258 C   0  0  0  0  0  0  0  0  0  0  0  0
    4.2375   45.5798   55.0233 C   0  0  0  0  0  3  0  0  0  0  0  0
    2.0325   45.3726   54.0560 C   0  0  0  0  0  0  0  0  0  0  0  0
    3.6410   45.4493   56.2612 C   0  0  0  0  0  3  0  0  0  0  0  0
    1.4547   45.2431   55.3174 C   0  0  0  0  0  3  0  0  0  0  0  0
    2.2803   45.2836   56.4264 C   0  0  0  0  0  3  0  0  0  0  0  0
    1.1705   45.3269   52.9652 O   0  0  0  0  0  0  0  0  0  0  0  0
   -0.2328   45.3044   53.0677 C   0  0  0  0  0  3  0  0  0  0  0  0
   -0.8343   44.7887   51.7662 C   0  0  0  0  0  2  0  0  0  0  0  0
   -0.7963   44.0634   53.7296 C   0  0  0  0  0  2  0  0  0  0  0  0
   -0.7461   43.3771   52.3591 C   0  0  0  0  0  2  0  0  0  0  0  0
  1  2  1  0
  2  3  1  0
  3  4  2  0
  3  5  1  0
  5  6  2  0
  6  7  1  0
  6 14  1  0
  8 10  2  0
  8  7  1  0
  9 11  1  0
  9  5  1  0
  9  8  1  0
 11 13  1  0
 12 10  1  0
 13 12  1  0
 15 11  2  0
 16  1  1  0
 17 16  2  0
 18 22  1  0
 18 16  1  0
 19 17  1  0
 20 18  2  0
 21 20  1  0
 21 19  2  0
 23 22  1  0
 23 25  1  0
 24 26  1  0
 24 23  1  0
 26 25  1  0
M  RAD  8   1   3   9   2  12   3  14   2  17   2  19   2  20   2  21   2
M  RAD  4  23   2  24   3  25   3  26   3
M  END
>  <REMARK>  (1) 
 SMILES Cc1oc2nc[nH]c(=O)c2c1C(=O)NCc1ccccc1OC1CCC1
 SMILES IDX 15 1 14 2 12 3 13 4 11 6 2 7 3 8 4 9 10 10 5 11 8 12 6 13
 SMILES IDX 7 14 1 15 9 16 16 18 17 19 21 20 18 21 20 22 19 23 22 24
 SMILES IDX 23 25 24 26 26 27 25 28
 H PARENT 14 5 7 17

>  <TORSDO>  (1) 
F 5

$$$$
