/home/pchatterjee/Documents/git/vs_workflow/DiffDock/diffdock_run/pdbqt_scrubbed/Z1212723352.pdbqt
     RDKit          3D

 23 26  0  0  0  0  0  0  0  0999 V2000
    7.4614   43.0006   48.8911 C   0  0  0  0  0  2  0  0  0  0  0  0
    8.2942   43.9854   49.6916 C   0  0  0  0  0  0  0  0  0  0  0  0
    8.8749   45.4963   51.1816 C   0  0  0  0  0  0  0  0  0  0  0  0
    9.9369   45.1634   50.4241 N   0  0  0  0  0  0  0  0  0  0  0  0
    7.8348   44.7432   50.7085 N   0  0  0  0  0  0  0  0  0  0  0  0
    9.5547   44.2682   49.5540 O   0  0  0  0  0  0  0  0  0  0  0  0
    8.8319   46.4426   52.2991 C   0  0  0  0  0  0  0  0  0  0  0  0
    8.9968   48.2459   54.3743 C   0  0  0  0  0  0  0  0  0  0  0  0
   10.1353   47.8333   53.7239 C   0  0  0  0  0  3  0  0  0  0  0  0
    7.7833   47.7438   53.9699 C   0  0  0  0  0  3  0  0  0  0  0  0
   10.0937   46.9351   52.6835 C   0  0  0  0  0  3  0  0  0  0  0  0
    7.7073   46.8467   52.9361 C   0  0  0  0  0  3  0  0  0  0  0  0
    9.1872   49.3936   55.6808 Cl  0  0  0  0  0  0  0  0  0  0  0  0
    6.2001   42.8725   49.6460 N   0  0  0  0  0  0  0  0  0  0  0  0
    5.1940   42.0732   49.0415 C   0  0  0  0  0  0  0  0  0  0  0  0
    5.4884   41.4706   47.8846 N   0  0  0  0  0  0  0  0  0  0  0  0
    3.9425   41.8787   49.5799 C   0  0  0  0  0  0  0  0  0  0  0  0
    4.6133   40.6882   47.2350 C   0  0  0  0  0  3  0  0  0  0  0  0
    3.3505   42.3198   50.6924 N   0  0  0  0  0  0  0  0  0  0  0  0
    3.0703   41.0782   48.8982 C   0  0  0  0  0  0  0  0  0  0  0  0
    3.3945   40.4786   47.7264 N   0  0  0  0  0  0  0  0  0  0  0  0
    2.1196   41.7871   50.6863 C   0  0  0  0  0  3  0  0  0  0  0  0
    1.9266   41.0245   49.5983 N   0  0  0  0  0  0  0  0  0  0  0  0
  1  2  1  0
  2  6  1  0
  3  7  1  0
  3  4  2  0
  5  2  2  0
  5  3  1  0
  6  4  1  0
  7 11  2  0
  8 13  1  0
  8  9  2  0
 10  8  1  0
 11  9  1  0
 12 10  2  0
 12  7  1  0
 14  1  1  0
 15 14  1  0
 16 15  2  0
 17 15  1  0
 17 19  1  0
 18 16  1  0
 20 17  2  0
 21 18  2  0
 21 20  1  0
 22 19  1  0
 23 20  1  0
 23 22  2  0
M  RAD  7   1   3   9   2  10   2  11   2  12   2  18   2  22   2
M  END
>  <REMARK>  (1) 
 SMILES Clc1ccc(-c2noc(CNc3ncnc4nc[nH]c34)n2)cc1
 SMILES IDX 10 1 9 2 6 3 7 4 21 5 8 6 5 7 2 8 3 9 23 10 4 11 22 12 1 13
 SMILES IDX 11 14 12 16 13 17 20 18 14 19 19 20 16 21 15 22 18 23 17 24
 H PARENT 11 15 19 25

>  <TORSDO>  (1) 
F 4

$$$$
