/home/pchatterjee/Documents/git/vs_workflow/DiffDock/diffdock_run/pdbqt_scrubbed/Z1212723352.pdbqt
     RDKit          3D

 23 26  0  0  0  0  0  0  0  0999 V2000
    7.5096   43.3544   48.9031 C   0  0  0  0  0  2  0  0  0  0  0  0
    8.4229   44.2176   49.7544 C   0  0  0  0  0  0  0  0  0  0  0  0
    9.1202   45.6374   51.2834 C   0  0  0  0  0  0  0  0  0  0  0  0
   10.1675   45.1614   50.5840 N   0  0  0  0  0  0  0  0  0  0  0  0
    8.0151   45.0326   50.7487 N   0  0  0  0  0  0  0  0  0  0  0  0
    9.7159   44.3254   49.6887 O   0  0  0  0  0  0  0  0  0  0  0  0
    9.1444   46.5826   52.4024 C   0  0  0  0  0  0  0  0  0  0  0  0
    8.9425   48.3435   54.5105 C   0  0  0  0  0  0  0  0  0  0  0  0
    7.8089   47.8306   53.9262 C   0  0  0  0  0  3  0  0  0  0  0  0
   10.1698   47.9616   54.0246 C   0  0  0  0  0  3  0  0  0  0  0  0
    7.8688   46.9490   52.8726 C   0  0  0  0  0  3  0  0  0  0  0  0
   10.2641   47.0846   52.9752 C   0  0  0  0  0  3  0  0  0  0  0  0
    8.7281   49.4547   55.8445 Cl  0  0  0  0  0  0  0  0  0  0  0  0
    6.3444   43.0749   49.7641 N   0  0  0  0  0  0  0  0  0  0  0  0
    5.3686   42.1975   49.2217 C   0  0  0  0  0  0  0  0  0  0  0  0
    5.6566   41.5802   48.0709 N   0  0  0  0  0  0  0  0  0  0  0  0
    4.1529   41.9421   49.8140 C   0  0  0  0  0  0  0  0  0  0  0  0
    4.8086   40.7264   47.4778 C   0  0  0  0  0  3  0  0  0  0  0  0
    3.5765   42.3785   50.9365 N   0  0  0  0  0  0  0  0  0  0  0  0
    3.3077   41.0695   49.1891 C   0  0  0  0  0  0  0  0  0  0  0  0
    3.6247   40.4566   48.0222 N   0  0  0  0  0  0  0  0  0  0  0  0
    2.3822   41.7709   50.9933 C   0  0  0  0  0  3  0  0  0  0  0  0
    2.1967   40.9660   49.9349 N   0  0  0  0  0  0  0  0  0  0  0  0
  1  2  1  0
  2  6  1  0
  3  7  1  0
  3  4  2  0
  5  2  2  0
  5  3  1  0
  6  4  1  0
  7 11  2  0
  8 13  1  0
  8  9  2  0
 10  8  1  0
 11  9  1  0
 12 10  2  0
 12  7  1  0
 14  1  1  0
 15 14  1  0
 16 15  2  0
 17 15  1  0
 17 19  1  0
 18 16  1  0
 20 17  2  0
 21 18  2  0
 21 20  1  0
 22 19  1  0
 23 20  1  0
 23 22  2  0
M  RAD  7   1   3   9   2  10   2  11   2  12   2  18   2  22   2
M  END
>  <REMARK>  (1) 
 SMILES Clc1ccc(-c2noc(CNc3ncnc4nc[nH]c34)n2)cc1
 SMILES IDX 10 1 9 2 6 3 7 4 21 5 8 6 5 7 2 8 3 9 23 10 4 11 22 12 1 13
 SMILES IDX 11 14 12 16 13 17 20 18 14 19 19 20 16 21 15 22 18 23 17 24
 H PARENT 11 15 19 25

>  <TORSDO>  (1) 
F 4

$$$$
