/home/pchatterjee/Documents/git/vs_workflow/DiffDock/diffdock_run/pdbqt_scrubbed/Z1212723352.pdbqt
     RDKit          3D

 23 26  0  0  0  0  0  0  0  0999 V2000
    7.8947   47.4147   53.0363 C   0  0  0  0  0  2  0  0  0  0  0  0
    6.6097   47.3764   53.8433 C   0  0  0  0  0  0  0  0  0  0  0  0
    4.5095   47.0371   54.4038 C   0  0  0  0  0  0  0  0  0  0  0  0
    5.1819   47.5756   55.4384 N   0  0  0  0  0  0  0  0  0  0  0  0
    5.4248   46.9147   53.3937 N   0  0  0  0  0  0  0  0  0  0  0  0
    6.4201   47.7625   55.0692 O   0  0  0  0  0  0  0  0  0  0  0  0
    3.1014   46.6352   54.3613 C   0  0  0  0  0  0  0  0  0  0  0  0
    0.4750   45.8216   54.5219 C   0  0  0  0  0  0  0  0  0  0  0  0
    1.3006   45.7149   55.6157 C   0  0  0  0  0  3  0  0  0  0  0  0
    0.9837   46.3396   53.3552 C   0  0  0  0  0  3  0  0  0  0  0  0
    2.6170   46.1106   55.5748 C   0  0  0  0  0  3  0  0  0  0  0  0
    2.2917   46.7431   53.2812 C   0  0  0  0  0  3  0  0  0  0  0  0
   -1.1794   45.2837   54.7067 Cl  0  0  0  0  0  0  0  0  0  0  0  0
    7.4801   47.1143   51.6525 N   0  0  0  0  0  0  0  0  0  0  0  0
    8.2221   46.1017   50.9887 C   0  0  0  0  0  0  0  0  0  0  0  0
    9.5563   46.1639   51.0523 N   0  0  0  0  0  0  0  0  0  0  0  0
    7.6485   45.0615   50.2938 C   0  0  0  0  0  0  0  0  0  0  0  0
   10.3501   45.2542   50.4672 C   0  0  0  0  0  3  0  0  0  0  0  0
    6.3817   44.7164   50.0513 N   0  0  0  0  0  0  0  0  0  0  0  0
    8.4791   44.1494   49.7069 C   0  0  0  0  0  0  0  0  0  0  0  0
    9.8296   44.2358   49.7870 N   0  0  0  0  0  0  0  0  0  0  0  0
    6.4432   43.5951   49.3179 C   0  0  0  0  0  3  0  0  0  0  0  0
    7.7160   43.2305   49.0951 N   0  0  0  0  0  0  0  0  0  0  0  0
  1  2  1  0
  2  6  1  0
  3  7  1  0
  3  4  2  0
  5  2  2  0
  5  3  1  0
  6  4  1  0
  7 11  2  0
  8 13  1  0
  8  9  2  0
 10  8  1  0
 11  9  1  0
 12 10  2  0
 12  7  1  0
 14  1  1  0
 15 14  1  0
 16 15  2  0
 17 15  1  0
 17 19  1  0
 18 16  1  0
 20 17  2  0
 21 18  2  0
 21 20  1  0
 22 19  1  0
 23 20  1  0
 23 22  2  0
M  RAD  7   1   3   9   2  10   2  11   2  12   2  18   2  22   2
M  END
>  <REMARK>  (1) 
 SMILES Clc1ccc(-c2noc(CNc3ncnc4nc[nH]c34)n2)cc1
 SMILES IDX 10 1 9 2 6 3 7 4 21 5 8 6 5 7 2 8 3 9 23 10 4 11 22 12 1 13
 SMILES IDX 11 14 12 16 13 17 20 18 14 19 19 20 16 21 15 22 18 23 17 24
 H PARENT 11 15 19 25

>  <TORSDO>  (1) 
F 4

$$$$
