/home/pchatterjee/Documents/git/vs_workflow/DiffDock/diffdock_run/pdbqt_scrubbed/Z1212723352.pdbqt
     RDKit          3D

 23 26  0  0  0  0  0  0  0  0999 V2000
    7.1068   43.5300   48.8177 C   0  0  0  0  0  2  0  0  0  0  0  0
    8.0745   44.1861   49.7859 C   0  0  0  0  0  0  0  0  0  0  0  0
    8.8757   45.4649   51.3866 C   0  0  0  0  0  0  0  0  0  0  0  0
    9.8623   44.7192   50.8546 N   0  0  0  0  0  0  0  0  0  0  0  0
    7.7428   45.1201   50.7007 N   0  0  0  0  0  0  0  0  0  0  0  0
    9.3505   43.9762   49.9109 O   0  0  0  0  0  0  0  0  0  0  0  0
    8.9728   46.4268   52.4873 C   0  0  0  0  0  0  0  0  0  0  0  0
    8.9108   48.2077   54.5874 C   0  0  0  0  0  0  0  0  0  0  0  0
    7.7477   47.6335   54.1324 C   0  0  0  0  0  3  0  0  0  0  0  0
   10.0967   47.8765   53.9773 C   0  0  0  0  0  3  0  0  0  0  0  0
    7.7381   46.7400   53.0871 C   0  0  0  0  0  3  0  0  0  0  0  0
   10.1215   46.9892   52.9326 C   0  0  0  0  0  3  0  0  0  0  0  0
    8.7857   49.3275   55.9256 Cl  0  0  0  0  0  0  0  0  0  0  0  0
    6.5578   42.3769   49.5567 N   0  0  0  0  0  0  0  0  0  0  0  0
    5.2059   42.4950   49.9749 C   0  0  0  0  0  0  0  0  0  0  0  0
    4.9294   43.3669   50.9503 N   0  0  0  0  0  0  0  0  0  0  0  0
    4.1688   41.7722   49.4309 C   0  0  0  0  0  0  0  0  0  0  0  0
    3.6855   43.5611   51.4137 C   0  0  0  0  0  3  0  0  0  0  0  0
    4.1076   40.8510   48.4663 N   0  0  0  0  0  0  0  0  0  0  0  0
    2.9122   41.9884   49.9212 C   0  0  0  0  0  0  0  0  0  0  0  0
    2.6592   42.8793   50.9112 N   0  0  0  0  0  0  0  0  0  0  0  0
    2.8144   40.5084   48.3708 C   0  0  0  0  0  3  0  0  0  0  0  0
    2.0654   41.1914   49.2512 N   0  0  0  0  0  0  0  0  0  0  0  0
  1  2  1  0
  2  6  1  0
  3  7  1  0
  3  4  2  0
  5  2  2  0
  5  3  1  0
  6  4  1  0
  7 11  2  0
  8 13  1  0
  8  9  2  0
 10  8  1  0
 11  9  1  0
 12 10  2  0
 12  7  1  0
 14  1  1  0
 15 14  1  0
 16 15  2  0
 17 15  1  0
 17 19  1  0
 18 16  1  0
 20 17  2  0
 21 18  2  0
 21 20  1  0
 22 19  1  0
 23 20  1  0
 23 22  2  0
M  RAD  7   1   3   9   2  10   2  11   2  12   2  18   2  22   2
M  END
>  <REMARK>  (1) 
 SMILES Clc1ccc(-c2noc(CNc3ncnc4nc[nH]c34)n2)cc1
 SMILES IDX 10 1 9 2 6 3 7 4 21 5 8 6 5 7 2 8 3 9 23 10 4 11 22 12 1 13
 SMILES IDX 11 14 12 16 13 17 20 18 14 19 19 20 16 21 15 22 18 23 17 24
 H PARENT 11 15 19 25

>  <TORSDO>  (1) 
F 4

$$$$
