/home/pchatterjee/Documents/git/vs_workflow/DiffDock/diffdock_run/pdbqt_scrubbed/Z1212723352.pdbqt
     RDKit          3D

 23 26  0  0  0  0  0  0  0  0999 V2000
    7.5226   43.2038   48.8265 C   0  0  0  0  0  2  0  0  0  0  0  0
    8.4374   44.0835   49.6591 C   0  0  0  0  0  0  0  0  0  0  0  0
    9.1488   45.4746   51.2079 C   0  0  0  0  0  0  0  0  0  0  0  0
   10.1740   45.0964   50.4214 N   0  0  0  0  0  0  0  0  0  0  0  0
    8.0486   44.8265   50.7156 N   0  0  0  0  0  0  0  0  0  0  0  0
    9.7146   44.2745   49.5170 O   0  0  0  0  0  0  0  0  0  0  0  0
    9.1908   46.3687   52.3677 C   0  0  0  0  0  0  0  0  0  0  0  0
    9.0249   48.0166   54.5683 C   0  0  0  0  0  0  0  0  0  0  0  0
    7.8884   47.4539   54.0378 C   0  0  0  0  0  3  0  0  0  0  0  0
   10.2368   47.7412   53.9822 C   0  0  0  0  0  3  0  0  0  0  0  0
    7.9307   46.6260   52.9406 C   0  0  0  0  0  3  0  0  0  0  0  0
   10.3134   46.9200   52.8872 C   0  0  0  0  0  3  0  0  0  0  0  0
    8.8338   49.0503   55.9666 Cl  0  0  0  0  0  0  0  0  0  0  0  0
    6.3213   43.0121   49.6614 N   0  0  0  0  0  0  0  0  0  0  0  0
    5.2712   42.2583   49.0735 C   0  0  0  0  0  0  0  0  0  0  0  0
    5.5161   41.6539   47.9061 N   0  0  0  0  0  0  0  0  0  0  0  0
    4.0250   42.1093   49.6381 C   0  0  0  0  0  0  0  0  0  0  0  0
    4.5965   40.9122   47.2704 C   0  0  0  0  0  3  0  0  0  0  0  0
    3.4754   42.5645   50.7665 N   0  0  0  0  0  0  0  0  0  0  0  0
    3.1069   41.3497   48.9700 C   0  0  0  0  0  0  0  0  0  0  0  0
    3.3814   40.7472   47.7870 N   0  0  0  0  0  0  0  0  0  0  0  0
    2.2244   42.0812   50.7838 C   0  0  0  0  0  3  0  0  0  0  0  0
    1.9775   41.3357   49.6948 N   0  0  0  0  0  0  0  0  0  0  0  0
  1  2  1  0
  2  6  1  0
  3  7  1  0
  3  4  2  0
  5  2  2  0
  5  3  1  0
  6  4  1  0
  7 11  2  0
  8 13  1  0
  8  9  2  0
 10  8  1  0
 11  9  1  0
 12 10  2  0
 12  7  1  0
 14  1  1  0
 15 14  1  0
 16 15  2  0
 17 15  1  0
 17 19  1  0
 18 16  1  0
 20 17  2  0
 21 18  2  0
 21 20  1  0
 22 19  1  0
 23 20  1  0
 23 22  2  0
M  RAD  7   1   3   9   2  10   2  11   2  12   2  18   2  22   2
M  END
>  <REMARK>  (1) 
 SMILES Clc1ccc(-c2noc(CNc3ncnc4nc[nH]c34)n2)cc1
 SMILES IDX 10 1 9 2 6 3 7 4 21 5 8 6 5 7 2 8 3 9 23 10 4 11 22 12 1 13
 SMILES IDX 11 14 12 16 13 17 20 18 14 19 19 20 16 21 15 22 18 23 17 24
 H PARENT 11 15 19 25

>  <TORSDO>  (1) 
F 4

$$$$
