/home/pchatterjee/Documents/git/vs_workflow/DiffDock/diffdock_run/pdbqt_scrubbed/Z1212723352.pdbqt
     RDKit          3D

 23 26  0  0  0  0  0  0  0  0999 V2000
    8.6623   46.2960   53.7088 C   0  0  0  0  0  2  0  0  0  0  0  0
    7.9586   47.5633   54.1591 C   0  0  0  0  0  0  0  0  0  0  0  0
    6.4449   49.1464   54.3646 C   0  0  0  0  0  0  0  0  0  0  0  0
    7.5026   49.4142   55.1534 N   0  0  0  0  0  0  0  0  0  0  0  0
    6.7437   47.9683   53.7356 N   0  0  0  0  0  0  0  0  0  0  0  0
    8.3772   48.4564   55.0046 O   0  0  0  0  0  0  0  0  0  0  0  0
    5.2137   49.9271   54.2202 C   0  0  0  0  0  0  0  0  0  0  0  0
    2.9956   51.5561   54.1103 C   0  0  0  0  0  0  0  0  0  0  0  0
    4.0367   51.8606   54.9546 C   0  0  0  0  0  3  0  0  0  0  0  0
    3.0842   50.4302   53.3275 C   0  0  0  0  0  3  0  0  0  0  0  0
    5.1606   51.0725   55.0372 C   0  0  0  0  0  3  0  0  0  0  0  0
    4.1909   49.6233   53.3862 C   0  0  0  0  0  3  0  0  0  0  0  0
    1.6241   52.6420   54.0994 Cl  0  0  0  0  0  0  0  0  0  0  0  0
    7.6990   45.6278   52.8129 N   0  0  0  0  0  0  0  0  0  0  0  0
    8.2337   45.1073   51.6048 C   0  0  0  0  0  0  0  0  0  0  0  0
    9.4874   45.4430   51.2826 N   0  0  0  0  0  0  0  0  0  0  0  0
    7.5410   44.2752   50.7552 C   0  0  0  0  0  0  0  0  0  0  0  0
   10.0897   45.0003   50.1686 C   0  0  0  0  0  3  0  0  0  0  0  0
    6.3097   43.7600   50.7876 N   0  0  0  0  0  0  0  0  0  0  0  0
    8.1771   43.8392   49.6275 C   0  0  0  0  0  0  0  0  0  0  0  0
    9.4496   44.1949   49.3246 N   0  0  0  0  0  0  0  0  0  0  0  0
    6.1983   43.0112   49.6805 C   0  0  0  0  0  3  0  0  0  0  0  0
    7.3284   43.0454   48.9562 N   0  0  0  0  0  0  0  0  0  0  0  0
  1  2  1  0
  2  6  1  0
  3  7  1  0
  3  4  2  0
  5  2  2  0
  5  3  1  0
  6  4  1  0
  7 11  2  0
  8 13  1  0
  8  9  2  0
 10  8  1  0
 11  9  1  0
 12 10  2  0
 12  7  1  0
 14  1  1  0
 15 14  1  0
 16 15  2  0
 17 15  1  0
 17 19  1  0
 18 16  1  0
 20 17  2  0
 21 18  2  0
 21 20  1  0
 22 19  1  0
 23 20  1  0
 23 22  2  0
M  RAD  7   1   3   9   2  10   2  11   2  12   2  18   2  22   2
M  END
>  <REMARK>  (1) 
 SMILES Clc1ccc(-c2noc(CNc3ncnc4nc[nH]c34)n2)cc1
 SMILES IDX 10 1 9 2 6 3 7 4 21 5 8 6 5 7 2 8 3 9 23 10 4 11 22 12 1 13
 SMILES IDX 11 14 12 16 13 17 20 18 14 19 19 20 16 21 15 22 18 23 17 24
 H PARENT 11 15 19 25

>  <TORSDO>  (1) 
F 4

$$$$
