/home/pchatterjee/Documents/git/vs_workflow/DiffDock/diffdock_run/pdbqt_scrubbed/Z1212723352.pdbqt
     RDKit          3D

 23 26  0  0  0  0  0  0  0  0999 V2000
    5.1140   44.8265   51.8366 C   0  0  0  0  0  2  0  0  0  0  0  0
    4.0454   45.8282   52.2350 C   0  0  0  0  0  0  0  0  0  0  0  0
    3.0495   47.7241   52.7388 C   0  0  0  0  0  0  0  0  0  0  0  0
    2.1676   46.7087   52.8017 N   0  0  0  0  0  0  0  0  0  0  0  0
    4.2408   47.1551   52.3786 N   0  0  0  0  0  0  0  0  0  0  0  0
    2.7931   45.6037   52.4981 O   0  0  0  0  0  0  0  0  0  0  0  0
    2.7964   49.1474   52.9757 C   0  0  0  0  0  0  0  0  0  0  0  0
    2.5637   51.8606   53.3883 C   0  0  0  0  0  0  0  0  0  0  0  0
    3.7985   51.2970   53.1712 C   0  0  0  0  0  3  0  0  0  0  0  0
    1.4557   51.0479   53.3945 C   0  0  0  0  0  3  0  0  0  0  0  0
    3.9551   49.9471   52.9610 C   0  0  0  0  0  3  0  0  0  0  0  0
    1.5776   49.6981   53.1884 C   0  0  0  0  0  3  0  0  0  0  0  0
    2.5016   53.5906   53.6407 Cl  0  0  0  0  0  0  0  0  0  0  0  0
    6.2603   45.6494   51.4055 N   0  0  0  0  0  0  0  0  0  0  0  0
    7.3757   44.9376   50.8899 C   0  0  0  0  0  0  0  0  0  0  0  0
    7.1366   43.9477   50.0232 N   0  0  0  0  0  0  0  0  0  0  0  0
    8.6821   45.2125   51.2240 C   0  0  0  0  0  0  0  0  0  0  0  0
    8.1182   43.2184   49.4715 C   0  0  0  0  0  3  0  0  0  0  0  0
    9.2457   46.1138   52.0319 N   0  0  0  0  0  0  0  0  0  0  0  0
    9.6624   44.4548   50.6487 C   0  0  0  0  0  0  0  0  0  0  0  0
    9.3924   43.4565   49.7723 N   0  0  0  0  0  0  0  0  0  0  0  0
   10.5676   45.9036   51.9469 C   0  0  0  0  0  3  0  0  0  0  0  0
   10.8451   44.8937   51.1068 N   0  0  0  0  0  0  0  0  0  0  0  0
  1  2  1  0
  2  6  1  0
  3  7  1  0
  3  4  2  0
  5  2  2  0
  5  3  1  0
  6  4  1  0
  7 11  2  0
  8 13  1  0
  8  9  2  0
 10  8  1  0
 11  9  1  0
 12 10  2  0
 12  7  1  0
 14  1  1  0
 15 14  1  0
 16 15  2  0
 17 15  1  0
 17 19  1  0
 18 16  1  0
 20 17  2  0
 21 18  2  0
 21 20  1  0
 22 19  1  0
 23 20  1  0
 23 22  2  0
M  RAD  7   1   3   9   2  10   2  11   2  12   2  18   2  22   2
M  END
>  <REMARK>  (1) 
 SMILES Clc1ccc(-c2noc(CNc3ncnc4nc[nH]c34)n2)cc1
 SMILES IDX 10 1 9 2 6 3 7 4 21 5 8 6 5 7 2 8 3 9 23 10 4 11 22 12 1 13
 SMILES IDX 11 14 12 16 13 17 20 18 14 19 19 20 16 21 15 22 18 23 17 24
 H PARENT 11 15 19 25

>  <TORSDO>  (1) 
F 4

$$$$
