/home/pchatterjee/Documents/git/vs_workflow/DiffDock/diffdock_run/pdbqt_scrubbed/Z1212723352.pdbqt
     RDKit          3D

 23 26  0  0  0  0  0  0  0  0999 V2000
    5.2142   45.5294   52.8044 C   0  0  0  0  0  2  0  0  0  0  0  0
    4.0588   44.6582   52.3459 C   0  0  0  0  0  0  0  0  0  0  0  0
    2.9036   43.1202   51.2783 C   0  0  0  0  0  0  0  0  0  0  0  0
    2.1054   43.7852   52.1345 N   0  0  0  0  0  0  0  0  0  0  0  0
    4.1434   43.6823   51.4187 N   0  0  0  0  0  0  0  0  0  0  0  0
    2.8235   44.6871   52.7473 O   0  0  0  0  0  0  0  0  0  0  0  0
    2.5425   42.0080   50.3958 C   0  0  0  0  0  0  0  0  0  0  0  0
    2.0694   39.9675   48.6074 C   0  0  0  0  0  0  0  0  0  0  0  0
    3.1543   40.7952   48.4418 C   0  0  0  0  0  3  0  0  0  0  0  0
    1.2321   40.1777   49.6765 C   0  0  0  0  0  3  0  0  0  0  0  0
    3.4240   41.8241   49.3134 C   0  0  0  0  0  3  0  0  0  0  0  0
    1.4728   41.1947   50.5636 C   0  0  0  0  0  3  0  0  0  0  0  0
    1.8402   38.6954   47.4286 Cl  0  0  0  0  0  0  0  0  0  0  0  0
    5.7021   46.1858   51.5763 N   0  0  0  0  0  0  0  0  0  0  0  0
    6.7920   45.5505   50.9246 C   0  0  0  0  0  0  0  0  0  0  0  0
    6.5271   44.8186   49.8373 N   0  0  0  0  0  0  0  0  0  0  0  0
    8.0995   45.6512   51.3422 C   0  0  0  0  0  0  0  0  0  0  0  0
    7.4840   44.1838   49.1436 C   0  0  0  0  0  3  0  0  0  0  0  0
    8.6852   46.2906   52.3574 N   0  0  0  0  0  0  0  0  0  0  0  0
    9.0544   44.9947   50.6186 C   0  0  0  0  0  0  0  0  0  0  0  0
    8.7584   44.2590   49.5191 N   0  0  0  0  0  0  0  0  0  0  0  0
    9.9951   46.0228   52.2502 C   0  0  0  0  0  3  0  0  0  0  0  0
   10.2434   45.2318   51.1940 N   0  0  0  0  0  0  0  0  0  0  0  0
  1  2  1  0
  2  6  1  0
  3  7  1  0
  3  4  2  0
  5  2  2  0
  5  3  1  0
  6  4  1  0
  7 11  2  0
  8 13  1  0
  8  9  2  0
 10  8  1  0
 11  9  1  0
 12 10  2  0
 12  7  1  0
 14  1  1  0
 15 14  1  0
 16 15  2  0
 17 15  1  0
 17 19  1  0
 18 16  1  0
 20 17  2  0
 21 18  2  0
 21 20  1  0
 22 19  1  0
 23 20  1  0
 23 22  2  0
M  RAD  7   1   3   9   2  10   2  11   2  12   2  18   2  22   2
M  END
>  <REMARK>  (1) 
 SMILES Clc1ccc(-c2noc(CNc3ncnc4nc[nH]c34)n2)cc1
 SMILES IDX 10 1 9 2 6 3 7 4 21 5 8 6 5 7 2 8 3 9 23 10 4 11 22 12 1 13
 SMILES IDX 11 14 12 16 13 17 20 18 14 19 19 20 16 21 15 22 18 23 17 24
 H PARENT 11 15 19 25

>  <TORSDO>  (1) 
F 4

$$$$
