/home/pchatterjee/Documents/git/vs_workflow/DiffDock/diffdock_run/pdbqt_scrubbed/Z1212723352.pdbqt
     RDKit          3D

 23 26  0  0  0  0  0  0  0  0999 V2000
    4.8513   45.4543   51.8764 C   0  0  0  0  0  2  0  0  0  0  0  0
    4.6302   46.3055   53.1136 C   0  0  0  0  0  0  0  0  0  0  0  0
    4.8816   47.8704   54.6393 C   0  0  0  0  0  0  0  0  0  0  0  0
    3.8174   47.1016   54.9379 N   0  0  0  0  0  0  0  0  0  0  0  0
    5.3927   47.3566   53.4784 N   0  0  0  0  0  0  0  0  0  0  0  0
    3.7008   46.1870   54.0136 O   0  0  0  0  0  0  0  0  0  0  0  0
    5.3830   49.0329   55.3765 C   0  0  0  0  0  0  0  0  0  0  0  0
    6.5267   51.2095   56.6173 C   0  0  0  0  0  0  0  0  0  0  0  0
    7.2037   50.5454   55.6222 C   0  0  0  0  0  3  0  0  0  0  0  0
    5.2761   50.7682   56.9770 C   0  0  0  0  0  3  0  0  0  0  0  0
    6.6659   49.4554   54.9791 C   0  0  0  0  0  3  0  0  0  0  0  0
    4.7117   49.6844   56.3557 C   0  0  0  0  0  3  0  0  0  0  0  0
    7.3221   52.5825   57.3540 Cl  0  0  0  0  0  0  0  0  0  0  0  0
    5.8494   46.1958   51.0819 N   0  0  0  0  0  0  0  0  0  0  0  0
    6.9660   45.4435   50.6306 C   0  0  0  0  0  0  0  0  0  0  0  0
    6.7312   44.4014   49.8262 N   0  0  0  0  0  0  0  0  0  0  0  0
    8.2696   45.7294   50.9664 C   0  0  0  0  0  0  0  0  0  0  0  0
    7.7146   43.6304   49.3380 C   0  0  0  0  0  3  0  0  0  0  0  0
    8.8290   46.6767   51.7230 N   0  0  0  0  0  0  0  0  0  0  0  0
    9.2518   44.9285   50.4565 C   0  0  0  0  0  0  0  0  0  0  0  0
    8.9862   43.8776   49.6423 N   0  0  0  0  0  0  0  0  0  0  0  0
   10.1501   46.4513   51.6722 C   0  0  0  0  0  3  0  0  0  0  0  0
   10.4313   45.3870   50.9035 N   0  0  0  0  0  0  0  0  0  0  0  0
  1  2  1  0
  2  6  1  0
  3  7  1  0
  3  4  2  0
  5  2  2  0
  5  3  1  0
  6  4  1  0
  7 11  2  0
  8 13  1  0
  8  9  2  0
 10  8  1  0
 11  9  1  0
 12 10  2  0
 12  7  1  0
 14  1  1  0
 15 14  1  0
 16 15  2  0
 17 15  1  0
 17 19  1  0
 18 16  1  0
 20 17  2  0
 21 18  2  0
 21 20  1  0
 22 19  1  0
 23 20  1  0
 23 22  2  0
M  RAD  7   1   3   9   2  10   2  11   2  12   2  18   2  22   2
M  END
>  <REMARK>  (1) 
 SMILES Clc1ccc(-c2noc(CNc3ncnc4nc[nH]c34)n2)cc1
 SMILES IDX 10 1 9 2 6 3 7 4 21 5 8 6 5 7 2 8 3 9 23 10 4 11 22 12 1 13
 SMILES IDX 11 14 12 16 13 17 20 18 14 19 19 20 16 21 15 22 18 23 17 24
 H PARENT 11 15 19 25

>  <TORSDO>  (1) 
F 4

$$$$
