/home/pchatterjee/Documents/git/vs_workflow/DiffDock/diffdock_run/pdbqt_scrubbed/Z1212723352.pdbqt
     RDKit          3D

 23 26  0  0  0  0  0  0  0  0999 V2000
    5.0559   42.3228   50.7386 C   0  0  0  0  0  2  0  0  0  0  0  0
    3.5931   42.3362   51.1435 C   0  0  0  0  0  0  0  0  0  0  0  0
    1.6797   42.9712   52.0244 C   0  0  0  0  0  0  0  0  0  0  0  0
    1.5258   41.7968   51.3842 N   0  0  0  0  0  0  0  0  0  0  0  0
    2.9972   43.3063   51.8669 N   0  0  0  0  0  0  0  0  0  0  0  0
    2.6784   41.4530   50.8767 O   0  0  0  0  0  0  0  0  0  0  0  0
    0.6562   43.7524   52.7231 C   0  0  0  0  0  0  0  0  0  0  0  0
   -1.1432   45.4245   53.9687 C   0  0  0  0  0  0  0  0  0  0  0  0
   -0.0303   45.9429   53.3506 C   0  0  0  0  0  3  0  0  0  0  0  0
   -1.3381   44.0644   53.9518 C   0  0  0  0  0  3  0  0  0  0  0  0
    0.8903   45.1408   52.7180 C   0  0  0  0  0  3  0  0  0  0  0  0
   -0.4392   43.2371   53.3300 C   0  0  0  0  0  3  0  0  0  0  0  0
   -2.2372   46.5538   54.7358 Cl  0  0  0  0  0  0  0  0  0  0  0  0
    5.5042   43.7194   50.8983 N   0  0  0  0  0  0  0  0  0  0  0  0
    6.7772   44.0287   50.3504 C   0  0  0  0  0  0  0  0  0  0  0  0
    7.1098   43.4595   49.1870 N   0  0  0  0  0  0  0  0  0  0  0  0
    7.6800   44.8824   50.9421 C   0  0  0  0  0  0  0  0  0  0  0  0
    8.2839   43.6899   48.5802 C   0  0  0  0  0  3  0  0  0  0  0  0
    7.6543   45.5971   52.0696 N   0  0  0  0  0  0  0  0  0  0  0  0
    8.8682   45.0993   50.3039 C   0  0  0  0  0  0  0  0  0  0  0  0
    9.1804   44.5092   49.1241 N   0  0  0  0  0  0  0  0  0  0  0  0
    8.8262   46.2479   52.1158 C   0  0  0  0  0  3  0  0  0  0  0  0
    9.5842   45.9581   51.0462 N   0  0  0  0  0  0  0  0  0  0  0  0
  1  2  1  0
  2  6  1  0
  3  7  1  0
  3  4  2  0
  5  2  2  0
  5  3  1  0
  6  4  1  0
  7 11  2  0
  8 13  1  0
  8  9  2  0
 10  8  1  0
 11  9  1  0
 12 10  2  0
 12  7  1  0
 14  1  1  0
 15 14  1  0
 16 15  2  0
 17 15  1  0
 17 19  1  0
 18 16  1  0
 20 17  2  0
 21 18  2  0
 21 20  1  0
 22 19  1  0
 23 20  1  0
 23 22  2  0
M  RAD  7   1   3   9   2  10   2  11   2  12   2  18   2  22   2
M  END
>  <REMARK>  (1) 
 SMILES Clc1ccc(-c2noc(CNc3ncnc4nc[nH]c34)n2)cc1
 SMILES IDX 10 1 9 2 6 3 7 4 21 5 8 6 5 7 2 8 3 9 23 10 4 11 22 12 1 13
 SMILES IDX 11 14 12 16 13 17 20 18 14 19 19 20 16 21 15 22 18 23 17 24
 H PARENT 11 15 19 25

>  <TORSDO>  (1) 
F 4

$$$$
