/home/pchatterjee/Documents/git/vs_workflow/DiffDock/diffdock_run/pdbqt_scrubbed/49863196.pdbqt
     RDKit          3D

 23 26  0  0  1  0  0  0  0  0999 V2000
    7.5629   46.6961   52.3559 O   0  0  0  0  0  0  0  0  0  0  0  0
    8.1331   45.7969   51.4984 C   0  0  0  0  0  0  0  0  0  0  0  0
    5.8985   43.8562   49.4823 C   0  0  0  0  0  3  0  0  0  0  0  0
    7.2271   43.3528   49.1544 N   0  0  0  0  0  0  0  0  0  0  0  0
    6.1129   44.5495   50.7855 N   0  0  0  0  0  0  0  0  0  0  0  0
    8.1249   44.0254   49.7930 C   0  0  0  0  0  0  0  0  0  0  0  0
    7.4053   45.0108   50.5868 C   0  0  0  0  0  3  0  0  0  0  0  0
    9.5529   44.0145   49.8959 N   0  0  0  0  0  0  0  0  0  0  0  0
   10.1658   44.7873   50.7160 C   0  0  0  0  0  3  0  0  0  0  0  0
    9.4465   45.6772   51.5276 N   0  0  0  0  0  0  0  0  0  0  0  0
    4.9500   42.7092   49.7034 C   0  0  0  0  0  0  0  0  0  0  0  0
    3.0271   41.7377   50.7725 C   0  0  0  0  0  3  0  0  0  0  0  0
    3.2170   40.5589   50.0823 C   0  0  0  0  0  3  0  0  0  0  0  0
    3.8896   42.8028   50.5815 C   0  0  0  0  0  3  0  0  0  0  0  0
    4.2477   40.4846   49.2364 N   0  0  0  0  0  0  0  0  0  0  0  0
    5.0972   41.5085   49.0369 C   0  0  0  0  0  3  0  0  0  0  0  0
    8.2373   47.8742   52.8103 C   0  0  0  0  0  2  0  0  0  0  0  0
    8.2799   47.8408   54.3049 C   0  0  0  0  0  3  0  0  0  0  0  0
    7.4489   48.8154   55.0135 C   0  0  0  0  0  2  0  0  0  0  0  0
    9.5219   47.3522   54.9172 C   0  0  0  0  0  2  0  0  0  0  0  0
    8.1449   49.6493   56.0449 C   0  0  0  0  0  2  0  0  0  0  0  0
   10.0637   48.1685   56.0556 C   0  0  0  0  0  2  0  0  0  0  0  0
    9.6367   49.6157   55.9567 C   0  0  0  0  0  2  0  0  0  0  0  0
  1 17  1  0
  1  2  1  0
  2 10  2  0
  3 11  1  0
  3  4  1  0
  4  6  2  0
  5  3  1  0
  5  7  1  0
  6  8  1  0
  7  2  1  0
  7  6  1  0
  8  9  2  0
 10  9  1  0
 11 14  1  0
 12 14  2  0
 13 12  1  0
 15 13  2  0
 15 16  1  0
 16 11  2  0
 18 17  1  0
 18 20  1  0
 19 18  1  0
 21 23  1  0
 21 19  1  0
 22 20  1  0
 23 22  1  0
M  RAD  8   3   2   7   2   9   2  12   2  13   2  14   2  16   2  17   3
M  RAD  6  18   2  19   3  20   3  21   3  22   3  23   3
M  END
>  <REMARK>  (1) 
 SMILES c1cncc(-c2nc3ncnc(OCC4CCCCC4)c3[nH]2)c1
 SMILES IDX 13 1 12 2 6 3 7 4 22 5 8 6 21 7 9 8 10 9 11 10 5 12 1 13
 SMILES IDX 2 14 23 15 3 16 4 17 14 18 15 19 16 20 20 21 17 22 19 23
 SMILES IDX 18 24
 H PARENT 22 11

>  <TORSDO>  (1) 
F 4

$$$$
