/home/pchatterjee/Documents/git/vs_workflow/DiffDock/diffdock_run/pdbqt_scrubbed/49863196.pdbqt
     RDKit          3D

 23 26  0  0  1  0  0  0  0  0999 V2000
    7.5620   46.4647   52.5235 O   0  0  0  0  0  0  0  0  0  0  0  0
    8.1302   45.6682   51.5687 C   0  0  0  0  0  0  0  0  0  0  0  0
    5.8895   43.8300   49.4651 C   0  0  0  0  0  3  0  0  0  0  0  0
    7.2214   43.4096   49.0464 N   0  0  0  0  0  0  0  0  0  0  0  0
    6.1293   44.4121   50.8174 N   0  0  0  0  0  0  0  0  0  0  0  0
    8.1188   44.0567   49.7112 C   0  0  0  0  0  0  0  0  0  0  0  0
    7.3960   44.9389   50.6159 C   0  0  0  0  0  3  0  0  0  0  0  0
    9.5493   44.0919   49.7625 N   0  0  0  0  0  0  0  0  0  0  0  0
   10.1657   44.8116   50.6270 C   0  0  0  0  0  3  0  0  0  0  0  0
    9.4472   45.5972   51.5407 N   0  0  0  0  0  0  0  0  0  0  0  0
    4.9913   42.6321   49.6148 C   0  0  0  0  0  0  0  0  0  0  0  0
    4.3537   40.3873   49.0326 C   0  0  0  0  0  3  0  0  0  0  0  0
    3.3025   40.4360   49.9240 C   0  0  0  0  0  3  0  0  0  0  0  0
    5.1897   41.4797   48.8821 C   0  0  0  0  0  3  0  0  0  0  0  0
    3.1241   41.5585   50.6252 N   0  0  0  0  0  0  0  0  0  0  0  0
    3.9257   42.6308   50.4933 C   0  0  0  0  0  3  0  0  0  0  0  0
    8.0740   46.5684   53.8563 C   0  0  0  0  0  2  0  0  0  0  0  0
    8.6948   47.9199   54.0144 C   0  0  0  0  0  3  0  0  0  0  0  0
   10.0353   47.9689   54.6002 C   0  0  0  0  0  2  0  0  0  0  0  0
    7.7745   49.0502   54.1914 C   0  0  0  0  0  2  0  0  0  0  0  0
   10.2122   48.8934   55.7653 C   0  0  0  0  0  2  0  0  0  0  0  0
    8.1202   50.0194   55.2855 C   0  0  0  0  0  2  0  0  0  0  0  0
    8.9314   49.3605   56.3783 C   0  0  0  0  0  2  0  0  0  0  0  0
  1 17  1  0
  1  2  1  0
  2 10  2  0
  3 11  1  0
  3  4  1  0
  4  6  2  0
  5  3  1  0
  5  7  1  0
  6  8  1  0
  7  2  1  0
  7  6  1  0
  8  9  2  0
 10  9  1  0
 11 14  1  0
 12 14  2  0
 13 12  1  0
 15 13  2  0
 15 16  1  0
 16 11  2  0
 18 17  1  0
 18 20  1  0
 19 18  1  0
 21 23  1  0
 21 19  1  0
 22 20  1  0
 23 22  1  0
M  RAD  8   3   2   7   2   9   2  12   2  13   2  14   2  16   2  17   3
M  RAD  6  18   2  19   3  20   3  21   3  22   3  23   3
M  END
>  <REMARK>  (1) 
 SMILES c1cncc(-c2nc3ncnc(OCC4CCCCC4)c3[nH]2)c1
 SMILES IDX 13 1 12 2 6 3 7 4 22 5 8 6 21 7 9 8 10 9 11 10 5 12 1 13
 SMILES IDX 2 14 23 15 3 16 4 17 14 18 15 19 16 20 20 21 17 22 19 23
 SMILES IDX 18 24
 H PARENT 22 11

>  <TORSDO>  (1) 
F 4

$$$$
