/home/pchatterjee/Documents/git/vs_workflow/DiffDock/diffdock_run/pdbqt_scrubbed/49863196.pdbqt
     RDKit          3D

 23 26  0  0  1  0  0  0  0  0999 V2000
    7.3187   45.9984   52.9449 O   0  0  0  0  0  0  0  0  0  0  0  0
    7.9383   45.4588   51.8523 C   0  0  0  0  0  0  0  0  0  0  0  0
    5.8269   43.9321   49.3955 C   0  0  0  0  0  3  0  0  0  0  0  0
    7.1837   43.7055   48.9120 N   0  0  0  0  0  0  0  0  0  0  0  0
    6.0312   44.2403   50.8407 N   0  0  0  0  0  0  0  0  0  0  0  0
    8.0349   44.2665   49.7038 C   0  0  0  0  0  0  0  0  0  0  0  0
    7.2544   44.8887   50.7634 C   0  0  0  0  0  3  0  0  0  0  0  0
    9.4591   44.3953   49.7746 N   0  0  0  0  0  0  0  0  0  0  0  0
   10.0259   44.9655   50.7741 C   0  0  0  0  0  3  0  0  0  0  0  0
    9.2568   45.4919   51.8227 N   0  0  0  0  0  0  0  0  0  0  0  0
    5.0205   42.6664   49.2879 C   0  0  0  0  0  0  0  0  0  0  0  0
    4.6063   40.5047   48.3184 C   0  0  0  0  0  3  0  0  0  0  0  0
    3.4976   40.3375   49.1215 C   0  0  0  0  0  3  0  0  0  0  0  0
    5.3596   41.6623   48.4041 C   0  0  0  0  0  3  0  0  0  0  0  0
    3.1831   41.3185   49.9713 N   0  0  0  0  0  0  0  0  0  0  0  0
    3.9024   42.4510   50.0695 C   0  0  0  0  0  3  0  0  0  0  0  0
    6.6152   47.2445   52.9047 C   0  0  0  0  0  2  0  0  0  0  0  0
    5.3561   47.0958   53.6980 C   0  0  0  0  0  3  0  0  0  0  0  0
    5.3392   46.0530   54.7251 C   0  0  0  0  0  2  0  0  0  0  0  0
    4.1083   47.4909   53.0324 C   0  0  0  0  0  2  0  0  0  0  0  0
    4.1921   45.0915   54.6697 C   0  0  0  0  0  2  0  0  0  0  0  0
    2.9568   46.5358   53.1654 C   0  0  0  0  0  2  0  0  0  0  0  0
    3.4316   45.1168   53.3830 C   0  0  0  0  0  2  0  0  0  0  0  0
  1 17  1  0
  1  2  1  0
  2 10  2  0
  3 11  1  0
  3  4  1  0
  4  6  2  0
  5  3  1  0
  5  7  1  0
  6  8  1  0
  7  2  1  0
  7  6  1  0
  8  9  2  0
 10  9  1  0
 11 14  1  0
 12 14  2  0
 13 12  1  0
 15 13  2  0
 15 16  1  0
 16 11  2  0
 18 17  1  0
 18 20  1  0
 19 18  1  0
 21 23  1  0
 21 19  1  0
 22 20  1  0
 23 22  1  0
M  RAD  8   3   2   7   2   9   2  12   2  13   2  14   2  16   2  17   3
M  RAD  6  18   2  19   3  20   3  21   3  22   3  23   3
M  END
>  <REMARK>  (1) 
 SMILES c1cncc(-c2nc3ncnc(OCC4CCCCC4)c3[nH]2)c1
 SMILES IDX 13 1 12 2 6 3 7 4 22 5 8 6 21 7 9 8 10 9 11 10 5 12 1 13
 SMILES IDX 2 14 23 15 3 16 4 17 14 18 15 19 16 20 20 21 17 22 19 23
 SMILES IDX 18 24
 H PARENT 22 11

>  <TORSDO>  (1) 
F 4

$$$$
