/home/pchatterjee/Documents/git/vs_workflow/DiffDock/diffdock_run/pdbqt_scrubbed/49863196.pdbqt
     RDKit          3D

 23 26  0  0  1  0  0  0  0  0999 V2000
    7.3348   46.5570   52.4652 O   0  0  0  0  0  0  0  0  0  0  0  0
    7.9507   45.7526   51.5473 C   0  0  0  0  0  0  0  0  0  0  0  0
    5.8211   43.9406   49.3099 C   0  0  0  0  0  3  0  0  0  0  0  0
    7.1709   43.5032   48.9742 N   0  0  0  0  0  0  0  0  0  0  0  0
    5.9844   44.5209   50.6743 N   0  0  0  0  0  0  0  0  0  0  0  0
    8.0337   44.1397   49.6930 C   0  0  0  0  0  0  0  0  0  0  0  0
    7.2676   45.0317   50.5512 C   0  0  0  0  0  3  0  0  0  0  0  0
    9.4586   44.1571   49.8323 N   0  0  0  0  0  0  0  0  0  0  0  0
   10.0295   44.8698   50.7331 C   0  0  0  0  0  3  0  0  0  0  0  0
    9.2659   45.6651   51.6006 N   0  0  0  0  0  0  0  0  0  0  0  0
    4.9005   42.7541   49.4041 C   0  0  0  0  0  0  0  0  0  0  0  0
    4.2950   40.5017   48.8173 C   0  0  0  0  0  3  0  0  0  0  0  0
    3.1675   40.5802   49.6076 C   0  0  0  0  0  3  0  0  0  0  0  0
    5.1527   41.5831   48.7190 C   0  0  0  0  0  3  0  0  0  0  0  0
    2.9379   41.7203   50.2640 N   0  0  0  0  0  0  0  0  0  0  0  0
    3.7593   42.7825   50.1815 C   0  0  0  0  0  3  0  0  0  0  0  0
    7.7577   46.6468   53.8299 C   0  0  0  0  0  2  0  0  0  0  0  0
    8.4464   47.9607   54.0200 C   0  0  0  0  0  3  0  0  0  0  0  0
    9.8235   47.9216   54.5148 C   0  0  0  0  0  2  0  0  0  0  0  0
    7.5904   49.1149   54.3219 C   0  0  0  0  0  2  0  0  0  0  0  0
   10.1173   48.7686   55.7146 C   0  0  0  0  0  2  0  0  0  0  0  0
    8.0499   50.0039   55.4419 C   0  0  0  0  0  2  0  0  0  0  0  0
    8.9014   49.2503   56.4385 C   0  0  0  0  0  2  0  0  0  0  0  0
  1 17  1  0
  1  2  1  0
  2 10  2  0
  3 11  1  0
  3  4  1  0
  4  6  2  0
  5  3  1  0
  5  7  1  0
  6  8  1  0
  7  2  1  0
  7  6  1  0
  8  9  2  0
 10  9  1  0
 11 14  1  0
 12 14  2  0
 13 12  1  0
 15 13  2  0
 15 16  1  0
 16 11  2  0
 18 17  1  0
 18 20  1  0
 19 18  1  0
 21 23  1  0
 21 19  1  0
 22 20  1  0
 23 22  1  0
M  RAD  8   3   2   7   2   9   2  12   2  13   2  14   2  16   2  17   3
M  RAD  6  18   2  19   3  20   3  21   3  22   3  23   3
M  END
>  <REMARK>  (1) 
 SMILES c1cncc(-c2nc3ncnc(OCC4CCCCC4)c3[nH]2)c1
 SMILES IDX 13 1 12 2 6 3 7 4 22 5 8 6 21 7 9 8 10 9 11 10 5 12 1 13
 SMILES IDX 2 14 23 15 3 16 4 17 14 18 15 19 16 20 20 21 17 22 19 23
 SMILES IDX 18 24
 H PARENT 22 11

>  <TORSDO>  (1) 
F 4

$$$$
