/home/pchatterjee/Documents/git/vs_workflow/DiffDock/diffdock_run/pdbqt_scrubbed/49863196.pdbqt
     RDKit          3D

 23 26  0  0  1  0  0  0  0  0999 V2000
    7.9089   46.7197   52.2857 O   0  0  0  0  0  0  0  0  0  0  0  0
    8.3845   45.7388   51.4607 C   0  0  0  0  0  0  0  0  0  0  0  0
    5.9493   43.8445   49.6426 C   0  0  0  0  0  3  0  0  0  0  0  0
    7.2281   43.2362   49.2954 N   0  0  0  0  0  0  0  0  0  0  0  0
    6.2607   44.5921   50.8952 N   0  0  0  0  0  0  0  0  0  0  0  0
    8.1927   43.8811   49.8610 C   0  0  0  0  0  0  0  0  0  0  0  0
    7.5711   44.9544   50.6230 C   0  0  0  0  0  3  0  0  0  0  0  0
    9.6201   43.7804   49.9118 N   0  0  0  0  0  0  0  0  0  0  0  0
   10.3144   44.5542   50.6631 C   0  0  0  0  0  3  0  0  0  0  0  0
    9.6876   45.5333   51.4484 N   0  0  0  0  0  0  0  0  0  0  0  0
    4.9383   42.7773   49.9637 C   0  0  0  0  0  0  0  0  0  0  0  0
    4.0465   40.5618   49.6795 C   0  0  0  0  0  3  0  0  0  0  0  0
    3.0443   40.8296   50.5883 C   0  0  0  0  0  3  0  0  0  0  0  0
    4.9847   41.5314   49.3722 C   0  0  0  0  0  3  0  0  0  0  0  0
    3.0135   42.0400   51.1517 N   0  0  0  0  0  0  0  0  0  0  0  0
    3.9161   42.9959   50.8664 C   0  0  0  0  0  3  0  0  0  0  0  0
    8.7339   47.7677   52.8056 C   0  0  0  0  0  2  0  0  0  0  0  0
    8.5545   47.8106   54.2898 C   0  0  0  0  0  3  0  0  0  0  0  0
    7.4355   48.6049   54.7993 C   0  0  0  0  0  2  0  0  0  0  0  0
    9.7643   47.6397   55.1042 C   0  0  0  0  0  2  0  0  0  0  0  0
    7.7708   49.6179   55.8504 C   0  0  0  0  0  2  0  0  0  0  0  0
    9.9382   48.6059   56.2409 C   0  0  0  0  0  2  0  0  0  0  0  0
    9.2306   49.9150   55.9731 C   0  0  0  0  0  2  0  0  0  0  0  0
  1 17  1  0
  1  2  1  0
  2 10  2  0
  3 11  1  0
  3  4  1  0
  4  6  2  0
  5  3  1  0
  5  7  1  0
  6  8  1  0
  7  2  1  0
  7  6  1  0
  8  9  2  0
 10  9  1  0
 11 14  1  0
 12 14  2  0
 13 12  1  0
 15 13  2  0
 15 16  1  0
 16 11  2  0
 18 17  1  0
 18 20  1  0
 19 18  1  0
 21 23  1  0
 21 19  1  0
 22 20  1  0
 23 22  1  0
M  RAD  8   3   2   7   2   9   2  12   2  13   2  14   2  16   2  17   3
M  RAD  6  18   2  19   3  20   3  21   3  22   3  23   3
M  END
>  <REMARK>  (1) 
 SMILES c1cncc(-c2nc3ncnc(OCC4CCCCC4)c3[nH]2)c1
 SMILES IDX 13 1 12 2 6 3 7 4 22 5 8 6 21 7 9 8 10 9 11 10 5 12 1 13
 SMILES IDX 2 14 23 15 3 16 4 17 14 18 15 19 16 20 20 21 17 22 19 23
 SMILES IDX 18 24
 H PARENT 22 11

>  <TORSDO>  (1) 
F 4

$$$$
