/home/pchatterjee/Documents/git/vs_workflow/DiffDock/diffdock_run/pdbqt_scrubbed/49863196.pdbqt
     RDKit          3D

 23 26  0  0  1  0  0  0  0  0999 V2000
    7.2619   46.3702   52.5924 O   0  0  0  0  0  0  0  0  0  0  0  0
    7.9209   45.6286   51.6519 C   0  0  0  0  0  0  0  0  0  0  0  0
    5.8935   43.7866   49.3452 C   0  0  0  0  0  3  0  0  0  0  0  0
    7.2648   43.4290   49.0024 N   0  0  0  0  0  0  0  0  0  0  0  0
    6.0224   44.3290   50.7287 N   0  0  0  0  0  0  0  0  0  0  0  0
    8.0918   44.0840   49.7461 C   0  0  0  0  0  0  0  0  0  0  0  0
    7.2786   44.9075   50.6291 C   0  0  0  0  0  3  0  0  0  0  0  0
    9.5135   44.1684   49.8934 N   0  0  0  0  0  0  0  0  0  0  0  0
   10.0445   44.8789   50.8200 C   0  0  0  0  0  3  0  0  0  0  0  0
    9.2387   45.6057   51.7092 N   0  0  0  0  0  0  0  0  0  0  0  0
    5.0336   42.5528   49.3956 C   0  0  0  0  0  0  0  0  0  0  0  0
    3.1605   41.3208   50.2664 C   0  0  0  0  0  3  0  0  0  0  0  0
    3.4677   40.2474   49.4567 C   0  0  0  0  0  3  0  0  0  0  0  0
    3.9404   42.4634   50.2330 C   0  0  0  0  0  3  0  0  0  0  0  0
    4.5286   40.3500   48.6522 N   0  0  0  0  0  0  0  0  0  0  0  0
    5.2991   41.4519   48.6052 C   0  0  0  0  0  3  0  0  0  0  0  0
    7.6954   46.4646   53.9535 C   0  0  0  0  0  2  0  0  0  0  0  0
    8.4769   47.7304   54.1081 C   0  0  0  0  0  3  0  0  0  0  0  0
    9.8796   47.5988   54.5053 C   0  0  0  0  0  2  0  0  0  0  0  0
    7.7181   48.9311   54.4804 C   0  0  0  0  0  2  0  0  0  0  0  0
   10.3082   48.4088   55.6900 C   0  0  0  0  0  2  0  0  0  0  0  0
    8.3087   49.7737   55.5745 C   0  0  0  0  0  2  0  0  0  0  0  0
    9.1778   48.9546   56.5017 C   0  0  0  0  0  2  0  0  0  0  0  0
  1 17  1  0
  1  2  1  0
  2 10  2  0
  3 11  1  0
  3  4  1  0
  4  6  2  0
  5  3  1  0
  5  7  1  0
  6  8  1  0
  7  2  1  0
  7  6  1  0
  8  9  2  0
 10  9  1  0
 11 14  1  0
 12 14  2  0
 13 12  1  0
 15 13  2  0
 15 16  1  0
 16 11  2  0
 18 17  1  0
 18 20  1  0
 19 18  1  0
 21 23  1  0
 21 19  1  0
 22 20  1  0
 23 22  1  0
M  RAD  8   3   2   7   2   9   2  12   2  13   2  14   2  16   2  17   3
M  RAD  6  18   2  19   3  20   3  21   3  22   3  23   3
M  END
>  <REMARK>  (1) 
 SMILES c1cncc(-c2nc3ncnc(OCC4CCCCC4)c3[nH]2)c1
 SMILES IDX 13 1 12 2 6 3 7 4 22 5 8 6 21 7 9 8 10 9 11 10 5 12 1 13
 SMILES IDX 2 14 23 15 3 16 4 17 14 18 15 19 16 20 20 21 17 22 19 23
 SMILES IDX 18 24
 H PARENT 22 11

>  <TORSDO>  (1) 
F 4

$$$$
