/home/pchatterjee/Documents/git/vs_workflow/DiffDock/diffdock_run/pdbqt_scrubbed/49863196.pdbqt
     RDKit          3D

 23 26  0  0  1  0  0  0  0  0999 V2000
    5.3165   43.4764   50.7274 O   0  0  0  0  0  0  0  0  0  0  0  0
    6.5839   43.7630   50.3029 C   0  0  0  0  0  0  0  0  0  0  0  0
    8.7403   45.3872   52.6559 C   0  0  0  0  0  3  0  0  0  0  0  0
    9.5282   45.2940   51.4326 N   0  0  0  0  0  0  0  0  0  0  0  0
    7.3414   45.2066   52.1704 N   0  0  0  0  0  0  0  0  0  0  0  0
    8.8589   44.6705   50.5219 C   0  0  0  0  0  0  0  0  0  0  0  0
    7.5769   44.3305   51.1218 C   0  0  0  0  0  3  0  0  0  0  0  0
    9.0723   44.2787   49.1613 N   0  0  0  0  0  0  0  0  0  0  0  0
    8.1409   43.7238   48.4758 C   0  0  0  0  0  3  0  0  0  0  0  0
    6.8863   43.4739   49.0517 N   0  0  0  0  0  0  0  0  0  0  0  0
    8.8646   46.7647   53.2484 C   0  0  0  0  0  0  0  0  0  0  0  0
    7.8882   48.7795   54.1269 C   0  0  0  0  0  3  0  0  0  0  0  0
    9.1414   49.3130   54.3441 C   0  0  0  0  0  3  0  0  0  0  0  0
    7.7552   47.5142   53.5828 C   0  0  0  0  0  3  0  0  0  0  0  0
   10.2046   48.5749   54.0151 N   0  0  0  0  0  0  0  0  0  0  0  0
   10.0962   47.3431   53.4852 C   0  0  0  0  0  3  0  0  0  0  0  0
    4.7551   42.1607   50.6704 C   0  0  0  0  0  2  0  0  0  0  0  0
    3.3001   42.2873   50.3481 C   0  0  0  0  0  3  0  0  0  0  0  0
    2.4731   43.0319   51.2990 C   0  0  0  0  0  2  0  0  0  0  0  0
    2.7073   41.2091   49.5468 C   0  0  0  0  0  2  0  0  0  0  0  0
    1.2427   42.3334   51.7907 C   0  0  0  0  0  2  0  0  0  0  0  0
    1.3879   40.6765   50.0277 C   0  0  0  0  0  2  0  0  0  0  0  0
    1.2212   40.8637   51.5188 C   0  0  0  0  0  2  0  0  0  0  0  0
  1 17  1  0
  1  2  1  0
  2 10  2  0
  3 11  1  0
  3  4  1  0
  4  6  2  0
  5  3  1  0
  5  7  1  0
  6  8  1  0
  7  2  1  0
  7  6  1  0
  8  9  2  0
 10  9  1  0
 11 14  1  0
 12 14  2  0
 13 12  1  0
 15 13  2  0
 15 16  1  0
 16 11  2  0
 18 17  1  0
 18 20  1  0
 19 18  1  0
 21 23  1  0
 21 19  1  0
 22 20  1  0
 23 22  1  0
M  RAD  8   3   2   7   2   9   2  12   2  13   2  14   2  16   2  17   3
M  RAD  6  18   2  19   3  20   3  21   3  22   3  23   3
M  END
>  <REMARK>  (1) 
 SMILES c1cncc(-c2nc3ncnc(OCC4CCCCC4)c3[nH]2)c1
 SMILES IDX 13 1 12 2 6 3 7 4 22 5 8 6 21 7 9 8 10 9 11 10 5 12 1 13
 SMILES IDX 2 14 23 15 3 16 4 17 14 18 15 19 16 20 20 21 17 22 19 23
 SMILES IDX 18 24
 H PARENT 22 11

>  <TORSDO>  (1) 
F 4

$$$$
