/home/pchatterjee/Documents/git/vs_workflow/DiffDock/diffdock_run/pdbqt_scrubbed/49863196.pdbqt
     RDKit          3D

 23 26  0  0  1  0  0  0  0  0999 V2000
    7.1799   46.4078   52.5178 O   0  0  0  0  0  0  0  0  0  0  0  0
    7.8569   45.6826   51.5772 C   0  0  0  0  0  0  0  0  0  0  0  0
    5.8742   43.8584   49.2181 C   0  0  0  0  0  3  0  0  0  0  0  0
    7.2525   43.5138   48.8903 N   0  0  0  0  0  0  0  0  0  0  0  0
    5.9800   44.3835   50.6102 N   0  0  0  0  0  0  0  0  0  0  0  0
    8.0647   44.1641   49.6542 C   0  0  0  0  0  0  0  0  0  0  0  0
    7.2338   44.9710   50.5361 C   0  0  0  0  0  3  0  0  0  0  0  0
    9.4836   44.2554   49.8229 N   0  0  0  0  0  0  0  0  0  0  0  0
    9.9968   44.9570   50.7661 C   0  0  0  0  0  3  0  0  0  0  0  0
    9.1738   45.6671   51.6530 N   0  0  0  0  0  0  0  0  0  0  0  0
    5.0215   42.6188   49.2402 C   0  0  0  0  0  0  0  0  0  0  0  0
    3.1066   41.3889   50.0179 C   0  0  0  0  0  3  0  0  0  0  0  0
    3.4712   40.3021   49.2511 C   0  0  0  0  0  3  0  0  0  0  0  0
    3.8790   42.5370   50.0097 C   0  0  0  0  0  3  0  0  0  0  0  0
    4.5795   40.3974   48.5121 N   0  0  0  0  0  0  0  0  0  0  0  0
    5.3435   41.5045   48.4905 C   0  0  0  0  0  3  0  0  0  0  0  0
    7.6077   46.5079   53.8802 C   0  0  0  0  0  2  0  0  0  0  0  0
    8.3274   47.8080   54.0495 C   0  0  0  0  0  3  0  0  0  0  0  0
    9.7566   47.7389   54.3580 C   0  0  0  0  0  2  0  0  0  0  0  0
    7.5286   48.9458   54.5221 C   0  0  0  0  0  2  0  0  0  0  0  0
   10.2116   48.5185   55.5533 C   0  0  0  0  0  2  0  0  0  0  0  0
    8.1377   49.7713   55.6191 C   0  0  0  0  0  2  0  0  0  0  0  0
    9.1045   48.9625   56.4543 C   0  0  0  0  0  2  0  0  0  0  0  0
  1 17  1  0
  1  2  1  0
  2 10  2  0
  3 11  1  0
  3  4  1  0
  4  6  2  0
  5  3  1  0
  5  7  1  0
  6  8  1  0
  7  2  1  0
  7  6  1  0
  8  9  2  0
 10  9  1  0
 11 14  1  0
 12 14  2  0
 13 12  1  0
 15 13  2  0
 15 16  1  0
 16 11  2  0
 18 17  1  0
 18 20  1  0
 19 18  1  0
 21 23  1  0
 21 19  1  0
 22 20  1  0
 23 22  1  0
M  RAD  8   3   2   7   2   9   2  12   2  13   2  14   2  16   2  17   3
M  RAD  6  18   2  19   3  20   3  21   3  22   3  23   3
M  END
>  <REMARK>  (1) 
 SMILES c1cncc(-c2nc3ncnc(OCC4CCCCC4)c3[nH]2)c1
 SMILES IDX 13 1 12 2 6 3 7 4 22 5 8 6 21 7 9 8 10 9 11 10 5 12 1 13
 SMILES IDX 2 14 23 15 3 16 4 17 14 18 15 19 16 20 20 21 17 22 19 23
 SMILES IDX 18 24
 H PARENT 22 11

>  <TORSDO>  (1) 
F 4

$$$$
