/home/pchatterjee/Documents/git/vs_workflow/DiffDock/diffdock_run/pdbqt_scrubbed/49863196.pdbqt
     RDKit          3D

 23 26  0  0  1  0  0  0  0  0999 V2000
    7.2429   46.4854   52.4915 O   0  0  0  0  0  0  0  0  0  0  0  0
    7.8997   45.6727   51.6101 C   0  0  0  0  0  0  0  0  0  0  0  0
    5.8709   43.7991   49.3302 C   0  0  0  0  0  3  0  0  0  0  0  0
    7.2364   43.3714   49.0503 N   0  0  0  0  0  0  0  0  0  0  0  0
    5.9792   44.4042   50.6893 N   0  0  0  0  0  0  0  0  0  0  0  0
    8.0661   44.0296   49.7881 C   0  0  0  0  0  0  0  0  0  0  0  0
    7.2604   44.9273   50.6030 C   0  0  0  0  0  3  0  0  0  0  0  0
    9.4849   44.0654   49.9776 N   0  0  0  0  0  0  0  0  0  0  0  0
   10.0156   44.7997   50.8856 C   0  0  0  0  0  3  0  0  0  0  0  0
    9.2131   45.6009   51.7115 N   0  0  0  0  0  0  0  0  0  0  0  0
    4.9602   42.6041   49.4122 C   0  0  0  0  0  0  0  0  0  0  0  0
    3.0311   41.4789   50.3050 C   0  0  0  0  0  3  0  0  0  0  0  0
    3.2997   40.3683   49.5326 C   0  0  0  0  0  3  0  0  0  0  0  0
    3.8579   42.5867   50.2422 C   0  0  0  0  0  3  0  0  0  0  0  0
    4.3701   40.4012   48.7347 N   0  0  0  0  0  0  0  0  0  0  0  0
    5.1858   41.4683   48.6596 C   0  0  0  0  0  3  0  0  0  0  0  0
    7.6098   46.5957   53.8708 C   0  0  0  0  0  2  0  0  0  0  0  0
    8.3209   47.8974   54.0624 C   0  0  0  0  0  3  0  0  0  0  0  0
    9.7837   47.8656   54.0213 C   0  0  0  0  0  2  0  0  0  0  0  0
    7.6311   48.9117   54.8695 C   0  0  0  0  0  2  0  0  0  0  0  0
   10.4898   48.4946   55.1829 C   0  0  0  0  0  2  0  0  0  0  0  0
    8.4629   49.6084   55.9080 C   0  0  0  0  0  2  0  0  0  0  0  0
    9.6159   48.7459   56.3694 C   0  0  0  0  0  2  0  0  0  0  0  0
  1 17  1  0
  1  2  1  0
  2 10  2  0
  3 11  1  0
  3  4  1  0
  4  6  2  0
  5  3  1  0
  5  7  1  0
  6  8  1  0
  7  2  1  0
  7  6  1  0
  8  9  2  0
 10  9  1  0
 11 14  1  0
 12 14  2  0
 13 12  1  0
 15 13  2  0
 15 16  1  0
 16 11  2  0
 18 17  1  0
 18 20  1  0
 19 18  1  0
 21 23  1  0
 21 19  1  0
 22 20  1  0
 23 22  1  0
M  RAD  8   3   2   7   2   9   2  12   2  13   2  14   2  16   2  17   3
M  RAD  6  18   2  19   3  20   3  21   3  22   3  23   3
M  END
>  <REMARK>  (1) 
 SMILES c1cncc(-c2nc3ncnc(OCC4CCCCC4)c3[nH]2)c1
 SMILES IDX 13 1 12 2 6 3 7 4 22 5 8 6 21 7 9 8 10 9 11 10 5 12 1 13
 SMILES IDX 2 14 23 15 3 16 4 17 14 18 15 19 16 20 20 21 17 22 19 23
 SMILES IDX 18 24
 H PARENT 22 11

>  <TORSDO>  (1) 
F 4

$$$$
