/home/pchatterjee/Documents/git/vs_workflow/DiffDock/diffdock_run/pdbqt_scrubbed/Z30084948.pdbqt
     RDKit          3D

 23 25  0  0  0  0  0  0  0  0999 V2000
    4.8344   42.4998   51.2888 C   0  0  0  0  0  1  0  0  0  0  0  0
    4.9742   42.1887   49.8782 N   0  0  0  0  0  0  0  0  0  0  0  0
    6.2044   42.3928   49.1389 C   0  0  0  0  0  2  0  0  0  0  0  0
    7.0701   43.3892   49.8438 C   0  0  0  0  0  0  0  0  0  0  0  0
    6.5564   44.3167   50.6724 N   0  0  0  0  0  0  0  0  0  0  0  0
    8.3971   43.3402   49.6301 N   0  0  0  0  0  0  0  0  0  0  0  0
    7.3520   45.2034   51.2963 C   0  0  0  0  0  0  0  0  0  0  0  0
    9.2239   44.2284   50.2512 C   0  0  0  0  0  0  0  0  0  0  0  0
    6.7606   46.1403   52.1429 C   0  0  0  0  0  3  0  0  0  0  0  0
    8.7181   45.1980   51.1133 C   0  0  0  0  0  0  0  0  0  0  0  0
    7.5657   47.0648   52.7966 C   0  0  0  0  0  3  0  0  0  0  0  0
    9.4944   46.1109   51.7614 C   0  0  0  0  0  3  0  0  0  0  0  0
    8.9311   47.0388   52.5968 C   0  0  0  0  0  3  0  0  0  0  0  0
   10.4570   44.2205   50.0835 O   0  0  0  0  0  0  0  0  0  0  0  0
    3.8114   41.6566   49.2314 C   0  0  0  0  0  0  0  0  0  0  0  0
    2.7395   41.6363   49.8956 O   0  0  0  0  0  0  0  0  0  0  0  0
    3.8445   41.1444   47.8359 C   0  0  0  0  0  2  0  0  0  0  0  0
    2.4095   41.2891   47.3196 C   0  0  0  0  0  2  0  0  0  0  0  0
    2.4066   42.3064   46.2111 C   0  0  0  0  0  3  0  0  0  0  0  0
    3.2878   41.8117   45.0835 C   0  0  0  0  0  2  0  0  0  0  0  0
    1.0187   42.4416   45.6180 C   0  0  0  0  0  2  0  0  0  0  0  0
    2.4036   41.7141   43.8719 C   0  0  0  0  0  2  0  0  0  0  0  0
    1.0421   41.4251   44.4709 C   0  0  0  0  0  2  0  0  0  0  0  0
  2  1  1  0
  2 15  1  0
  3  4  1  0
  3  2  1  0
  4  5  2  0
  5  7  1  0
  6  4  1  0
  7  9  2  0
  8  6  1  0
  8 10  1  0
  9 11  1  0
 10 12  2  0
 10  7  1  0
 12 13  1  0
 13 11  2  0
 14  8  2  0
 15 17  1  0
 16 15  2  0
 17 18  1  0
 18 19  1  0
 19 21  1  0
 19 20  1  0
 21 23  1  0
 22 20  1  0
 23 22  1  0
M  RAD  8   1   2   3   3   9   2  11   2  12   2  13   2  17   3  18   3
M  RAD  5  19   2  20   3  21   3  22   3  23   3
M  END
>  <REMARK>  (1) 
 SMILES CN(Cc1nc2ccccc2c(=O)[nH]1)C(=O)CCC1CCCC1
 SMILES IDX 1 1 2 2 3 3 4 4 5 5 14 6 6 7 12 8 7 9 11 10 8 11 10 12 9 13
 SMILES IDX 13 15 15 16 16 17 17 18 18 19 19 20 20 21 23 22 21 23 22 24
 H PARENT 14 14

>  <TORSDO>  (1) 
F 6

$$$$
