/home/pchatterjee/Documents/git/vs_workflow/DiffDock/diffdock_run/pdbqt_scrubbed/Z30084948.pdbqt
     RDKit          3D

 23 25  0  0  0  0  0  0  0  0999 V2000
    5.7348   40.7731   50.0549 C   0  0  0  0  0  1  0  0  0  0  0  0
    5.0384   42.0249   49.8221 N   0  0  0  0  0  0  0  0  0  0  0  0
    5.5517   43.0695   48.9577 C   0  0  0  0  0  2  0  0  0  0  0  0
    6.6503   43.8155   49.6471 C   0  0  0  0  0  0  0  0  0  0  0  0
    6.4057   44.6601   50.6658 N   0  0  0  0  0  0  0  0  0  0  0  0
    7.9118   43.6231   49.2221 N   0  0  0  0  0  0  0  0  0  0  0  0
    7.4077   45.3211   51.2721 C   0  0  0  0  0  0  0  0  0  0  0  0
    8.9441   44.2819   49.8210 C   0  0  0  0  0  0  0  0  0  0  0  0
    7.0908   46.1826   52.3217 C   0  0  0  0  0  3  0  0  0  0  0  0
    8.7183   45.1612   50.8769 C   0  0  0  0  0  0  0  0  0  0  0  0
    8.1120   46.8746   52.9609 C   0  0  0  0  0  3  0  0  0  0  0  0
    9.7088   45.8467   51.5134 C   0  0  0  0  0  3  0  0  0  0  0  0
    9.4165   46.6973   52.5465 C   0  0  0  0  0  3  0  0  0  0  0  0
   10.1265   44.1349   49.4613 O   0  0  0  0  0  0  0  0  0  0  0  0
    3.7878   42.1870   50.5027 C   0  0  0  0  0  0  0  0  0  0  0  0
    3.1034   41.1479   50.7086 O   0  0  0  0  0  0  0  0  0  0  0  0
    3.2978   43.5156   50.9561 C   0  0  0  0  0  2  0  0  0  0  0  0
    3.3136   43.4500   52.4864 C   0  0  0  0  0  2  0  0  0  0  0  0
    2.3046   44.4345   53.0121 C   0  0  0  0  0  3  0  0  0  0  0  0
    2.8335   45.0500   54.2904 C   0  0  0  0  0  2  0  0  0  0  0  0
    2.1318   45.5865   52.0430 C   0  0  0  0  0  2  0  0  0  0  0  0
    2.9131   46.5302   54.0418 C   0  0  0  0  0  2  0  0  0  0  0  0
    3.1567   46.6083   52.5482 C   0  0  0  0  0  2  0  0  0  0  0  0
  2  1  1  0
  2 15  1  0
  3  4  1  0
  3  2  1  0
  4  5  2  0
  5  7  1  0
  6  4  1  0
  7  9  2  0
  8  6  1  0
  8 10  1  0
  9 11  1  0
 10 12  2  0
 10  7  1  0
 12 13  1  0
 13 11  2  0
 14  8  2  0
 15 17  1  0
 16 15  2  0
 17 18  1  0
 18 19  1  0
 19 21  1  0
 19 20  1  0
 21 23  1  0
 22 20  1  0
 23 22  1  0
M  RAD  8   1   2   3   3   9   2  11   2  12   2  13   2  17   3  18   3
M  RAD  5  19   2  20   3  21   3  22   3  23   3
M  END
>  <REMARK>  (1) 
 SMILES CN(Cc1nc2ccccc2c(=O)[nH]1)C(=O)CCC1CCCC1
 SMILES IDX 1 1 2 2 3 3 4 4 5 5 14 6 6 7 12 8 7 9 11 10 8 11 10 12 9 13
 SMILES IDX 13 15 15 16 16 17 17 18 18 19 19 20 20 21 23 22 21 23 22 24
 H PARENT 14 14

>  <TORSDO>  (1) 
F 6

$$$$
