/home/pchatterjee/Documents/git/vs_workflow/DiffDock/diffdock_run/pdbqt_scrubbed/Z30084948.pdbqt
     RDKit          3D

 23 25  0  0  0  0  0  0  0  0999 V2000
    5.0740   41.8784   50.9995 C   0  0  0  0  0  1  0  0  0  0  0  0
    5.1043   42.0600   49.5600 N   0  0  0  0  0  0  0  0  0  0  0  0
    6.3103   42.3933   48.8276 C   0  0  0  0  0  2  0  0  0  0  0  0
    7.0869   43.4401   49.5625 C   0  0  0  0  0  0  0  0  0  0  0  0
    6.4915   44.3126   50.3962 N   0  0  0  0  0  0  0  0  0  0  0  0
    8.4171   43.4943   49.3712 N   0  0  0  0  0  0  0  0  0  0  0  0
    7.2080   45.2461   51.0473 C   0  0  0  0  0  0  0  0  0  0  0  0
    9.1645   44.4317   50.0201 C   0  0  0  0  0  0  0  0  0  0  0  0
    6.5340   46.1219   51.8976 C   0  0  0  0  0  3  0  0  0  0  0  0
    8.5733   45.3462   50.8880 C   0  0  0  0  0  0  0  0  0  0  0  0
    7.2565   47.0933   52.5793 C   0  0  0  0  0  3  0  0  0  0  0  0
    9.2681   46.3040   51.5632 C   0  0  0  0  0  3  0  0  0  0  0  0
    8.6231   47.1732   52.4028 C   0  0  0  0  0  3  0  0  0  0  0  0
   10.3973   44.5192   49.8737 O   0  0  0  0  0  0  0  0  0  0  0  0
    3.8562   41.8908   48.8765 C   0  0  0  0  0  0  0  0  0  0  0  0
    2.8798   41.4680   49.5534 O   0  0  0  0  0  0  0  0  0  0  0  0
    3.6966   42.1949   47.4298 C   0  0  0  0  0  2  0  0  0  0  0  0
    2.2115   41.9665   47.1317 C   0  0  0  0  0  2  0  0  0  0  0  0
    1.9294   42.4530   45.7362 C   0  0  0  0  0  3  0  0  0  0  0  0
    2.5801   41.5126   44.7437 C   0  0  0  0  0  2  0  0  0  0  0  0
    0.4437   42.3944   45.4435 C   0  0  0  0  0  2  0  0  0  0  0  0
    1.4694   40.9726   43.8869 C   0  0  0  0  0  2  0  0  0  0  0  0
    0.2774   41.0031   44.8220 C   0  0  0  0  0  2  0  0  0  0  0  0
  2  1  1  0
  2 15  1  0
  3  4  1  0
  3  2  1  0
  4  5  2  0
  5  7  1  0
  6  4  1  0
  7  9  2  0
  8  6  1  0
  8 10  1  0
  9 11  1  0
 10 12  2  0
 10  7  1  0
 12 13  1  0
 13 11  2  0
 14  8  2  0
 15 17  1  0
 16 15  2  0
 17 18  1  0
 18 19  1  0
 19 21  1  0
 19 20  1  0
 21 23  1  0
 22 20  1  0
 23 22  1  0
M  RAD  8   1   2   3   3   9   2  11   2  12   2  13   2  17   3  18   3
M  RAD  5  19   2  20   3  21   3  22   3  23   3
M  END
>  <REMARK>  (1) 
 SMILES CN(Cc1nc2ccccc2c(=O)[nH]1)C(=O)CCC1CCCC1
 SMILES IDX 1 1 2 2 3 3 4 4 5 5 14 6 6 7 12 8 7 9 11 10 8 11 10 12 9 13
 SMILES IDX 13 15 15 16 16 17 17 18 18 19 19 20 20 21 23 22 21 23 22 24
 H PARENT 14 14

>  <TORSDO>  (1) 
F 6

$$$$
