/home/pchatterjee/Documents/git/vs_workflow/DiffDock/diffdock_run/pdbqt_scrubbed/Z30084948.pdbqt
     RDKit          3D

 23 25  0  0  0  0  0  0  0  0999 V2000
    4.8989   42.3479   51.2136 C   0  0  0  0  0  1  0  0  0  0  0  0
    5.0242   42.1390   49.7830 N   0  0  0  0  0  0  0  0  0  0  0  0
    6.2498   42.3871   49.0494 C   0  0  0  0  0  2  0  0  0  0  0  0
    7.0392   43.4697   49.7156 C   0  0  0  0  0  0  0  0  0  0  0  0
    6.4614   44.3731   50.5285 N   0  0  0  0  0  0  0  0  0  0  0  0
    8.3627   43.5247   49.4829 N   0  0  0  0  0  0  0  0  0  0  0  0
    7.1890   45.3385   51.1176 C   0  0  0  0  0  0  0  0  0  0  0  0
    9.1212   44.4941   50.0688 C   0  0  0  0  0  0  0  0  0  0  0  0
    6.5332   46.2455   51.9493 C   0  0  0  0  0  3  0  0  0  0  0  0
    8.5483   45.4410   50.9139 C   0  0  0  0  0  0  0  0  0  0  0  0
    7.2675   47.2501   52.5672 C   0  0  0  0  0  3  0  0  0  0  0  0
    9.2548   46.4316   51.5268 C   0  0  0  0  0  3  0  0  0  0  0  0
    8.6276   47.3316   52.3472 C   0  0  0  0  0  3  0  0  0  0  0  0
   10.3485   44.5835   49.8824 O   0  0  0  0  0  0  0  0  0  0  0  0
    3.8517   41.6641   49.1098 C   0  0  0  0  0  0  0  0  0  0  0  0
    2.8049   41.5276   49.7998 O   0  0  0  0  0  0  0  0  0  0  0  0
    3.8469   41.3395   47.6588 C   0  0  0  0  0  2  0  0  0  0  0  0
    2.3792   41.4321   47.2302 C   0  0  0  0  0  2  0  0  0  0  0  0
    2.3048   42.2570   45.9741 C   0  0  0  0  0  3  0  0  0  0  0  0
    3.0374   41.5339   44.8635 C   0  0  0  0  0  2  0  0  0  0  0  0
    0.8694   42.3821   45.5050 C   0  0  0  0  0  2  0  0  0  0  0  0
    2.0258   41.2991   43.7770 C   0  0  0  0  0  2  0  0  0  0  0  0
    0.7239   41.1955   44.5454 C   0  0  0  0  0  2  0  0  0  0  0  0
  2  1  1  0
  2 15  1  0
  3  4  1  0
  3  2  1  0
  4  5  2  0
  5  7  1  0
  6  4  1  0
  7  9  2  0
  8  6  1  0
  8 10  1  0
  9 11  1  0
 10 12  2  0
 10  7  1  0
 12 13  1  0
 13 11  2  0
 14  8  2  0
 15 17  1  0
 16 15  2  0
 17 18  1  0
 18 19  1  0
 19 21  1  0
 19 20  1  0
 21 23  1  0
 22 20  1  0
 23 22  1  0
M  RAD  8   1   2   3   3   9   2  11   2  12   2  13   2  17   3  18   3
M  RAD  5  19   2  20   3  21   3  22   3  23   3
M  END
>  <REMARK>  (1) 
 SMILES CN(Cc1nc2ccccc2c(=O)[nH]1)C(=O)CCC1CCCC1
 SMILES IDX 1 1 2 2 3 3 4 4 5 5 14 6 6 7 12 8 7 9 11 10 8 11 10 12 9 13
 SMILES IDX 13 15 15 16 16 17 17 18 18 19 19 20 20 21 23 22 21 23 22 24
 H PARENT 14 14

>  <TORSDO>  (1) 
F 6

$$$$
