/home/pchatterjee/Documents/git/vs_workflow/DiffDock/diffdock_run/pdbqt_scrubbed/Z30084948.pdbqt
     RDKit          3D

 23 25  0  0  0  0  0  0  0  0999 V2000
    5.8987   40.3491   50.3096 C   0  0  0  0  0  1  0  0  0  0  0  0
    5.3769   41.6256   49.8574 N   0  0  0  0  0  0  0  0  0  0  0  0
    6.0779   42.4825   48.9215 C   0  0  0  0  0  2  0  0  0  0  0  0
    6.9764   43.4249   49.6589 C   0  0  0  0  0  0  0  0  0  0  0  0
    6.5008   44.2958   50.5677 N   0  0  0  0  0  0  0  0  0  0  0  0
    8.2940   43.3850   49.3917 N   0  0  0  0  0  0  0  0  0  0  0  0
    7.3255   45.1345   51.2196 C   0  0  0  0  0  0  0  0  0  0  0  0
    9.1497   44.2253   50.0398 C   0  0  0  0  0  0  0  0  0  0  0  0
    6.7729   46.0140   52.1499 C   0  0  0  0  0  3  0  0  0  0  0  0
    8.6836   45.1359   50.9845 C   0  0  0  0  0  0  0  0  0  0  0  0
    7.6085   46.8884   52.8337 C   0  0  0  0  0  3  0  0  0  0  0  0
    9.4901   45.9992   51.6630 C   0  0  0  0  0  3  0  0  0  0  0  0
    8.9651   46.8704   52.5805 C   0  0  0  0  0  3  0  0  0  0  0  0
   10.3756   44.2236   49.8248 O   0  0  0  0  0  0  0  0  0  0  0  0
    4.1043   42.0116   50.3913 C   0  0  0  0  0  0  0  0  0  0  0  0
    3.2051   41.1285   50.4366 O   0  0  0  0  0  0  0  0  0  0  0  0
    3.8333   43.3904   50.8774 C   0  0  0  0  0  2  0  0  0  0  0  0
    3.1331   43.2110   52.2279 C   0  0  0  0  0  2  0  0  0  0  0  0
    1.9679   44.1610   52.2859 C   0  0  0  0  0  3  0  0  0  0  0  0
    1.5047   44.2885   53.7219 C   0  0  0  0  0  2  0  0  0  0  0  0
    2.3963   45.5532   51.8681 C   0  0  0  0  0  2  0  0  0  0  0  0
    1.6383   45.7425   54.0785 C   0  0  0  0  0  2  0  0  0  0  0  0
    2.7865   46.2002   53.2018 C   0  0  0  0  0  2  0  0  0  0  0  0
  2  1  1  0
  2 15  1  0
  3  4  1  0
  3  2  1  0
  4  5  2  0
  5  7  1  0
  6  4  1  0
  7  9  2  0
  8  6  1  0
  8 10  1  0
  9 11  1  0
 10 12  2  0
 10  7  1  0
 12 13  1  0
 13 11  2  0
 14  8  2  0
 15 17  1  0
 16 15  2  0
 17 18  1  0
 18 19  1  0
 19 21  1  0
 19 20  1  0
 21 23  1  0
 22 20  1  0
 23 22  1  0
M  RAD  8   1   2   3   3   9   2  11   2  12   2  13   2  17   3  18   3
M  RAD  5  19   2  20   3  21   3  22   3  23   3
M  END
>  <REMARK>  (1) 
 SMILES CN(Cc1nc2ccccc2c(=O)[nH]1)C(=O)CCC1CCCC1
 SMILES IDX 1 1 2 2 3 3 4 4 5 5 14 6 6 7 12 8 7 9 11 10 8 11 10 12 9 13
 SMILES IDX 13 15 15 16 16 17 17 18 18 19 19 20 20 21 23 22 21 23 22 24
 H PARENT 14 14

>  <TORSDO>  (1) 
F 6

$$$$
