/home/pchatterjee/Documents/git/vs_workflow/DiffDock/diffdock_run/pdbqt_scrubbed/Z30084948.pdbqt
     RDKit          3D

 23 25  0  0  0  0  0  0  0  0999 V2000
    4.9794   42.5283   51.1652 C   0  0  0  0  0  1  0  0  0  0  0  0
    5.1150   42.1978   49.7587 N   0  0  0  0  0  0  0  0  0  0  0  0
    6.2518   42.6018   48.9548 C   0  0  0  0  0  2  0  0  0  0  0  0
    7.0712   43.6135   49.6925 C   0  0  0  0  0  0  0  0  0  0  0  0
    6.5086   44.5337   50.4971 N   0  0  0  0  0  0  0  0  0  0  0  0
    8.4065   43.5860   49.5338 N   0  0  0  0  0  0  0  0  0  0  0  0
    7.2632   45.4344   51.1513 C   0  0  0  0  0  0  0  0  0  0  0  0
    9.1923   44.4887   50.1864 C   0  0  0  0  0  0  0  0  0  0  0  0
    6.6221   46.3628   51.9705 C   0  0  0  0  0  3  0  0  0  0  0  0
    8.6355   45.4512   51.0247 C   0  0  0  0  0  0  0  0  0  0  0  0
    7.3842   47.3016   52.6548 C   0  0  0  0  0  3  0  0  0  0  0  0
    9.3694   46.3779   51.7021 C   0  0  0  0  0  3  0  0  0  0  0  0
    8.7569   47.2978   52.5115 C   0  0  0  0  0  3  0  0  0  0  0  0
   10.4313   44.5009   50.0697 O   0  0  0  0  0  0  0  0  0  0  0  0
    4.0470   41.4341   49.1844 C   0  0  0  0  0  0  0  0  0  0  0  0
    3.0474   41.1981   49.9161 O   0  0  0  0  0  0  0  0  0  0  0  0
    4.0945   40.9309   47.7860 C   0  0  0  0  0  2  0  0  0  0  0  0
    2.6365   40.9073   47.3167 C   0  0  0  0  0  2  0  0  0  0  0  0
    2.4428   42.0177   46.3202 C   0  0  0  0  0  3  0  0  0  0  0  0
    3.3162   41.7553   45.1113 C   0  0  0  0  0  2  0  0  0  0  0  0
    1.0184   42.0249   45.8033 C   0  0  0  0  0  2  0  0  0  0  0  0
    2.3860   41.6593   43.9345 C   0  0  0  0  0  2  0  0  0  0  0  0
    1.1075   41.1362   44.5575 C   0  0  0  0  0  2  0  0  0  0  0  0
  2  1  1  0
  2 15  1  0
  3  4  1  0
  3  2  1  0
  4  5  2  0
  5  7  1  0
  6  4  1  0
  7  9  2  0
  8  6  1  0
  8 10  1  0
  9 11  1  0
 10 12  2  0
 10  7  1  0
 12 13  1  0
 13 11  2  0
 14  8  2  0
 15 17  1  0
 16 15  2  0
 17 18  1  0
 18 19  1  0
 19 21  1  0
 19 20  1  0
 21 23  1  0
 22 20  1  0
 23 22  1  0
M  RAD  8   1   2   3   3   9   2  11   2  12   2  13   2  17   3  18   3
M  RAD  5  19   2  20   3  21   3  22   3  23   3
M  END
>  <REMARK>  (1) 
 SMILES CN(Cc1nc2ccccc2c(=O)[nH]1)C(=O)CCC1CCCC1
 SMILES IDX 1 1 2 2 3 3 4 4 5 5 14 6 6 7 12 8 7 9 11 10 8 11 10 12 9 13
 SMILES IDX 13 15 15 16 16 17 17 18 18 19 19 20 20 21 23 22 21 23 22 24
 H PARENT 14 14

>  <TORSDO>  (1) 
F 6

$$$$
