/home/pchatterjee/Documents/git/vs_workflow/DiffDock/diffdock_run/pdbqt_scrubbed/Z30084948.pdbqt
     RDKit          3D

 23 25  0  0  0  0  0  0  0  0999 V2000
    5.6308   40.8179   49.5906 C   0  0  0  0  0  1  0  0  0  0  0  0
    4.9758   42.1128   49.5934 N   0  0  0  0  0  0  0  0  0  0  0  0
    5.4615   43.2493   48.8356 C   0  0  0  0  0  2  0  0  0  0  0  0
    6.6155   43.8860   49.5441 C   0  0  0  0  0  0  0  0  0  0  0  0
    6.4443   44.6451   50.6420 N   0  0  0  0  0  0  0  0  0  0  0  0
    7.8514   43.6820   49.0543 N   0  0  0  0  0  0  0  0  0  0  0  0
    7.4951   45.2085   51.2640 C   0  0  0  0  0  0  0  0  0  0  0  0
    8.9321   44.2426   49.6676 C   0  0  0  0  0  0  0  0  0  0  0  0
    7.2537   45.9845   52.3971 C   0  0  0  0  0  3  0  0  0  0  0  0
    8.7826   45.0322   50.8048 C   0  0  0  0  0  0  0  0  0  0  0  0
    8.3262   46.5751   53.0538 C   0  0  0  0  0  3  0  0  0  0  0  0
    9.8240   45.6177   51.4596 C   0  0  0  0  0  3  0  0  0  0  0  0
    9.6061   46.3834   52.5743 C   0  0  0  0  0  3  0  0  0  0  0  0
   10.0934   44.0812   49.2500 O   0  0  0  0  0  0  0  0  0  0  0  0
    3.7962   42.2213   50.4000 C   0  0  0  0  0  0  0  0  0  0  0  0
    3.3276   41.1552   50.8840 O   0  0  0  0  0  0  0  0  0  0  0  0
    3.1358   43.5263   50.6679 C   0  0  0  0  0  2  0  0  0  0  0  0
    3.1615   43.6854   52.1913 C   0  0  0  0  0  2  0  0  0  0  0  0
    1.9689   44.5062   52.6008 C   0  0  0  0  0  3  0  0  0  0  0  0
    2.0901   44.8563   54.0689 C   0  0  0  0  0  2  0  0  0  0  0  0
    1.9567   45.8299   51.8631 C   0  0  0  0  0  2  0  0  0  0  0  0
    2.1037   46.3575   54.1426 C   0  0  0  0  0  2  0  0  0  0  0  0
    2.7215   46.7542   52.8171 C   0  0  0  0  0  2  0  0  0  0  0  0
  2  1  1  0
  2 15  1  0
  3  4  1  0
  3  2  1  0
  4  5  2  0
  5  7  1  0
  6  4  1  0
  7  9  2  0
  8  6  1  0
  8 10  1  0
  9 11  1  0
 10 12  2  0
 10  7  1  0
 12 13  1  0
 13 11  2  0
 14  8  2  0
 15 17  1  0
 16 15  2  0
 17 18  1  0
 18 19  1  0
 19 21  1  0
 19 20  1  0
 21 23  1  0
 22 20  1  0
 23 22  1  0
M  RAD  8   1   2   3   3   9   2  11   2  12   2  13   2  17   3  18   3
M  RAD  5  19   2  20   3  21   3  22   3  23   3
M  END
>  <REMARK>  (1) 
 SMILES CN(Cc1nc2ccccc2c(=O)[nH]1)C(=O)CCC1CCCC1
 SMILES IDX 1 1 2 2 3 3 4 4 5 5 14 6 6 7 12 8 7 9 11 10 8 11 10 12 9 13
 SMILES IDX 13 15 15 16 16 17 17 18 18 19 19 20 20 21 23 22 21 23 22 24
 H PARENT 14 14

>  <TORSDO>  (1) 
F 6

$$$$
