/home/pchatterjee/Documents/git/vs_workflow/DiffDock/diffdock_run/pdbqt_scrubbed/Z30084948.pdbqt
     RDKit          3D

 23 25  0  0  0  0  0  0  0  0999 V2000
    5.0821   41.9443   47.9648 C   0  0  0  0  0  1  0  0  0  0  0  0
    5.1935   41.9755   49.4114 N   0  0  0  0  0  0  0  0  0  0  0  0
    6.4124   41.6392   50.1207 C   0  0  0  0  0  2  0  0  0  0  0  0
    7.2217   42.8732   50.3685 C   0  0  0  0  0  0  0  0  0  0  0  0
    6.7646   43.8813   51.1337 N   0  0  0  0  0  0  0  0  0  0  0  0
    8.4384   42.9584   49.8014 N   0  0  0  0  0  0  0  0  0  0  0  0
    7.5081   44.9820   51.3439 C   0  0  0  0  0  0  0  0  0  0  0  0
    9.2104   44.0642   49.9999 C   0  0  0  0  0  0  0  0  0  0  0  0
    6.9798   45.9927   52.1462 C   0  0  0  0  0  3  0  0  0  0  0  0
    8.7612   45.1214   50.7872 C   0  0  0  0  0  0  0  0  0  0  0  0
    7.7324   47.1378   52.3753 C   0  0  0  0  0  3  0  0  0  0  0  0
    9.4872   46.2502   51.0210 C   0  0  0  0  0  3  0  0  0  0  0  0
    8.9846   47.2535   51.8065 C   0  0  0  0  0  3  0  0  0  0  0  0
   10.3416   44.1865   49.4955 O   0  0  0  0  0  0  0  0  0  0  0  0
    4.0140   42.3637   50.1267 C   0  0  0  0  0  0  0  0  0  0  0  0
    2.9023   42.0520   49.6194 O   0  0  0  0  0  0  0  0  0  0  0  0
    4.0751   43.1037   51.4149 C   0  0  0  0  0  2  0  0  0  0  0  0
    2.7468   42.8025   52.1159 C   0  0  0  0  0  2  0  0  0  0  0  0
    1.7544   43.8632   51.7237 C   0  0  0  0  0  3  0  0  0  0  0  0
    0.5591   43.7890   52.6503 C   0  0  0  0  0  2  0  0  0  0  0  0
    2.3451   45.2439   51.9260 C   0  0  0  0  0  2  0  0  0  0  0  0
    0.4681   45.1285   53.3259 C   0  0  0  0  0  2  0  0  0  0  0  0
    1.9112   45.5900   53.3548 C   0  0  0  0  0  2  0  0  0  0  0  0
  2  1  1  0
  2 15  1  0
  3  4  1  0
  3  2  1  0
  4  5  2  0
  5  7  1  0
  6  4  1  0
  7  9  2  0
  8  6  1  0
  8 10  1  0
  9 11  1  0
 10 12  2  0
 10  7  1  0
 12 13  1  0
 13 11  2  0
 14  8  2  0
 15 17  1  0
 16 15  2  0
 17 18  1  0
 18 19  1  0
 19 21  1  0
 19 20  1  0
 21 23  1  0
 22 20  1  0
 23 22  1  0
M  RAD  8   1   2   3   3   9   2  11   2  12   2  13   2  17   3  18   3
M  RAD  5  19   2  20   3  21   3  22   3  23   3
M  END
>  <REMARK>  (1) 
 SMILES CN(Cc1nc2ccccc2c(=O)[nH]1)C(=O)CCC1CCCC1
 SMILES IDX 1 1 2 2 3 3 4 4 5 5 14 6 6 7 12 8 7 9 11 10 8 11 10 12 9 13
 SMILES IDX 13 15 15 16 16 17 17 18 18 19 19 20 20 21 23 22 21 23 22 24
 H PARENT 14 14

>  <TORSDO>  (1) 
F 6

$$$$
