/home/pchatterjee/Documents/git/vs_workflow/DiffDock/diffdock_run/pdbqt_scrubbed/Z30084948.pdbqt
     RDKit          3D

 23 25  0  0  0  0  0  0  0  0999 V2000
    5.2977   41.1561   50.4482 C   0  0  0  0  0  1  0  0  0  0  0  0
    4.9245   42.4679   49.9525 N   0  0  0  0  0  0  0  0  0  0  0  0
    5.7090   43.2005   48.9780 C   0  0  0  0  0  2  0  0  0  0  0  0
    6.8037   43.9577   49.6616 C   0  0  0  0  0  0  0  0  0  0  0  0
    6.5479   44.8666   50.6204 N   0  0  0  0  0  0  0  0  0  0  0  0
    8.0731   43.7086   49.2934 N   0  0  0  0  0  0  0  0  0  0  0  0
    7.5465   45.5364   51.2225 C   0  0  0  0  0  0  0  0  0  0  0  0
    9.1022   44.3750   49.8893 C   0  0  0  0  0  0  0  0  0  0  0  0
    7.2180   46.4658   52.2088 C   0  0  0  0  0  3  0  0  0  0  0  0
    8.8649   45.3203   50.8839 C   0  0  0  0  0  0  0  0  0  0  0  0
    8.2356   47.1680   52.8426 C   0  0  0  0  0  3  0  0  0  0  0  0
    9.8517   46.0166   51.5144 C   0  0  0  0  0  3  0  0  0  0  0  0
    9.5481   46.9336   52.4857 C   0  0  0  0  0  3  0  0  0  0  0  0
   10.2916   44.1771   49.5809 O   0  0  0  0  0  0  0  0  0  0  0  0
    3.7140   43.0218   50.4831 C   0  0  0  0  0  0  0  0  0  0  0  0
    2.7570   42.2268   50.6895 O   0  0  0  0  0  0  0  0  0  0  0  0
    3.5703   44.4707   50.7851 C   0  0  0  0  0  2  0  0  0  0  0  0
    2.5240   44.5476   51.9013 C   0  0  0  0  0  2  0  0  0  0  0  0
    3.1957   44.2046   53.2031 C   0  0  0  0  0  3  0  0  0  0  0  0
    4.6699   44.5351   53.1011 C   0  0  0  0  0  2  0  0  0  0  0  0
    2.6575   45.0718   54.3231 C   0  0  0  0  0  2  0  0  0  0  0  0
    4.9494   45.5437   54.1799 C   0  0  0  0  0  2  0  0  0  0  0  0
    3.6229   46.2625   54.3210 C   0  0  0  0  0  2  0  0  0  0  0  0
  2  1  1  0
  2 15  1  0
  3  4  1  0
  3  2  1  0
  4  5  2  0
  5  7  1  0
  6  4  1  0
  7  9  2  0
  8  6  1  0
  8 10  1  0
  9 11  1  0
 10 12  2  0
 10  7  1  0
 12 13  1  0
 13 11  2  0
 14  8  2  0
 15 17  1  0
 16 15  2  0
 17 18  1  0
 18 19  1  0
 19 21  1  0
 19 20  1  0
 21 23  1  0
 22 20  1  0
 23 22  1  0
M  RAD  8   1   2   3   3   9   2  11   2  12   2  13   2  17   3  18   3
M  RAD  5  19   2  20   3  21   3  22   3  23   3
M  END
>  <REMARK>  (1) 
 SMILES CN(Cc1nc2ccccc2c(=O)[nH]1)C(=O)CCC1CCCC1
 SMILES IDX 1 1 2 2 3 3 4 4 5 5 14 6 6 7 12 8 7 9 11 10 8 11 10 12 9 13
 SMILES IDX 13 15 15 16 16 17 17 18 18 19 19 20 20 21 23 22 21 23 22 24
 H PARENT 14 14

>  <TORSDO>  (1) 
F 6

$$$$
