/home/pchatterjee/Documents/git/vs_workflow/DiffDock/diffdock_run/pdbqt_scrubbed/Z30084948.pdbqt
     RDKit          3D

 23 25  0  0  0  0  0  0  0  0999 V2000
    5.9311   40.6733   50.0229 C   0  0  0  0  0  1  0  0  0  0  0  0
    5.1290   41.8676   49.8326 N   0  0  0  0  0  0  0  0  0  0  0  0
    5.5392   42.9726   48.9884 C   0  0  0  0  0  2  0  0  0  0  0  0
    6.6185   43.7616   49.6604 C   0  0  0  0  0  0  0  0  0  0  0  0
    6.3715   44.5311   50.7363 N   0  0  0  0  0  0  0  0  0  0  0  0
    7.8646   43.6865   49.1598 N   0  0  0  0  0  0  0  0  0  0  0  0
    7.3559   45.2326   51.3256 C   0  0  0  0  0  0  0  0  0  0  0  0
    8.8790   44.3884   49.7400 C   0  0  0  0  0  0  0  0  0  0  0  0
    7.0376   46.0118   52.4373 C   0  0  0  0  0  3  0  0  0  0  0  0
    8.6504   45.1920   50.8541 C   0  0  0  0  0  0  0  0  0  0  0  0
    8.0408   46.7439   53.0601 C   0  0  0  0  0  3  0  0  0  0  0  0
    9.6233   45.9154   51.4755 C   0  0  0  0  0  3  0  0  0  0  0  0
    9.3293   46.6865   52.5688 C   0  0  0  0  0  3  0  0  0  0  0  0
   10.0467   44.3493   49.3113 O   0  0  0  0  0  0  0  0  0  0  0  0
    3.8804   41.9074   50.5347 C   0  0  0  0  0  0  0  0  0  0  0  0
    3.4229   40.8125   50.9618 O   0  0  0  0  0  0  0  0  0  0  0  0
    3.1381   43.1756   50.7617 C   0  0  0  0  0  2  0  0  0  0  0  0
    2.9895   43.2888   52.2821 C   0  0  0  0  0  2  0  0  0  0  0  0
    3.8603   44.4191   52.7592 C   0  0  0  0  0  3  0  0  0  0  0  0
    3.5346   45.6647   51.9623 C   0  0  0  0  0  2  0  0  0  0  0  0
    3.5445   44.7607   54.2014 C   0  0  0  0  0  2  0  0  0  0  0  0
    3.0826   46.6946   52.9594 C   0  0  0  0  0  2  0  0  0  0  0  0
    2.4767   45.8516   54.0631 C   0  0  0  0  0  2  0  0  0  0  0  0
  2  1  1  0
  2 15  1  0
  3  4  1  0
  3  2  1  0
  4  5  2  0
  5  7  1  0
  6  4  1  0
  7  9  2  0
  8  6  1  0
  8 10  1  0
  9 11  1  0
 10 12  2  0
 10  7  1  0
 12 13  1  0
 13 11  2  0
 14  8  2  0
 15 17  1  0
 16 15  2  0
 17 18  1  0
 18 19  1  0
 19 21  1  0
 19 20  1  0
 21 23  1  0
 22 20  1  0
 23 22  1  0
M  RAD  8   1   2   3   3   9   2  11   2  12   2  13   2  17   3  18   3
M  RAD  5  19   2  20   3  21   3  22   3  23   3
M  END
>  <REMARK>  (1) 
 SMILES CN(Cc1nc2ccccc2c(=O)[nH]1)C(=O)CCC1CCCC1
 SMILES IDX 1 1 2 2 3 3 4 4 5 5 14 6 6 7 12 8 7 9 11 10 8 11 10 12 9 13
 SMILES IDX 13 15 15 16 16 17 17 18 18 19 19 20 20 21 23 22 21 23 22 24
 H PARENT 14 14

>  <TORSDO>  (1) 
F 6

$$$$
