/home/pchatterjee/Documents/git/vs_workflow/DiffDock/diffdock_run/pdbqt_scrubbed/Z2205184554.pdbqt
     RDKit          3D

 23 25  0  0  0  0  0  0  0  0999 V2000
    7.8784   46.9536   52.6285 O   0  0  0  0  0  0  0  0  0  0  0  0
    8.8849   46.9143   51.6332 C   0  0  0  0  0  2  0  0  0  0  0  0
    8.8768   45.6475   50.8541 C   0  0  0  0  0  0  0  0  0  0  0  0
    7.8154   43.8091   49.8136 C   0  0  0  0  0  0  0  0  0  0  0  0
    7.7141   44.9721   50.5382 C   0  0  0  0  0  3  0  0  0  0  0  0
    9.0154   43.3410   49.4224 N   0  0  0  0  0  0  0  0  0  0  0  0
   10.1479   44.0013   49.7315 C   0  0  0  0  0  3  0  0  0  0  0  0
   10.0505   45.1385   50.4399 N   0  0  0  0  0  0  0  0  0  0  0  0
    6.5800   43.0483   49.4514 C   0  0  0  0  0  1  0  0  0  0  0  0
    7.8864   47.8715   53.6623 C   0  0  0  0  0  0  0  0  0  0  0  0
    8.9173   48.7865   53.6862 C   0  0  0  0  0  3  0  0  0  0  0  0
    6.8819   47.8320   54.6060 C   0  0  0  0  0  0  0  0  0  0  0  0
    8.9383   49.7076   54.7108 C   0  0  0  0  0  3  0  0  0  0  0  0
    6.9274   48.7654   55.6205 C   0  0  0  0  0  3  0  0  0  0  0  0
    7.9513   49.6826   55.6538 C   0  0  0  0  0  3  0  0  0  0  0  0
    5.8031   46.8452   54.5478 C   0  0  0  0  0  0  0  0  0  0  0  0
    4.7321   47.0416   53.6595 N   0  0  0  0  0  0  0  0  0  0  0  0
    5.8884   45.8388   55.3182 O   0  0  0  0  0  0  0  0  0  0  0  0
    3.5062   46.2821   53.6557 C   0  0  0  0  0  3  0  0  0  0  0  0
    2.5322   46.7200   52.6201 C   0  0  0  0  0  2  0  0  0  0  0  0
    3.6771   44.8067   53.6099 C   0  0  0  0  0  2  0  0  0  0  0  0
    2.4227   45.5431   51.6794 C   0  0  0  0  0  2  0  0  0  0  0  0
    2.6770   44.3405   52.5499 C   0  0  0  0  0  2  0  0  0  0  0  0
  1  2  1  0
  2  3  1  0
  3  5  2  0
  3  8  1  0
  4  9  1  0
  4  6  2  0
  5  4  1  0
  7  6  1  0
  8  7  2  0
 10 11  2  0
 10  1  1  0
 12 10  1  0
 13 11  1  0
 14 15  1  0
 14 12  2  0
 15 13  2  0
 16 12  1  0
 16 17  1  0
 18 16  2  0
 19 17  1  0
 19 20  1  0
 20 22  1  0
 21 19  1  0
 21 23  1  0
 23 22  1  0
M  RAD  8   2   3   5   2   7   2   9   2  11   2  13   2  14   2  15   2
M  RAD  5  19   2  20   3  21   3  22   3  23   3
M  END
>  <REMARK>  (1) 
 SMILES Cc1cc(COc2ccccc2C(=O)NC2CCCC2)ncn1
 SMILES IDX 6 1 5 2 4 3 2 4 3 5 23 6 22 7 21 8 1 9 7 10 8 11 12 12 9 13
 SMILES IDX 11 14 10 15 13 16 15 17 14 18 16 20 17 21 20 22 18 23 19 24
 H PARENT 15 19

>  <TORSDO>  (1) 
F 5

$$$$
