/home/pchatterjee/Documents/git/vs_workflow/DiffDock/diffdock_run/pdbqt_scrubbed/Z2205184554.pdbqt
     RDKit          3D

 23 25  0  0  0  0  0  0  0  0999 V2000
    5.9739   45.4190   52.1228 O   0  0  0  0  0  0  0  0  0  0  0  0
    5.8503   44.7693   50.8707 C   0  0  0  0  0  2  0  0  0  0  0  0
    7.1609   44.3520   50.3053 C   0  0  0  0  0  0  0  0  0  0  0  0
    9.5231   44.3568   50.2095 C   0  0  0  0  0  0  0  0  0  0  0  0
    8.3674   44.8031   50.8037 C   0  0  0  0  0  3  0  0  0  0  0  0
    9.4801   43.5029   49.1696 N   0  0  0  0  0  0  0  0  0  0  0  0
    8.3025   43.0643   48.6851 C   0  0  0  0  0  3  0  0  0  0  0  0
    7.1718   43.4998   49.2651 N   0  0  0  0  0  0  0  0  0  0  0  0
   10.8496   44.8218   50.7198 C   0  0  0  0  0  1  0  0  0  0  0  0
    4.8876   45.9264   52.8110 C   0  0  0  0  0  0  0  0  0  0  0  0
    3.6382   45.4811   52.4352 C   0  0  0  0  0  3  0  0  0  0  0  0
    5.0976   46.8383   53.8237 C   0  0  0  0  0  0  0  0  0  0  0  0
    2.5457   45.9781   53.1123 C   0  0  0  0  0  3  0  0  0  0  0  0
    3.9868   47.3194   54.4847 C   0  0  0  0  0  3  0  0  0  0  0  0
    2.7359   46.8818   54.1178 C   0  0  0  0  0  3  0  0  0  0  0  0
    6.4397   47.2879   54.1947 C   0  0  0  0  0  0  0  0  0  0  0  0
    6.6336   48.6139   54.6174 N   0  0  0  0  0  0  0  0  0  0  0  0
    7.3833   46.4411   54.1153 O   0  0  0  0  0  0  0  0  0  0  0  0
    7.9139   49.2223   54.8824 C   0  0  0  0  0  3  0  0  0  0  0  0
    8.0467   49.7648   56.2613 C   0  0  0  0  0  2  0  0  0  0  0  0
    9.0938   48.3850   54.5435 C   0  0  0  0  0  2  0  0  0  0  0  0
    9.1222   48.9185   56.9008 C   0  0  0  0  0  2  0  0  0  0  0  0
   10.0165   48.5185   55.7566 C   0  0  0  0  0  2  0  0  0  0  0  0
  1  2  1  0
  2  3  1  0
  3  5  2  0
  3  8  1  0
  4  9  1  0
  4  6  2  0
  5  4  1  0
  7  6  1  0
  8  7  2  0
 10 11  2  0
 10  1  1  0
 12 10  1  0
 13 11  1  0
 14 15  1  0
 14 12  2  0
 15 13  2  0
 16 12  1  0
 16 17  1  0
 18 16  2  0
 19 17  1  0
 19 20  1  0
 20 22  1  0
 21 19  1  0
 21 23  1  0
 23 22  1  0
M  RAD  8   2   3   5   2   7   2   9   2  11   2  13   2  14   2  15   2
M  RAD  5  19   2  20   3  21   3  22   3  23   3
M  END
>  <REMARK>  (1) 
 SMILES Cc1cc(COc2ccccc2C(=O)NC2CCCC2)ncn1
 SMILES IDX 6 1 5 2 4 3 2 4 3 5 23 6 22 7 21 8 1 9 7 10 8 11 12 12 9 13
 SMILES IDX 11 14 10 15 13 16 15 17 14 18 16 20 17 21 20 22 18 23 19 24
 H PARENT 15 19

>  <TORSDO>  (1) 
F 5

$$$$
