/home/pchatterjee/Documents/git/vs_workflow/DiffDock/diffdock_run/pdbqt_scrubbed/Z2205184554.pdbqt
     RDKit          3D

 23 25  0  0  0  0  0  0  0  0999 V2000
    6.7085   46.7093   52.5394 O   0  0  0  0  0  0  0  0  0  0  0  0
    8.1162   46.8187   52.4327 C   0  0  0  0  0  2  0  0  0  0  0  0
    8.6969   45.8604   51.4548 C   0  0  0  0  0  0  0  0  0  0  0  0
    8.5625   44.1148   49.8663 C   0  0  0  0  0  0  0  0  0  0  0  0
    7.9281   44.9577   50.7465 C   0  0  0  0  0  3  0  0  0  0  0  0
    9.8972   44.1676   49.6991 N   0  0  0  0  0  0  0  0  0  0  0  0
   10.6450   45.0486   50.3909 C   0  0  0  0  0  3  0  0  0  0  0  0
   10.0261   45.8734   51.2518 N   0  0  0  0  0  0  0  0  0  0  0  0
    7.7655   43.1231   49.0804 C   0  0  0  0  0  1  0  0  0  0  0  0
    6.0015   47.1997   53.6216 C   0  0  0  0  0  0  0  0  0  0  0  0
    6.5730   48.2330   54.3331 C   0  0  0  0  0  3  0  0  0  0  0  0
    4.7791   46.6443   53.9355 C   0  0  0  0  0  0  0  0  0  0  0  0
    5.8798   48.7322   55.4144 C   0  0  0  0  0  3  0  0  0  0  0  0
    4.1069   47.1630   55.0224 C   0  0  0  0  0  3  0  0  0  0  0  0
    4.6680   48.1937   55.7391 C   0  0  0  0  0  3  0  0  0  0  0  0
    4.2039   45.5475   53.1562 C   0  0  0  0  0  0  0  0  0  0  0  0
    2.8686   45.6294   52.7262 N   0  0  0  0  0  0  0  0  0  0  0  0
    4.9541   44.5547   52.9011 O   0  0  0  0  0  0  0  0  0  0  0  0
    2.1760   44.6158   51.9697 C   0  0  0  0  0  3  0  0  0  0  0  0
    2.6105   43.2287   52.2866 C   0  0  0  0  0  2  0  0  0  0  0  0
    0.6933   44.7091   51.9973 C   0  0  0  0  0  2  0  0  0  0  0  0
    1.3937   42.5811   52.9046 C   0  0  0  0  0  2  0  0  0  0  0  0
    0.2262   43.2748   52.2530 C   0  0  0  0  0  2  0  0  0  0  0  0
  1  2  1  0
  2  3  1  0
  3  5  2  0
  3  8  1  0
  4  9  1  0
  4  6  2  0
  5  4  1  0
  7  6  1  0
  8  7  2  0
 10 11  2  0
 10  1  1  0
 12 10  1  0
 13 11  1  0
 14 15  1  0
 14 12  2  0
 15 13  2  0
 16 12  1  0
 16 17  1  0
 18 16  2  0
 19 17  1  0
 19 20  1  0
 20 22  1  0
 21 19  1  0
 21 23  1  0
 23 22  1  0
M  RAD  8   2   3   5   2   7   2   9   2  11   2  13   2  14   2  15   2
M  RAD  5  19   2  20   3  21   3  22   3  23   3
M  END
>  <REMARK>  (1) 
 SMILES Cc1cc(COc2ccccc2C(=O)NC2CCCC2)ncn1
 SMILES IDX 6 1 5 2 4 3 2 4 3 5 23 6 22 7 21 8 1 9 7 10 8 11 12 12 9 13
 SMILES IDX 11 14 10 15 13 16 15 17 14 18 16 20 17 21 20 22 18 23 19 24
 H PARENT 15 19

>  <TORSDO>  (1) 
F 5

$$$$
