/home/pchatterjee/Documents/git/vs_workflow/DiffDock/diffdock_run/pdbqt_scrubbed/Z2205184554.pdbqt
     RDKit          3D

 23 25  0  0  0  0  0  0  0  0999 V2000
   11.7433   71.1179   81.0667 O   0  0  0  0  0  0  0  0  0  0  0  0
   11.1556   72.3726   80.7742 C   0  0  0  0  0  2  0  0  0  0  0  0
   11.0445   73.2504   81.9695 C   0  0  0  0  0  0  0  0  0  0  0  0
   11.9327   74.6118   83.6860 C   0  0  0  0  0  0  0  0  0  0  0  0
   12.1435   73.8150   82.5867 C   0  0  0  0  0  3  0  0  0  0  0  0
   10.6885   74.8358   84.1486 N   0  0  0  0  0  0  0  0  0  0  0  0
    9.6181   74.2842   83.5452 C   0  0  0  0  0  3  0  0  0  0  0  0
    9.8227   73.5049   82.4704 N   0  0  0  0  0  0  0  0  0  0  0  0
   13.0965   75.2417   84.3825 C   0  0  0  0  0  1  0  0  0  0  0  0
   12.0112   70.1738   80.0929 C   0  0  0  0  0  0  0  0  0  0  0  0
   12.0493   70.6089   78.7853 C   0  0  0  0  0  3  0  0  0  0  0  0
   12.2243   68.8634   80.4654 C   0  0  0  0  0  0  0  0  0  0  0  0
   12.3151   69.6791   77.8037 C   0  0  0  0  0  3  0  0  0  0  0  0
   12.4883   67.9538   79.4628 C   0  0  0  0  0  3  0  0  0  0  0  0
   12.5286   68.3772   78.1552 C   0  0  0  0  0  3  0  0  0  0  0  0
   12.1758   68.4386   81.8647 C   0  0  0  0  0  0  0  0  0  0  0  0
   11.9416   67.0871   82.1704 N   0  0  0  0  0  0  0  0  0  0  0  0
   12.3513   69.3293   82.7532 O   0  0  0  0  0  0  0  0  0  0  0  0
   11.9059   66.5305   83.5002 C   0  0  0  0  0  3  0  0  0  0  0  0
   11.8018   65.0467   83.5271 C   0  0  0  0  0  2  0  0  0  0  0  0
   12.9927   66.9862   84.4054 C   0  0  0  0  0  2  0  0  0  0  0  0
   13.1010   64.5857   84.1447 C   0  0  0  0  0  2  0  0  0  0  0  0
   13.4942   65.7044   85.0735 C   0  0  0  0  0  2  0  0  0  0  0  0
  1  2  1  0
  2  3  1  0
  3  5  2  0
  3  8  1  0
  4  9  1  0
  4  6  2  0
  5  4  1  0
  7  6  1  0
  8  7  2  0
 10 11  2  0
 10  1  1  0
 12 10  1  0
 13 11  1  0
 14 15  1  0
 14 12  2  0
 15 13  2  0
 16 12  1  0
 16 17  1  0
 18 16  2  0
 19 17  1  0
 19 20  1  0
 20 22  1  0
 21 19  1  0
 21 23  1  0
 23 22  1  0
M  RAD  8   2   3   5   2   7   2   9   2  11   2  13   2  14   2  15   2
M  RAD  5  19   2  20   3  21   3  22   3  23   3
M  END
>  <REMARK>  (1) 
 SMILES Cc1cc(COc2ccccc2C(=O)NC2CCCC2)ncn1
 SMILES IDX 6 1 5 2 4 3 2 4 3 5 23 6 22 7 21 8 1 9 7 10 8 11 12 12 9 13
 SMILES IDX 11 14 10 15 13 16 15 17 14 18 16 20 17 21 20 22 18 23 19 24
 H PARENT 15 19

>  <TORSDO>  (1) 
F 5

$$$$
