/home/pchatterjee/Documents/git/vs_workflow/DiffDock/diffdock_run/pdbqt_scrubbed/Z2205184554.pdbqt
     RDKit          3D

 23 25  0  0  0  0  0  0  0  0999 V2000
    5.8381   45.4066   51.9194 O   0  0  0  0  0  0  0  0  0  0  0  0
    5.7122   44.7848   50.6534 C   0  0  0  0  0  2  0  0  0  0  0  0
    7.0258   44.4506   50.0415 C   0  0  0  0  0  0  0  0  0  0  0  0
    9.3816   44.5739   49.8866 C   0  0  0  0  0  0  0  0  0  0  0  0
    8.2221   44.9437   50.5244 C   0  0  0  0  0  3  0  0  0  0  0  0
    9.3518   43.7532   48.8199 N   0  0  0  0  0  0  0  0  0  0  0  0
    8.1841   43.2735   48.3507 C   0  0  0  0  0  3  0  0  0  0  0  0
    7.0497   43.6342   48.9732 N   0  0  0  0  0  0  0  0  0  0  0  0
   10.6973   45.0864   50.3787 C   0  0  0  0  0  1  0  0  0  0  0  0
    4.7623   45.9565   52.5913 C   0  0  0  0  0  0  0  0  0  0  0  0
    3.5018   45.6331   52.1366 C   0  0  0  0  0  3  0  0  0  0  0  0
    4.9933   46.7886   53.6663 C   0  0  0  0  0  0  0  0  0  0  0  0
    2.4197   46.1738   52.7965 C   0  0  0  0  0  3  0  0  0  0  0  0
    3.8924   47.3159   54.3084 C   0  0  0  0  0  3  0  0  0  0  0  0
    2.6305   46.9997   53.8629 C   0  0  0  0  0  3  0  0  0  0  0  0
    6.3467   47.1093   54.1205 C   0  0  0  0  0  0  0  0  0  0  0  0
    6.5536   48.2285   54.9446 N   0  0  0  0  0  0  0  0  0  0  0  0
    7.2879   46.3455   53.7405 O   0  0  0  0  0  0  0  0  0  0  0  0
    7.7793   48.5318   55.6412 C   0  0  0  0  0  3  0  0  0  0  0  0
    8.8992   47.6084   55.3150 C   0  0  0  0  0  2  0  0  0  0  0  0
    8.2310   49.9438   55.5399 C   0  0  0  0  0  2  0  0  0  0  0  0
    9.9199   48.4791   54.6208 C   0  0  0  0  0  2  0  0  0  0  0  0
    9.7255   49.8439   55.2276 C   0  0  0  0  0  2  0  0  0  0  0  0
  1  2  1  0
  2  3  1  0
  3  5  2  0
  3  8  1  0
  4  9  1  0
  4  6  2  0
  5  4  1  0
  7  6  1  0
  8  7  2  0
 10 11  2  0
 10  1  1  0
 12 10  1  0
 13 11  1  0
 14 15  1  0
 14 12  2  0
 15 13  2  0
 16 12  1  0
 16 17  1  0
 18 16  2  0
 19 17  1  0
 19 20  1  0
 20 22  1  0
 21 19  1  0
 21 23  1  0
 23 22  1  0
M  RAD  8   2   3   5   2   7   2   9   2  11   2  13   2  14   2  15   2
M  RAD  5  19   2  20   3  21   3  22   3  23   3
M  END
>  <REMARK>  (1) 
 SMILES Cc1cc(COc2ccccc2C(=O)NC2CCCC2)ncn1
 SMILES IDX 6 1 5 2 4 3 2 4 3 5 23 6 22 7 21 8 1 9 7 10 8 11 12 12 9 13
 SMILES IDX 11 14 10 15 13 16 15 17 14 18 16 20 17 21 20 22 18 23 19 24
 H PARENT 15 19

>  <TORSDO>  (1) 
F 5

$$$$
