/home/pchatterjee/Documents/git/vs_workflow/DiffDock/diffdock_run/pdbqt_scrubbed/Z2205184554.pdbqt
     RDKit          3D

 23 25  0  0  0  0  0  0  0  0999 V2000
    5.8836   45.6598   52.0005 O   0  0  0  0  0  0  0  0  0  0  0  0
    5.6451   44.7170   50.9713 C   0  0  0  0  0  2  0  0  0  0  0  0
    6.8750   44.3694   50.2109 C   0  0  0  0  0  0  0  0  0  0  0  0
    9.1959   44.4793   49.7743 C   0  0  0  0  0  0  0  0  0  0  0  0
    8.1223   44.8621   50.5416 C   0  0  0  0  0  3  0  0  0  0  0  0
    9.0360   43.6466   48.7287 N   0  0  0  0  0  0  0  0  0  0  0  0
    7.8189   43.1673   48.4080 C   0  0  0  0  0  3  0  0  0  0  0  0
    6.7683   43.5407   49.1572 N   0  0  0  0  0  0  0  0  0  0  0  0
   10.5628   44.9909   50.0997 C   0  0  0  0  0  1  0  0  0  0  0  0
    4.8947   46.0834   52.8688 C   0  0  0  0  0  0  0  0  0  0  0  0
    3.6755   45.4439   52.7971 C   0  0  0  0  0  3  0  0  0  0  0  0
    5.1662   47.1074   53.7514 C   0  0  0  0  0  0  0  0  0  0  0  0
    2.6799   45.8554   53.6564 C   0  0  0  0  0  3  0  0  0  0  0  0
    4.1519   47.4992   54.5999 C   0  0  0  0  0  3  0  0  0  0  0  0
    2.9319   46.8680   54.5367 C   0  0  0  0  0  3  0  0  0  0  0  0
    6.4736   47.7627   53.7985 C   0  0  0  0  0  0  0  0  0  0  0  0
    6.9352   48.3007   55.0118 N   0  0  0  0  0  0  0  0  0  0  0  0
    7.1413   47.8148   52.7191 O   0  0  0  0  0  0  0  0  0  0  0  0
    8.1227   49.1043   55.1655 C   0  0  0  0  0  3  0  0  0  0  0  0
    8.4914   49.3652   56.5830 C   0  0  0  0  0  2  0  0  0  0  0  0
    9.3083   48.6320   54.4044 C   0  0  0  0  0  2  0  0  0  0  0  0
    9.8140   48.6591   56.7678 C   0  0  0  0  0  2  0  0  0  0  0  0
   10.4604   48.7086   55.4082 C   0  0  0  0  0  2  0  0  0  0  0  0
  1  2  1  0
  2  3  1  0
  3  5  2  0
  3  8  1  0
  4  9  1  0
  4  6  2  0
  5  4  1  0
  7  6  1  0
  8  7  2  0
 10 11  2  0
 10  1  1  0
 12 10  1  0
 13 11  1  0
 14 15  1  0
 14 12  2  0
 15 13  2  0
 16 12  1  0
 16 17  1  0
 18 16  2  0
 19 17  1  0
 19 20  1  0
 20 22  1  0
 21 19  1  0
 21 23  1  0
 23 22  1  0
M  RAD  8   2   3   5   2   7   2   9   2  11   2  13   2  14   2  15   2
M  RAD  5  19   2  20   3  21   3  22   3  23   3
M  END
>  <REMARK>  (1) 
 SMILES Cc1cc(COc2ccccc2C(=O)NC2CCCC2)ncn1
 SMILES IDX 6 1 5 2 4 3 2 4 3 5 23 6 22 7 21 8 1 9 7 10 8 11 12 12 9 13
 SMILES IDX 11 14 10 15 13 16 15 17 14 18 16 20 17 21 20 22 18 23 19 24
 H PARENT 15 19

>  <TORSDO>  (1) 
F 5

$$$$
