/home/pchatterjee/Documents/git/vs_workflow/DiffDock/diffdock_run/pdbqt_scrubbed/Z2205184554.pdbqt
     RDKit          3D

 23 25  0  0  0  0  0  0  0  0999 V2000
   13.9050   61.1261   84.2116 O   0  0  0  0  0  0  0  0  0  0  0  0
   14.0255   59.7190   84.3157 C   0  0  0  0  0  2  0  0  0  0  0  0
   13.9704   59.0360   82.9959 C   0  0  0  0  0  0  0  0  0  0  0  0
   13.6720   57.1533   81.5975 C   0  0  0  0  0  0  0  0  0  0  0  0
   13.7000   57.6880   82.8628 C   0  0  0  0  0  3  0  0  0  0  0  0
   13.9020   57.9226   80.5170 N   0  0  0  0  0  0  0  0  0  0  0  0
   14.1655   59.2369   80.6490 C   0  0  0  0  0  3  0  0  0  0  0  0
   14.1932   59.7611   81.8855 N   0  0  0  0  0  0  0  0  0  0  0  0
   13.3828   55.6980   81.4111 C   0  0  0  0  0  1  0  0  0  0  0  0
   13.9688   61.9641   85.3093 C   0  0  0  0  0  0  0  0  0  0  0  0
   14.5483   61.4611   86.4546 C   0  0  0  0  0  3  0  0  0  0  0  0
   13.4598   63.2418   85.2120 C   0  0  0  0  0  0  0  0  0  0  0  0
   14.6190   62.2849   87.5569 C   0  0  0  0  0  3  0  0  0  0  0  0
   13.5436   64.0450   86.3302 C   0  0  0  0  0  3  0  0  0  0  0  0
   14.1197   63.5531   87.4778 C   0  0  0  0  0  3  0  0  0  0  0  0
   12.8515   63.7412   83.9784 C   0  0  0  0  0  0  0  0  0  0  0  0
   11.5055   64.1446   83.9841 N   0  0  0  0  0  0  0  0  0  0  0  0
   13.5840   63.7868   82.9416 O   0  0  0  0  0  0  0  0  0  0  0  0
   10.7818   64.6389   82.8388 C   0  0  0  0  0  3  0  0  0  0  0  0
    9.3572   64.9604   83.1222 C   0  0  0  0  0  2  0  0  0  0  0  0
   11.4302   65.7662   82.1199 C   0  0  0  0  0  2  0  0  0  0  0  0
    9.2592   66.4553   82.9286 C   0  0  0  0  0  2  0  0  0  0  0  0
   10.2987   66.7687   81.8845 C   0  0  0  0  0  2  0  0  0  0  0  0
  1  2  1  0
  2  3  1  0
  3  5  2  0
  3  8  1  0
  4  9  1  0
  4  6  2  0
  5  4  1  0
  7  6  1  0
  8  7  2  0
 10 11  2  0
 10  1  1  0
 12 10  1  0
 13 11  1  0
 14 15  1  0
 14 12  2  0
 15 13  2  0
 16 12  1  0
 16 17  1  0
 18 16  2  0
 19 17  1  0
 19 20  1  0
 20 22  1  0
 21 19  1  0
 21 23  1  0
 23 22  1  0
M  RAD  8   2   3   5   2   7   2   9   2  11   2  13   2  14   2  15   2
M  RAD  5  19   2  20   3  21   3  22   3  23   3
M  END
>  <REMARK>  (1) 
 SMILES Cc1cc(COc2ccccc2C(=O)NC2CCCC2)ncn1
 SMILES IDX 6 1 5 2 4 3 2 4 3 5 23 6 22 7 21 8 1 9 7 10 8 11 12 12 9 13
 SMILES IDX 11 14 10 15 13 16 15 17 14 18 16 20 17 21 20 22 18 23 19 24
 H PARENT 15 19

>  <TORSDO>  (1) 
F 5

$$$$
