/home/pchatterjee/Documents/git/vs_workflow/DiffDock/diffdock_run/pdbqt_scrubbed/Z2205184554.pdbqt
     RDKit          3D

 23 25  0  0  0  0  0  0  0  0999 V2000
    5.8866   45.3500   52.0987 O   0  0  0  0  0  0  0  0  0  0  0  0
    5.7082   44.7675   50.8204 C   0  0  0  0  0  2  0  0  0  0  0  0
    6.9910   44.3596   50.1881 C   0  0  0  0  0  0  0  0  0  0  0  0
    9.3432   44.4005   49.9550 C   0  0  0  0  0  0  0  0  0  0  0  0
    8.2164   44.8405   50.6064 C   0  0  0  0  0  3  0  0  0  0  0  0
    9.2549   43.5244   48.9367 N   0  0  0  0  0  0  0  0  0  0  0  0
    8.0590   43.0567   48.5304 C   0  0  0  0  0  3  0  0  0  0  0  0
    6.9564   43.4861   49.1664 N   0  0  0  0  0  0  0  0  0  0  0  0
   10.6887   44.8974   50.3778 C   0  0  0  0  0  1  0  0  0  0  0  0
    4.8448   45.9059   52.8177 C   0  0  0  0  0  0  0  0  0  0  0  0
    3.5879   45.3751   52.6206 C   0  0  0  0  0  3  0  0  0  0  0  0
    5.1040   46.9470   53.6838 C   0  0  0  0  0  0  0  0  0  0  0  0
    2.5395   45.9191   53.3305 C   0  0  0  0  0  3  0  0  0  0  0  0
    4.0366   47.4725   54.3815 C   0  0  0  0  0  3  0  0  0  0  0  0
    2.7786   46.9505   54.1924 C   0  0  0  0  0  3  0  0  0  0  0  0
    6.4526   47.4845   53.8669 C   0  0  0  0  0  0  0  0  0  0  0  0
    6.6584   48.5484   54.7615 N   0  0  0  0  0  0  0  0  0  0  0  0
    7.3905   46.9529   53.1951 O   0  0  0  0  0  0  0  0  0  0  0  0
    7.9014   49.2587   54.9352 C   0  0  0  0  0  3  0  0  0  0  0  0
    8.0963   49.8005   56.3070 C   0  0  0  0  0  2  0  0  0  0  0  0
    9.1159   48.5243   54.4951 C   0  0  0  0  0  2  0  0  0  0  0  0
    9.2840   49.0415   56.8502 C   0  0  0  0  0  2  0  0  0  0  0  0
   10.1162   48.7250   55.6352 C   0  0  0  0  0  2  0  0  0  0  0  0
  1  2  1  0
  2  3  1  0
  3  5  2  0
  3  8  1  0
  4  9  1  0
  4  6  2  0
  5  4  1  0
  7  6  1  0
  8  7  2  0
 10 11  2  0
 10  1  1  0
 12 10  1  0
 13 11  1  0
 14 15  1  0
 14 12  2  0
 15 13  2  0
 16 12  1  0
 16 17  1  0
 18 16  2  0
 19 17  1  0
 19 20  1  0
 20 22  1  0
 21 19  1  0
 21 23  1  0
 23 22  1  0
M  RAD  8   2   3   5   2   7   2   9   2  11   2  13   2  14   2  15   2
M  RAD  5  19   2  20   3  21   3  22   3  23   3
M  END
>  <REMARK>  (1) 
 SMILES Cc1cc(COc2ccccc2C(=O)NC2CCCC2)ncn1
 SMILES IDX 6 1 5 2 4 3 2 4 3 5 23 6 22 7 21 8 1 9 7 10 8 11 12 12 9 13
 SMILES IDX 11 14 10 15 13 16 15 17 14 18 16 20 17 21 20 22 18 23 19 24
 H PARENT 15 19

>  <TORSDO>  (1) 
F 5

$$$$
