/home/pchatterjee/Documents/git/vs_workflow/DiffDock/diffdock_run/pdbqt_scrubbed/Z2205184554.pdbqt
     RDKit          3D

 23 25  0  0  0  0  0  0  0  0999 V2000
    5.7563   42.8566   49.3369 O   0  0  0  0  0  0  0  0  0  0  0  0
    7.1076   42.4774   49.5251 C   0  0  0  0  0  2  0  0  0  0  0  0
    7.9535   43.5896   50.0339 C   0  0  0  0  0  0  0  0  0  0  0  0
    8.3188   45.5925   51.2357 C   0  0  0  0  0  0  0  0  0  0  0  0
    7.4527   44.6116   50.8166 C   0  0  0  0  0  3  0  0  0  0  0  0
    9.6200   45.5580   50.8926 N   0  0  0  0  0  0  0  0  0  0  0  0
   10.1063   44.5606   50.1293 C   0  0  0  0  0  3  0  0  0  0  0  0
    9.2608   43.6008   49.7188 N   0  0  0  0  0  0  0  0  0  0  0  0
    7.8156   46.7160   52.0845 C   0  0  0  0  0  1  0  0  0  0  0  0
    4.7024   41.9816   49.5236 C   0  0  0  0  0  0  0  0  0  0  0  0
    4.3357   41.7033   50.8231 C   0  0  0  0  0  3  0  0  0  0  0  0
    4.0764   41.4361   48.4228 C   0  0  0  0  0  0  0  0  0  0  0  0
    3.2868   40.8327   51.0248 C   0  0  0  0  0  3  0  0  0  0  0  0
    3.0297   40.5681   48.6535 C   0  0  0  0  0  3  0  0  0  0  0  0
    2.6557   40.2836   49.9459 C   0  0  0  0  0  3  0  0  0  0  0  0
    4.4939   41.7554   47.0573 C   0  0  0  0  0  0  0  0  0  0  0  0
    3.8097   41.1821   45.9720 N   0  0  0  0  0  0  0  0  0  0  0  0
    5.4740   42.5511   46.9160 O   0  0  0  0  0  0  0  0  0  0  0  0
    4.1278   41.3979   44.5821 C   0  0  0  0  0  3  0  0  0  0  0  0
    3.4616   40.4408   43.6584 C   0  0  0  0  0  2  0  0  0  0  0  0
    3.9424   42.7913   44.1003 C   0  0  0  0  0  2  0  0  0  0  0  0
    2.5269   41.2955   42.8350 C   0  0  0  0  0  2  0  0  0  0  0  0
    3.2054   42.6386   42.7683 C   0  0  0  0  0  2  0  0  0  0  0  0
  1  2  1  0
  2  3  1  0
  3  5  2  0
  3  8  1  0
  4  9  1  0
  4  6  2  0
  5  4  1  0
  7  6  1  0
  8  7  2  0
 10 11  2  0
 10  1  1  0
 12 10  1  0
 13 11  1  0
 14 15  1  0
 14 12  2  0
 15 13  2  0
 16 12  1  0
 16 17  1  0
 18 16  2  0
 19 17  1  0
 19 20  1  0
 20 22  1  0
 21 19  1  0
 21 23  1  0
 23 22  1  0
M  RAD  8   2   3   5   2   7   2   9   2  11   2  13   2  14   2  15   2
M  RAD  5  19   2  20   3  21   3  22   3  23   3
M  END
>  <REMARK>  (1) 
 SMILES Cc1cc(COc2ccccc2C(=O)NC2CCCC2)ncn1
 SMILES IDX 6 1 5 2 4 3 2 4 3 5 23 6 22 7 21 8 1 9 7 10 8 11 12 12 9 13
 SMILES IDX 11 14 10 15 13 16 15 17 14 18 16 20 17 21 20 22 18 23 19 24
 H PARENT 15 19

>  <TORSDO>  (1) 
F 5

$$$$
