/home/pchatterjee/Documents/git/vs_workflow/DiffDock/diffdock_run/pdbqt_scrubbed/Z2205184554.pdbqt
     RDKit          3D

 23 25  0  0  0  0  0  0  0  0999 V2000
    5.8520   45.3451   52.0799 O   0  0  0  0  0  0  0  0  0  0  0  0
    5.6720   44.7377   50.8135 C   0  0  0  0  0  2  0  0  0  0  0  0
    6.9541   44.3200   50.1864 C   0  0  0  0  0  0  0  0  0  0  0  0
    9.3052   44.3661   49.9425 C   0  0  0  0  0  0  0  0  0  0  0  0
    8.1788   44.8172   50.5873 C   0  0  0  0  0  3  0  0  0  0  0  0
    9.2170   43.4640   48.9472 N   0  0  0  0  0  0  0  0  0  0  0  0
    8.0217   42.9805   48.5579 C   0  0  0  0  0  3  0  0  0  0  0  0
    6.9197   43.4206   49.1873 N   0  0  0  0  0  0  0  0  0  0  0  0
   10.6500   44.8801   50.3469 C   0  0  0  0  0  1  0  0  0  0  0  0
    4.8131   45.9246   52.7844 C   0  0  0  0  0  0  0  0  0  0  0  0
    3.5510   45.4055   52.5890 C   0  0  0  0  0  3  0  0  0  0  0  0
    5.0801   46.9762   53.6353 C   0  0  0  0  0  0  0  0  0  0  0  0
    2.5055   45.9729   53.2845 C   0  0  0  0  0  3  0  0  0  0  0  0
    4.0154   47.5252   54.3189 C   0  0  0  0  0  3  0  0  0  0  0  0
    2.7523   47.0150   54.1312 C   0  0  0  0  0  3  0  0  0  0  0  0
    6.4339   47.5006   53.8172 C   0  0  0  0  0  0  0  0  0  0  0  0
    6.6733   48.4729   54.8031 N   0  0  0  0  0  0  0  0  0  0  0  0
    7.3454   47.0426   53.0602 O   0  0  0  0  0  0  0  0  0  0  0  0
    7.9246   49.1609   55.0045 C   0  0  0  0  0  3  0  0  0  0  0  0
    8.1412   49.6148   56.4046 C   0  0  0  0  0  2  0  0  0  0  0  0
    9.1269   48.4454   54.5040 C   0  0  0  0  0  2  0  0  0  0  0  0
    9.3288   48.8139   56.8843 C   0  0  0  0  0  2  0  0  0  0  0  0
   10.1430   48.5667   55.6414 C   0  0  0  0  0  2  0  0  0  0  0  0
  1  2  1  0
  2  3  1  0
  3  5  2  0
  3  8  1  0
  4  9  1  0
  4  6  2  0
  5  4  1  0
  7  6  1  0
  8  7  2  0
 10 11  2  0
 10  1  1  0
 12 10  1  0
 13 11  1  0
 14 15  1  0
 14 12  2  0
 15 13  2  0
 16 12  1  0
 16 17  1  0
 18 16  2  0
 19 17  1  0
 19 20  1  0
 20 22  1  0
 21 19  1  0
 21 23  1  0
 23 22  1  0
M  RAD  8   2   3   5   2   7   2   9   2  11   2  13   2  14   2  15   2
M  RAD  5  19   2  20   3  21   3  22   3  23   3
M  END
>  <REMARK>  (1) 
 SMILES Cc1cc(COc2ccccc2C(=O)NC2CCCC2)ncn1
 SMILES IDX 6 1 5 2 4 3 2 4 3 5 23 6 22 7 21 8 1 9 7 10 8 11 12 12 9 13
 SMILES IDX 11 14 10 15 13 16 15 17 14 18 16 20 17 21 20 22 18 23 19 24
 H PARENT 15 19

>  <TORSDO>  (1) 
F 5

$$$$
