/home/pchatterjee/Documents/git/vs_workflow/DiffDock/diffdock_run/pdbqt_scrubbed/Z56854611.pdbqt
     RDKit          3D

 24 27  0  0  1  0  0  0  0  0999 V2000
    7.0525   42.5226   48.7221 N   0  0  0  0  0  0  0  0  0  0  0  0
    5.7911   41.8754   48.5966 C   0  0  0  0  0  0  0  0  0  0  0  0
    3.3717   40.6652   48.4310 C   0  0  0  0  0  0  0  0  0  0  0  0
    3.6942   41.2992   49.5991 C   0  0  0  0  0  3  0  0  0  0  0  0
    4.1984   40.6007   47.3288 C   0  0  0  0  0  3  0  0  0  0  0  0
    4.9348   41.9147   49.6713 C   0  0  0  0  0  3  0  0  0  0  0  0
    5.4350   41.2263   47.4304 C   0  0  0  0  0  3  0  0  0  0  0  0
    2.0520   39.9995   48.3275 C   0  0  0  0  0  1  0  0  0  0  0  0
    7.2700   43.5620   49.6952 C   0  0  0  0  0  0  0  0  0  0  0  0
    6.2903   43.8716   50.4719 N   0  0  0  0  0  0  0  0  0  0  0  0
    8.5463   44.1968   49.7568 N   0  0  0  0  0  2  0  0  0  0  0  0
    6.3594   44.8762   51.4783 C   0  0  0  0  0  3  0  0  0  0  0  0
    8.7459   45.2293   50.7313 C   0  0  0  0  0  0  0  0  0  0  0  0
    7.6785   45.5357   51.5454 C   0  0  0  0  0  0  0  0  0  0  0  0
    9.9617   45.8714   50.8285 C   0  0  0  0  0  3  0  0  0  0  0  0
    7.8452   46.5264   52.4920 C   0  0  0  0  0  3  0  0  0  0  0  0
   10.0906   46.8695   51.8004 C   0  0  0  0  0  3  0  0  0  0  0  0
    9.0392   47.1979   52.6298 C   0  0  0  0  0  3  0  0  0  0  0  0
    5.2985   45.8569   51.3837 N   0  0  0  0  0  0  0  0  0  0  0  0
    4.0239   45.1722   51.3177 C   0  0  0  0  0  2  0  0  0  0  0  0
    5.3869   46.7219   52.5413 C   0  0  0  0  0  2  0  0  0  0  0  0
    3.5915   44.6553   52.6726 C   0  0  0  0  0  2  0  0  0  0  0  0
    4.0025   46.8665   53.1524 C   0  0  0  0  0  2  0  0  0  0  0  0
    3.5709   45.6429   53.6550 O   0  0  0  0  0  0  0  0  0  0  0  0
  1  9  1  0
  2  1  1  0
  3  5  2  0
  3  4  1  0
  4  6  2  0
  5  7  1  0
  6  2  1  0
  7  2  2  0
  8  3  1  0
  9 11  1  0
 10 12  1  0
 10  9  2  0
 11 13  1  0
 12 19  1  0
 12 14  1  0
 13 15  2  0
 14 16  2  0
 14 13  1  0
 15 17  1  0
 16 18  1  0
 18 17  2  0
 19 21  1  0
 20 19  1  0
 22 20  1  0
 23 21  1  0
 24 22  1  0
 24 23  1  0
M  RAD  8   4   2   5   2   6   2   7   2   8   2  11   2  12   2  15   2
M  RAD  7  16   2  17   2  18   2  20   3  21   3  22   3  23   3
M  END
>  <REMARK>  (1) 
 SMILES Cc1ccc(Nc2nc(N3CCOCC3)c3ccccc3n2)cc1
 SMILES IDX 6 1 5 3 2 4 3 5 24 6 4 7 23 8 1 9 7 10 8 11 22 12 9 13 21 14
 SMILES IDX 16 15 20 16 17 17 19 18 18 19 10 20 11 21 15 22 12 23 14 24
 SMILES IDX 13 25
 H PARENT 6 2

>  <TORSDO>  (1) 
F 3

$$$$
