/home/pchatterjee/Documents/git/vs_workflow/DiffDock/diffdock_run/pdbqt_scrubbed/Z56854611.pdbqt
     RDKit          3D

 24 27  0  0  1  0  0  0  0  0999 V2000
    7.0826   42.2756   48.6541 N   0  0  0  0  0  0  0  0  0  0  0  0
    5.8005   41.6682   48.5392 C   0  0  0  0  0  0  0  0  0  0  0  0
    3.3444   40.5313   48.3951 C   0  0  0  0  0  0  0  0  0  0  0  0
    3.7162   41.1098   49.5773 C   0  0  0  0  0  3  0  0  0  0  0  0
    4.1388   40.4880   47.2684 C   0  0  0  0  0  3  0  0  0  0  0  0
    4.9752   41.6881   49.6384 C   0  0  0  0  0  3  0  0  0  0  0  0
    5.3948   41.0754   47.3592 C   0  0  0  0  0  3  0  0  0  0  0  0
    2.0042   39.9062   48.3031 C   0  0  0  0  0  1  0  0  0  0  0  0
    7.3455   43.2947   49.6373 C   0  0  0  0  0  0  0  0  0  0  0  0
    6.3851   43.6280   50.4280 N   0  0  0  0  0  0  0  0  0  0  0  0
    8.6435   43.8848   49.6929 N   0  0  0  0  0  2  0  0  0  0  0  0
    6.4988   44.6172   51.4456 C   0  0  0  0  0  3  0  0  0  0  0  0
    8.8883   44.8977   50.6775 C   0  0  0  0  0  0  0  0  0  0  0  0
    7.8404   45.2303   51.5066 C   0  0  0  0  0  0  0  0  0  0  0  0
   10.1264   45.4966   50.7695 C   0  0  0  0  0  3  0  0  0  0  0  0
    8.0507   46.2030   52.4632 C   0  0  0  0  0  3  0  0  0  0  0  0
   10.2993   46.4777   51.7519 C   0  0  0  0  0  3  0  0  0  0  0  0
    9.2684   46.8315   52.5963 C   0  0  0  0  0  3  0  0  0  0  0  0
    5.4713   45.6346   51.3741 N   0  0  0  0  0  0  0  0  0  0  0  0
    4.1729   44.9949   51.3228 C   0  0  0  0  0  2  0  0  0  0  0  0
    5.6070   46.4873   52.5363 C   0  0  0  0  0  2  0  0  0  0  0  0
    3.7432   44.4830   52.6805 C   0  0  0  0  0  2  0  0  0  0  0  0
    4.2378   46.6750   53.1695 C   0  0  0  0  0  2  0  0  0  0  0  0
    3.7716   45.4634   53.6700 O   0  0  0  0  0  0  0  0  0  0  0  0
  1  9  1  0
  2  1  1  0
  3  5  2  0
  3  4  1  0
  4  6  2  0
  5  7  1  0
  6  2  1  0
  7  2  2  0
  8  3  1  0
  9 11  1  0
 10 12  1  0
 10  9  2  0
 11 13  1  0
 12 19  1  0
 12 14  1  0
 13 15  2  0
 14 16  2  0
 14 13  1  0
 15 17  1  0
 16 18  1  0
 18 17  2  0
 19 21  1  0
 20 19  1  0
 22 20  1  0
 23 21  1  0
 24 22  1  0
 24 23  1  0
M  RAD  8   4   2   5   2   6   2   7   2   8   2  11   2  12   2  15   2
M  RAD  7  16   2  17   2  18   2  20   3  21   3  22   3  23   3
M  END
>  <REMARK>  (1) 
 SMILES Cc1ccc(Nc2nc(N3CCOCC3)c3ccccc3n2)cc1
 SMILES IDX 6 1 5 3 2 4 3 5 24 6 4 7 23 8 1 9 7 10 8 11 22 12 9 13 21 14
 SMILES IDX 16 15 20 16 17 17 19 18 18 19 10 20 11 21 15 22 12 23 14 24
 SMILES IDX 13 25
 H PARENT 6 2

>  <TORSDO>  (1) 
F 3

$$$$
