/home/pchatterjee/Documents/git/vs_workflow/DiffDock/diffdock_run/pdbqt_scrubbed/Z56854611.pdbqt
     RDKit          3D

 24 27  0  0  1  0  0  0  0  0999 V2000
   13.7374   64.7878   83.3235 N   0  0  0  0  0  0  0  0  0  0  0  0
   13.6284   64.0619   84.5429 C   0  0  0  0  0  0  0  0  0  0  0  0
   13.4446   62.6149   86.8272 C   0  0  0  0  0  0  0  0  0  0  0  0
   13.8559   61.9733   85.6917 C   0  0  0  0  0  3  0  0  0  0  0  0
   13.1162   63.9532   86.8870 C   0  0  0  0  0  3  0  0  0  0  0  0
   13.9459   62.7245   84.5294 C   0  0  0  0  0  3  0  0  0  0  0  0
   13.2159   64.6805   85.7072 C   0  0  0  0  0  3  0  0  0  0  0  0
   13.3399   61.8352   88.0828 C   0  0  0  0  0  1  0  0  0  0  0  0
   12.6723   65.6380   82.8576 C   0  0  0  0  0  0  0  0  0  0  0  0
   11.4780   65.3832   83.2672 N   0  0  0  0  0  0  0  0  0  0  0  0
   12.9816   66.7136   81.9726 N   0  0  0  0  0  2  0  0  0  0  0  0
   10.3300   66.1363   82.8910 C   0  0  0  0  0  3  0  0  0  0  0  0
   11.9096   67.5502   81.5184 C   0  0  0  0  0  0  0  0  0  0  0  0
   10.6456   67.2504   81.9752 C   0  0  0  0  0  0  0  0  0  0  0  0
   12.1594   68.6016   80.6627 C   0  0  0  0  0  3  0  0  0  0  0  0
    9.5961   68.0411   81.5524 C   0  0  0  0  0  3  0  0  0  0  0  0
   11.0693   69.3792   80.2574 C   0  0  0  0  0  3  0  0  0  0  0  0
    9.7924   69.1029   80.6983 C   0  0  0  0  0  3  0  0  0  0  0  0
    9.2583   65.3212   82.3588 N   0  0  0  0  0  0  0  0  0  0  0  0
    9.1436   64.1131   83.1492 C   0  0  0  0  0  2  0  0  0  0  0  0
    8.0421   66.1060   82.3935 C   0  0  0  0  0  2  0  0  0  0  0  0
    8.4561   64.3691   84.4728 C   0  0  0  0  0  2  0  0  0  0  0  0
    6.9321   65.2639   83.0013 C   0  0  0  0  0  2  0  0  0  0  0  0
    7.2158   64.9885   84.3353 O   0  0  0  0  0  0  0  0  0  0  0  0
  1  9  1  0
  2  1  1  0
  3  5  2  0
  3  4  1  0
  4  6  2  0
  5  7  1  0
  6  2  1  0
  7  2  2  0
  8  3  1  0
  9 11  1  0
 10 12  1  0
 10  9  2  0
 11 13  1  0
 12 19  1  0
 12 14  1  0
 13 15  2  0
 14 16  2  0
 14 13  1  0
 15 17  1  0
 16 18  1  0
 18 17  2  0
 19 21  1  0
 20 19  1  0
 22 20  1  0
 23 21  1  0
 24 22  1  0
 24 23  1  0
M  RAD  8   4   2   5   2   6   2   7   2   8   2  11   2  12   2  15   2
M  RAD  7  16   2  17   2  18   2  20   3  21   3  22   3  23   3
M  END
>  <REMARK>  (1) 
 SMILES Cc1ccc(Nc2nc(N3CCOCC3)c3ccccc3n2)cc1
 SMILES IDX 6 1 5 3 2 4 3 5 24 6 4 7 23 8 1 9 7 10 8 11 22 12 9 13 21 14
 SMILES IDX 16 15 20 16 17 17 19 18 18 19 10 20 11 21 15 22 12 23 14 24
 SMILES IDX 13 25
 H PARENT 6 2

>  <TORSDO>  (1) 
F 3

$$$$
