/home/pchatterjee/Documents/git/vs_workflow/DiffDock/diffdock_run/pdbqt_scrubbed/Z56854611.pdbqt
     RDKit          3D

 24 27  0  0  1  0  0  0  0  0999 V2000
   10.1569   65.3871   82.7451 N   0  0  0  0  0  0  0  0  0  0  0  0
   10.6600   66.4732   81.9750 C   0  0  0  0  0  0  0  0  0  0  0  0
   11.6897   68.5271   80.5373 C   0  0  0  0  0  0  0  0  0  0  0  0
   12.5415   67.8050   81.3268 C   0  0  0  0  0  3  0  0  0  0  0  0
   10.3378   68.2787   80.4240 C   0  0  0  0  0  3  0  0  0  0  0  0
   12.0026   66.7567   82.0575 C   0  0  0  0  0  3  0  0  0  0  0  0
    9.8260   67.2223   81.1677 C   0  0  0  0  0  3  0  0  0  0  0  0
   12.2400   69.6526   79.7462 C   0  0  0  0  0  1  0  0  0  0  0  0
   10.8576   64.1309   82.8193 C   0  0  0  0  0  0  0  0  0  0  0  0
   10.1545   63.0560   82.9140 N   0  0  0  0  0  0  0  0  0  0  0  0
   12.2841   64.1307   82.7852 N   0  0  0  0  0  2  0  0  0  0  0  0
   10.7086   61.7471   82.9956 C   0  0  0  0  0  3  0  0  0  0  0  0
   12.9658   62.8717   82.8601 C   0  0  0  0  0  0  0  0  0  0  0  0
   12.1845   61.7423   82.9606 C   0  0  0  0  0  0  0  0  0  0  0  0
   14.3430   62.8211   82.8307 C   0  0  0  0  0  3  0  0  0  0  0  0
   12.8170   60.5176   83.0342 C   0  0  0  0  0  3  0  0  0  0  0  0
   14.9461   61.5611   82.9076 C   0  0  0  0  0  3  0  0  0  0  0  0
   14.1896   60.4128   83.0089 C   0  0  0  0  0  3  0  0  0  0  0  0
   10.2186   60.9861   84.1257 N   0  0  0  0  0  0  0  0  0  0  0  0
    8.7759   61.0987   84.1838 C   0  0  0  0  0  2  0  0  0  0  0  0
   10.6463   59.6132   83.9574 C   0  0  0  0  0  2  0  0  0  0  0  0
    8.1007   60.2265   83.1478 C   0  0  0  0  0  2  0  0  0  0  0  0
    9.4581   58.6963   84.1987 C   0  0  0  0  0  2  0  0  0  0  0  0
    8.4947   58.8919   83.2141 O   0  0  0  0  0  0  0  0  0  0  0  0
  1  9  1  0
  2  1  1  0
  3  5  2  0
  3  4  1  0
  4  6  2  0
  5  7  1  0
  6  2  1  0
  7  2  2  0
  8  3  1  0
  9 11  1  0
 10 12  1  0
 10  9  2  0
 11 13  1  0
 12 19  1  0
 12 14  1  0
 13 15  2  0
 14 16  2  0
 14 13  1  0
 15 17  1  0
 16 18  1  0
 18 17  2  0
 19 21  1  0
 20 19  1  0
 22 20  1  0
 23 21  1  0
 24 22  1  0
 24 23  1  0
M  RAD  8   4   2   5   2   6   2   7   2   8   2  11   2  12   2  15   2
M  RAD  7  16   2  17   2  18   2  20   3  21   3  22   3  23   3
M  END
>  <REMARK>  (1) 
 SMILES Cc1ccc(Nc2nc(N3CCOCC3)c3ccccc3n2)cc1
 SMILES IDX 6 1 5 3 2 4 3 5 24 6 4 7 23 8 1 9 7 10 8 11 22 12 9 13 21 14
 SMILES IDX 16 15 20 16 17 17 19 18 18 19 10 20 11 21 15 22 12 23 14 24
 SMILES IDX 13 25
 H PARENT 6 2

>  <TORSDO>  (1) 
F 3

$$$$
