/home/pchatterjee/Documents/git/vs_workflow/DiffDock/diffdock_run/pdbqt_scrubbed/Z56854611.pdbqt
     RDKit          3D

 24 27  0  0  1  0  0  0  0  0999 V2000
    1.3323   62.7098   55.2227 N   0  0  0  0  0  0  0  0  0  0  0  0
    1.2960   63.5292   56.3859 C   0  0  0  0  0  0  0  0  0  0  0  0
    1.1484   65.0835   58.6014 C   0  0  0  0  0  0  0  0  0  0  0  0
   -0.0196   64.6128   58.0679 C   0  0  0  0  0  3  0  0  0  0  0  0
    2.3997   64.8189   58.0851 C   0  0  0  0  0  3  0  0  0  0  0  0
    0.0691   63.8187   56.9344 C   0  0  0  0  0  3  0  0  0  0  0  0
    2.4576   64.0206   56.9493 C   0  0  0  0  0  3  0  0  0  0  0  0
    1.0815   65.9344   59.8125 C   0  0  0  0  0  1  0  0  0  0  0  0
    0.8261   61.3615   55.2376 C   0  0  0  0  0  0  0  0  0  0  0  0
    0.1355   60.9908   56.2595 N   0  0  0  0  0  0  0  0  0  0  0  0
    1.1079   60.5039   54.1326 N   0  0  0  0  0  2  0  0  0  0  0  0
   -0.4268   59.6918   56.4115 C   0  0  0  0  0  3  0  0  0  0  0  0
    0.5965   59.1648   54.1634 C   0  0  0  0  0  0  0  0  0  0  0  0
   -0.1375   58.8010   55.2702 C   0  0  0  0  0  0  0  0  0  0  0  0
    0.8427   58.2997   53.1190 C   0  0  0  0  0  3  0  0  0  0  0  0
   -0.6411   57.5169   55.3239 C   0  0  0  0  0  3  0  0  0  0  0  0
    0.3152   57.0072   53.2113 C   0  0  0  0  0  3  0  0  0  0  0  0
   -0.4236   56.6144   54.3072 C   0  0  0  0  0  3  0  0  0  0  0  0
   -0.0719   59.0558   57.6628 N   0  0  0  0  0  0  0  0  0  0  0  0
   -0.1496   60.0320   58.7299 C   0  0  0  0  0  2  0  0  0  0  0  0
   -0.9831   57.9509   57.8751 C   0  0  0  0  0  2  0  0  0  0  0  0
   -1.5807   60.3098   59.1359 C   0  0  0  0  0  2  0  0  0  0  0  0
   -1.5108   58.0170   59.2991 C   0  0  0  0  0  2  0  0  0  0  0  0
   -2.2896   59.1575   59.4686 O   0  0  0  0  0  0  0  0  0  0  0  0
  1  9  1  0
  2  1  1  0
  3  5  2  0
  3  4  1  0
  4  6  2  0
  5  7  1  0
  6  2  1  0
  7  2  2  0
  8  3  1  0
  9 11  1  0
 10 12  1  0
 10  9  2  0
 11 13  1  0
 12 19  1  0
 12 14  1  0
 13 15  2  0
 14 16  2  0
 14 13  1  0
 15 17  1  0
 16 18  1  0
 18 17  2  0
 19 21  1  0
 20 19  1  0
 22 20  1  0
 23 21  1  0
 24 22  1  0
 24 23  1  0
M  RAD  8   4   2   5   2   6   2   7   2   8   2  11   2  12   2  15   2
M  RAD  7  16   2  17   2  18   2  20   3  21   3  22   3  23   3
M  END
>  <REMARK>  (1) 
 SMILES Cc1ccc(Nc2nc(N3CCOCC3)c3ccccc3n2)cc1
 SMILES IDX 6 1 5 3 2 4 3 5 24 6 4 7 23 8 1 9 7 10 8 11 22 12 9 13 21 14
 SMILES IDX 16 15 20 16 17 17 19 18 18 19 10 20 11 21 15 22 12 23 14 24
 SMILES IDX 13 25
 H PARENT 6 2

>  <TORSDO>  (1) 
F 3

$$$$
