/home/pchatterjee/Documents/git/vs_workflow/DiffDock/diffdock_run/pdbqt_scrubbed/Z56854611.pdbqt
     RDKit          3D

 24 27  0  0  1  0  0  0  0  0999 V2000
    7.1285   42.2379   48.9504 N   0  0  0  0  0  0  0  0  0  0  0  0
    5.8421   41.6552   48.7730 C   0  0  0  0  0  0  0  0  0  0  0  0
    3.4149   40.5209   48.3640 C   0  0  0  0  0  0  0  0  0  0  0  0
    4.3481   40.4174   47.3696 C   0  0  0  0  0  3  0  0  0  0  0  0
    3.6278   41.1659   49.5644 C   0  0  0  0  0  3  0  0  0  0  0  0
    5.5861   41.0019   47.5909 C   0  0  0  0  0  3  0  0  0  0  0  0
    4.8774   41.7420   49.7580 C   0  0  0  0  0  3  0  0  0  0  0  0
    2.0838   39.9050   48.1530 C   0  0  0  0  0  1  0  0  0  0  0  0
    7.3458   43.3066   49.8913 C   0  0  0  0  0  0  0  0  0  0  0  0
    6.3470   43.6850   50.6111 N   0  0  0  0  0  0  0  0  0  0  0  0
    8.6428   43.8937   49.9849 N   0  0  0  0  0  2  0  0  0  0  0  0
    6.4132   44.7260   51.5799 C   0  0  0  0  0  3  0  0  0  0  0  0
    8.8419   44.9563   50.9265 C   0  0  0  0  0  0  0  0  0  0  0  0
    7.7538   45.3363   51.6800 C   0  0  0  0  0  0  0  0  0  0  0  0
   10.0773   45.5545   51.0528 C   0  0  0  0  0  3  0  0  0  0  0  0
    7.9196   46.3574   52.5940 C   0  0  0  0  0  3  0  0  0  0  0  0
   10.2045   46.5853   51.9900 C   0  0  0  0  0  3  0  0  0  0  0  0
    9.1326   46.9873   52.7586 C   0  0  0  0  0  3  0  0  0  0  0  0
    5.3978   45.7423   51.4004 N   0  0  0  0  0  0  0  0  0  0  0  0
    4.1081   45.1020   51.2445 C   0  0  0  0  0  2  0  0  0  0  0  0
    5.4310   46.6143   52.5556 C   0  0  0  0  0  2  0  0  0  0  0  0
    3.5585   44.6129   52.5670 C   0  0  0  0  0  2  0  0  0  0  0  0
    4.0113   46.8128   53.0613 C   0  0  0  0  0  2  0  0  0  0  0  0
    3.5005   45.6097   53.5385 O   0  0  0  0  0  0  0  0  0  0  0  0
  1  9  1  0
  2  1  1  0
  3  5  2  0
  3  4  1  0
  4  6  2  0
  5  7  1  0
  6  2  1  0
  7  2  2  0
  8  3  1  0
  9 11  1  0
 10 12  1  0
 10  9  2  0
 11 13  1  0
 12 19  1  0
 12 14  1  0
 13 15  2  0
 14 16  2  0
 14 13  1  0
 15 17  1  0
 16 18  1  0
 18 17  2  0
 19 21  1  0
 20 19  1  0
 22 20  1  0
 23 21  1  0
 24 22  1  0
 24 23  1  0
M  RAD  8   4   2   5   2   6   2   7   2   8   2  11   2  12   2  15   2
M  RAD  7  16   2  17   2  18   2  20   3  21   3  22   3  23   3
M  END
>  <REMARK>  (1) 
 SMILES Cc1ccc(Nc2nc(N3CCOCC3)c3ccccc3n2)cc1
 SMILES IDX 6 1 5 3 2 4 3 5 24 6 4 7 23 8 1 9 7 10 8 11 22 12 9 13 21 14
 SMILES IDX 16 15 20 16 17 17 19 18 18 19 10 20 11 21 15 22 12 23 14 24
 SMILES IDX 13 25
 H PARENT 6 2

>  <TORSDO>  (1) 
F 3

$$$$
