/home/pchatterjee/Documents/git/vs_workflow/DiffDock/diffdock_run/pdbqt_scrubbed/Z56854611.pdbqt
     RDKit          3D

 24 27  0  0  1  0  0  0  0  0999 V2000
   13.6630   65.4801   82.4038 N   0  0  0  0  0  0  0  0  0  0  0  0
   12.6843   66.4728   82.1162 C   0  0  0  0  0  0  0  0  0  0  0  0
   10.7647   68.3082   81.5758 C   0  0  0  0  0  0  0  0  0  0  0  0
   10.3725   67.0205   81.8173 C   0  0  0  0  0  3  0  0  0  0  0  0
   12.0760   68.7357   81.5891 C   0  0  0  0  0  3  0  0  0  0  0  0
   11.3640   66.0907   82.0926 C   0  0  0  0  0  3  0  0  0  0  0  0
   13.0476   67.7822   81.8678 C   0  0  0  0  0  3  0  0  0  0  0  0
    9.7251   69.3214   81.2791 C   0  0  0  0  0  1  0  0  0  0  0  0
   13.3089   64.0894   82.5261 C   0  0  0  0  0  0  0  0  0  0  0  0
   12.0571   63.7862   82.5238 N   0  0  0  0  0  0  0  0  0  0  0  0
   14.3475   63.1181   82.6433 N   0  0  0  0  0  2  0  0  0  0  0  0
   11.5599   62.4571   82.6369 C   0  0  0  0  0  3  0  0  0  0  0  0
   13.9776   61.7383   82.7643 C   0  0  0  0  0  0  0  0  0  0  0  0
   12.6314   61.4488   82.7583 C   0  0  0  0  0  0  0  0  0  0  0  0
   14.9457   60.7639   82.8800 C   0  0  0  0  0  3  0  0  0  0  0  0
   12.2493   60.1274   82.8735 C   0  0  0  0  0  3  0  0  0  0  0  0
   14.5178   59.4368   82.9945 C   0  0  0  0  0  3  0  0  0  0  0  0
   13.1766   59.1167   82.9916 C   0  0  0  0  0  3  0  0  0  0  0  0
   10.5822   62.2981   83.6929 N   0  0  0  0  0  0  0  0  0  0  0  0
    9.3362   62.9114   83.2821 C   0  0  0  0  0  2  0  0  0  0  0  0
   10.4279   60.8813   83.9476 C   0  0  0  0  0  2  0  0  0  0  0  0
    8.5848   62.0505   82.2900 C   0  0  0  0  0  2  0  0  0  0  0  0
    8.9450   60.5502   83.9952 C   0  0  0  0  0  2  0  0  0  0  0  0
    8.3691   60.7514   82.7447 O   0  0  0  0  0  0  0  0  0  0  0  0
  1  9  1  0
  2  1  1  0
  3  5  2  0
  3  4  1  0
  4  6  2  0
  5  7  1  0
  6  2  1  0
  7  2  2  0
  8  3  1  0
  9 11  1  0
 10 12  1  0
 10  9  2  0
 11 13  1  0
 12 19  1  0
 12 14  1  0
 13 15  2  0
 14 16  2  0
 14 13  1  0
 15 17  1  0
 16 18  1  0
 18 17  2  0
 19 21  1  0
 20 19  1  0
 22 20  1  0
 23 21  1  0
 24 22  1  0
 24 23  1  0
M  RAD  8   4   2   5   2   6   2   7   2   8   2  11   2  12   2  15   2
M  RAD  7  16   2  17   2  18   2  20   3  21   3  22   3  23   3
M  END
>  <REMARK>  (1) 
 SMILES Cc1ccc(Nc2nc(N3CCOCC3)c3ccccc3n2)cc1
 SMILES IDX 6 1 5 3 2 4 3 5 24 6 4 7 23 8 1 9 7 10 8 11 22 12 9 13 21 14
 SMILES IDX 16 15 20 16 17 17 19 18 18 19 10 20 11 21 15 22 12 23 14 24
 SMILES IDX 13 25
 H PARENT 6 2

>  <TORSDO>  (1) 
F 3

$$$$
