/home/pchatterjee/Documents/git/vs_workflow/DiffDock/diffdock_run/pdbqt_scrubbed/Z56854611.pdbqt
     RDKit          3D

 24 27  0  0  1  0  0  0  0  0999 V2000
    7.0596   42.4824   48.6682 N   0  0  0  0  0  0  0  0  0  0  0  0
    5.7929   41.8478   48.5315 C   0  0  0  0  0  0  0  0  0  0  0  0
    3.3637   40.6605   48.3449 C   0  0  0  0  0  0  0  0  0  0  0  0
    3.6894   41.2754   49.5223 C   0  0  0  0  0  3  0  0  0  0  0  0
    4.1918   40.6044   47.2433 C   0  0  0  0  0  3  0  0  0  0  0  0
    4.9351   41.8793   49.6052 C   0  0  0  0  0  3  0  0  0  0  0  0
    5.4335   41.2180   47.3557 C   0  0  0  0  0  3  0  0  0  0  0  0
    2.0386   40.0076   48.2299 C   0  0  0  0  0  1  0  0  0  0  0  0
    7.2728   43.5346   49.6284 C   0  0  0  0  0  0  0  0  0  0  0  0
    6.2997   43.8335   50.4174 N   0  0  0  0  0  0  0  0  0  0  0  0
    8.5379   44.1933   49.6642 N   0  0  0  0  0  2  0  0  0  0  0  0
    6.3657   44.8485   51.4135 C   0  0  0  0  0  3  0  0  0  0  0  0
    8.7334   45.2384   50.6261 C   0  0  0  0  0  0  0  0  0  0  0  0
    7.6733   45.5327   51.4540 C   0  0  0  0  0  0  0  0  0  0  0  0
    9.9385   45.9035   50.6985 C   0  0  0  0  0  3  0  0  0  0  0  0
    7.8363   46.5351   52.3889 C   0  0  0  0  0  3  0  0  0  0  0  0
   10.0639   46.9129   51.6592 C   0  0  0  0  0  3  0  0  0  0  0  0
    9.0196   47.2296   52.5020 C   0  0  0  0  0  3  0  0  0  0  0  0
    5.2855   45.8086   51.3266 N   0  0  0  0  0  0  0  0  0  0  0  0
    4.0243   45.0994   51.2629 C   0  0  0  0  0  2  0  0  0  0  0  0
    5.3615   46.6709   52.4872 C   0  0  0  0  0  2  0  0  0  0  0  0
    3.6073   44.5692   52.6175 C   0  0  0  0  0  2  0  0  0  0  0  0
    3.9770   46.7862   53.1040 C   0  0  0  0  0  2  0  0  0  0  0  0
    3.5712   45.5526   53.6036 O   0  0  0  0  0  0  0  0  0  0  0  0
  1  9  1  0
  2  1  1  0
  3  5  2  0
  3  4  1  0
  4  6  2  0
  5  7  1  0
  6  2  1  0
  7  2  2  0
  8  3  1  0
  9 11  1  0
 10 12  1  0
 10  9  2  0
 11 13  1  0
 12 19  1  0
 12 14  1  0
 13 15  2  0
 14 16  2  0
 14 13  1  0
 15 17  1  0
 16 18  1  0
 18 17  2  0
 19 21  1  0
 20 19  1  0
 22 20  1  0
 23 21  1  0
 24 22  1  0
 24 23  1  0
M  RAD  8   4   2   5   2   6   2   7   2   8   2  11   2  12   2  15   2
M  RAD  7  16   2  17   2  18   2  20   3  21   3  22   3  23   3
M  END
>  <REMARK>  (1) 
 SMILES Cc1ccc(Nc2nc(N3CCOCC3)c3ccccc3n2)cc1
 SMILES IDX 6 1 5 3 2 4 3 5 24 6 4 7 23 8 1 9 7 10 8 11 22 12 9 13 21 14
 SMILES IDX 16 15 20 16 17 17 19 18 18 19 10 20 11 21 15 22 12 23 14 24
 SMILES IDX 13 25
 H PARENT 6 2

>  <TORSDO>  (1) 
F 3

$$$$
