/home/pchatterjee/Documents/git/vs_workflow/DiffDock/diffdock_run/pdbqt_scrubbed/Z56854611.pdbqt
     RDKit          3D

 24 27  0  0  1  0  0  0  0  0999 V2000
   13.6399   64.5667   83.1882 N   0  0  0  0  0  0  0  0  0  0  0  0
   13.5957   63.9293   84.4601 C   0  0  0  0  0  0  0  0  0  0  0  0
   13.5458   62.6523   86.8502 C   0  0  0  0  0  0  0  0  0  0  0  0
   14.0820   61.9912   85.7797 C   0  0  0  0  0  3  0  0  0  0  0  0
   13.0275   63.9292   86.7937 C   0  0  0  0  0  3  0  0  0  0  0  0
   14.1017   62.6552   84.5623 C   0  0  0  0  0  3  0  0  0  0  0  0
   13.0608   64.5697   85.5610 C   0  0  0  0  0  3  0  0  0  0  0  0
   13.5125   61.9653   88.1625 C   0  0  0  0  0  1  0  0  0  0  0  0
   12.6086   65.4811   82.7701 C   0  0  0  0  0  0  0  0  0  0  0  0
   11.4082   65.2610   83.1816 N   0  0  0  0  0  0  0  0  0  0  0  0
   12.9565   66.5789   81.9277 N   0  0  0  0  0  2  0  0  0  0  0  0
   10.2907   66.0783   82.8500 C   0  0  0  0  0  3  0  0  0  0  0  0
   11.9180   67.4796   81.5207 C   0  0  0  0  0  0  0  0  0  0  0  0
   10.6464   67.2155   81.9783 C   0  0  0  0  0  0  0  0  0  0  0  0
   12.2057   68.5545   80.7073 C   0  0  0  0  0  3  0  0  0  0  0  0
    9.6286   68.0681   81.6006 C   0  0  0  0  0  3  0  0  0  0  0  0
   11.1469   69.3950   80.3468 C   0  0  0  0  0  3  0  0  0  0  0  0
    9.8632   69.1557   80.7897 C   0  0  0  0  0  3  0  0  0  0  0  0
    9.1796   65.3336   82.2958 N   0  0  0  0  0  0  0  0  0  0  0  0
    9.1478   64.0145   82.8928 C   0  0  0  0  0  2  0  0  0  0  0  0
    7.9667   66.0769   82.5647 C   0  0  0  0  0  2  0  0  0  0  0  0
    8.5852   64.0454   84.2973 C   0  0  0  0  0  2  0  0  0  0  0  0
    6.9242   65.1263   83.1306 C   0  0  0  0  0  2  0  0  0  0  0  0
    7.3332   64.6518   84.3730 O   0  0  0  0  0  0  0  0  0  0  0  0
  1  9  1  0
  2  1  1  0
  3  5  2  0
  3  4  1  0
  4  6  2  0
  5  7  1  0
  6  2  1  0
  7  2  2  0
  8  3  1  0
  9 11  1  0
 10 12  1  0
 10  9  2  0
 11 13  1  0
 12 19  1  0
 12 14  1  0
 13 15  2  0
 14 16  2  0
 14 13  1  0
 15 17  1  0
 16 18  1  0
 18 17  2  0
 19 21  1  0
 20 19  1  0
 22 20  1  0
 23 21  1  0
 24 22  1  0
 24 23  1  0
M  RAD  8   4   2   5   2   6   2   7   2   8   2  11   2  12   2  15   2
M  RAD  7  16   2  17   2  18   2  20   3  21   3  22   3  23   3
M  END
>  <REMARK>  (1) 
 SMILES Cc1ccc(Nc2nc(N3CCOCC3)c3ccccc3n2)cc1
 SMILES IDX 6 1 5 3 2 4 3 5 24 6 4 7 23 8 1 9 7 10 8 11 22 12 9 13 21 14
 SMILES IDX 16 15 20 16 17 17 19 18 18 19 10 20 11 21 15 22 12 23 14 24
 SMILES IDX 13 25
 H PARENT 6 2

>  <TORSDO>  (1) 
F 3

$$$$
