/home/pchatterjee/Documents/git/vs_workflow/DiffDock/diffdock_run/pdbqt_scrubbed/Z56854611.pdbqt
     RDKit          3D

 24 27  0  0  1  0  0  0  0  0999 V2000
    6.9939   42.4543   48.6106 N   0  0  0  0  0  0  0  0  0  0  0  0
    5.6916   41.8994   48.4628 C   0  0  0  0  0  0  0  0  0  0  0  0
    3.1972   40.8594   48.2568 C   0  0  0  0  0  0  0  0  0  0  0  0
    3.5843   41.3655   49.4669 C   0  0  0  0  0  3  0  0  0  0  0  0
    3.9944   40.8432   47.1313 C   0  0  0  0  0  3  0  0  0  0  0  0
    4.8628   41.8948   49.5595 C   0  0  0  0  0  3  0  0  0  0  0  0
    5.2701   41.3802   47.2541 C   0  0  0  0  0  3  0  0  0  0  0  0
    1.8360   40.2878   48.1308 C   0  0  0  0  0  1  0  0  0  0  0  0
    7.2849   43.4256   49.6335 C   0  0  0  0  0  0  0  0  0  0  0  0
    6.3302   43.7637   50.4293 N   0  0  0  0  0  0  0  0  0  0  0  0
    8.6026   43.9656   49.7208 N   0  0  0  0  0  2  0  0  0  0  0  0
    6.4707   44.7091   51.4843 C   0  0  0  0  0  3  0  0  0  0  0  0
    8.8753   44.9314   50.7448 C   0  0  0  0  0  0  0  0  0  0  0  0
    7.8329   45.2704   51.5782 C   0  0  0  0  0  0  0  0  0  0  0  0
   10.1333   45.4811   50.8684 C   0  0  0  0  0  3  0  0  0  0  0  0
    8.0698   46.1983   52.5724 C   0  0  0  0  0  3  0  0  0  0  0  0
   10.3329   46.4176   51.8884 C   0  0  0  0  0  3  0  0  0  0  0  0
    9.3081   46.7767   52.7381 C   0  0  0  0  0  3  0  0  0  0  0  0
    5.4811   45.7652   51.4439 N   0  0  0  0  0  0  0  0  0  0  0  0
    4.1601   45.1752   51.3767 C   0  0  0  0  0  2  0  0  0  0  0  0
    5.6489   46.5787   52.6297 C   0  0  0  0  0  2  0  0  0  0  0  0
    3.7130   44.6407   52.7199 C   0  0  0  0  0  2  0  0  0  0  0  0
    4.2881   46.7982   53.2705 C   0  0  0  0  0  2  0  0  0  0  0  0
    3.7781   45.5906   53.7370 O   0  0  0  0  0  0  0  0  0  0  0  0
  1  9  1  0
  2  1  1  0
  3  5  2  0
  3  4  1  0
  4  6  2  0
  5  7  1  0
  6  2  1  0
  7  2  2  0
  8  3  1  0
  9 11  1  0
 10 12  1  0
 10  9  2  0
 11 13  1  0
 12 19  1  0
 12 14  1  0
 13 15  2  0
 14 16  2  0
 14 13  1  0
 15 17  1  0
 16 18  1  0
 18 17  2  0
 19 21  1  0
 20 19  1  0
 22 20  1  0
 23 21  1  0
 24 22  1  0
 24 23  1  0
M  RAD  8   4   2   5   2   6   2   7   2   8   2  11   2  12   2  15   2
M  RAD  7  16   2  17   2  18   2  20   3  21   3  22   3  23   3
M  END
>  <REMARK>  (1) 
 SMILES Cc1ccc(Nc2nc(N3CCOCC3)c3ccccc3n2)cc1
 SMILES IDX 6 1 5 3 2 4 3 5 24 6 4 7 23 8 1 9 7 10 8 11 22 12 9 13 21 14
 SMILES IDX 16 15 20 16 17 17 19 18 18 19 10 20 11 21 15 22 12 23 14 24
 SMILES IDX 13 25
 H PARENT 6 2

>  <TORSDO>  (1) 
F 3

$$$$
