/home/pchatterjee/Documents/git/vs_workflow/DiffDock/diffdock_run/pdbqt_scrubbed/Z321281298.pdbqt
     RDKit          3D

 24 27  0  0  1  0  0  0  0  0999 V2000
    4.6836   42.1834   49.5842 C   0  0  0  0  0  0  0  0  0  0  0  0
    4.2457   41.2610   48.6610 C   0  0  0  0  0  3  0  0  0  0  0  0
    2.9637   40.7675   48.7551 C   0  0  0  0  0  3  0  0  0  0  0  0
    2.1288   41.1963   49.7673 C   0  0  0  0  0  3  0  0  0  0  0  0
    2.5836   42.1195   50.6820 C   0  0  0  0  0  0  0  0  0  0  0  0
    3.8698   42.6327   50.6104 C   0  0  0  0  0  3  0  0  0  0  0  0
    6.0292   42.6522   49.4231 N   0  0  0  0  0  0  0  0  0  0  0  0
    6.4692   43.7883   50.1656 C   0  0  0  0  0  0  0  0  0  0  0  0
    9.4967   45.3849   50.7812 N   0  0  0  0  0  0  0  0  0  0  0  0
    9.9516   44.4153   50.0000 N   0  0  0  0  0  0  0  0  0  0  0  0
    8.1505   45.2627   50.9319 C   0  0  0  0  0  0  0  0  0  0  0  0
    8.9365   43.6431   49.6224 C   0  0  0  0  0  3  0  0  0  0  0  0
    7.2586   46.0025   51.6248 N   0  0  0  0  0  0  0  0  0  0  0  0
    7.7943   44.1542   50.1945 C   0  0  0  0  0  0  0  0  0  0  0  0
    5.9732   45.6093   51.5691 C   0  0  0  0  0  3  0  0  0  0  0  0
    5.5834   44.5338   50.8615 N   0  0  0  0  0  0  0  0  0  0  0  0
   10.2668   46.4264   51.3966 C   0  0  0  0  0  1  0  0  0  0  0  0
    1.6831   42.5063   51.6775 O   0  0  0  0  0  0  0  0  0  0  0  0
    0.5919   43.3287   51.3125 C   0  0  0  0  0  2  0  0  0  0  0  0
    0.6632   44.5397   52.2475 C   0  0  0  0  0  3  0  0  0  0  0  0
   -0.6492   44.7653   52.9207 C   0  0  0  0  0  2  0  0  0  0  0  0
    1.6354   44.3294   53.1997 O   0  0  0  0  0  0  0  0  0  0  0  0
   -0.2885   44.6032   54.3863 C   0  0  0  0  0  2  0  0  0  0  0  0
    1.0176   43.8296   54.3383 C   0  0  0  0  0  2  0  0  0  0  0  0
  1  7  1  0
  1  6  1  0
  2  1  2  0
  3  2  1  0
  3  4  2  0
  4  5  1  0
  5  6  2  0
  5 18  1  0
  7  8  1  0
  8 16  1  0
  8 14  2  0
  9 17  1  0
 10  9  1  0
 11 13  2  0
 11  9  1  0
 12 10  2  0
 14 12  1  0
 14 11  1  0
 15 13  1  0
 16 15  2  0
 19 18  1  0
 20 19  1  0
 20 22  1  0
 20 21  1  0
 21 23  1  0
 22 24  1  0
 24 23  1  0
M  RAD  8   2   2   3   2   4   2   6   2  12   2  15   2  17   2  19   3
M  RAD  4  20   2  21   3  23   3  24   3
M  END
>  <REMARK>  (1) 
 SMILES Cn1ncc2c(Nc3cccc(OCC4CCCO4)c3)ncnc21
 SMILES IDX 8 1 9 2 10 3 11 4 12 5 20 6 7 7 6 9 2 10 3 11 24 12 4 13
 SMILES IDX 23 14 5 15 22 16 21 17 1 18 13 19 14 20 15 21 16 22 19 23
 SMILES IDX 17 24 18 25
 H PARENT 7 8

>  <TORSDO>  (1) 
F 5

$$$$
