/home/pchatterjee/Documents/git/vs_workflow/DiffDock/diffdock_run/pdbqt_scrubbed/Z321281298.pdbqt
     RDKit          3D

 24 27  0  0  1  0  0  0  0  0999 V2000
    4.9794   42.1277   49.3805 C   0  0  0  0  0  0  0  0  0  0  0  0
    4.6008   41.1324   48.5083 C   0  0  0  0  0  3  0  0  0  0  0  0
    3.3030   40.6728   48.5302 C   0  0  0  0  0  3  0  0  0  0  0  0
    2.3934   41.2080   49.4200 C   0  0  0  0  0  3  0  0  0  0  0  0
    2.7897   42.2031   50.2853 C   0  0  0  0  0  0  0  0  0  0  0  0
    4.0903   42.6842   50.2843 C   0  0  0  0  0  3  0  0  0  0  0  0
    6.3458   42.5554   49.3001 N   0  0  0  0  0  0  0  0  0  0  0  0
    6.7997   43.6140   50.1420 C   0  0  0  0  0  0  0  0  0  0  0  0
    9.7693   45.3568   50.6297 N   0  0  0  0  0  0  0  0  0  0  0  0
   10.1859   44.5411   49.6713 N   0  0  0  0  0  0  0  0  0  0  0  0
    8.4632   45.1054   50.9141 C   0  0  0  0  0  0  0  0  0  0  0  0
    9.1844   43.7457   49.3057 C   0  0  0  0  0  3  0  0  0  0  0  0
    7.6181   45.6702   51.8027 N   0  0  0  0  0  0  0  0  0  0  0  0
    8.0912   44.0802   50.0715 C   0  0  0  0  0  0  0  0  0  0  0  0
    6.3641   45.1838   51.8385 C   0  0  0  0  0  3  0  0  0  0  0  0
    5.9605   44.1845   51.0337 N   0  0  0  0  0  0  0  0  0  0  0  0
   10.5403   46.3660   51.2956 C   0  0  0  0  0  1  0  0  0  0  0  0
    1.8152   42.6960   51.1565 O   0  0  0  0  0  0  0  0  0  0  0  0
    0.9709   43.7348   50.7001 C   0  0  0  0  0  2  0  0  0  0  0  0
    0.0206   44.0292   51.8646 C   0  0  0  0  0  3  0  0  0  0  0  0
    0.5131   43.3943   53.1219 C   0  0  0  0  0  2  0  0  0  0  0  0
   -0.0759   45.3907   52.0471 O   0  0  0  0  0  0  0  0  0  0  0  0
    0.7281   44.5963   54.0238 C   0  0  0  0  0  2  0  0  0  0  0  0
    0.8205   45.7529   53.0438 C   0  0  0  0  0  2  0  0  0  0  0  0
  1  7  1  0
  1  6  1  0
  2  1  2  0
  3  2  1  0
  3  4  2  0
  4  5  1  0
  5  6  2  0
  5 18  1  0
  7  8  1  0
  8 16  1  0
  8 14  2  0
  9 17  1  0
 10  9  1  0
 11 13  2  0
 11  9  1  0
 12 10  2  0
 14 12  1  0
 14 11  1  0
 15 13  1  0
 16 15  2  0
 19 18  1  0
 20 19  1  0
 20 22  1  0
 20 21  1  0
 21 23  1  0
 22 24  1  0
 24 23  1  0
M  RAD  8   2   2   3   2   4   2   6   2  12   2  15   2  17   2  19   3
M  RAD  4  20   2  21   3  23   3  24   3
M  END
>  <REMARK>  (1) 
 SMILES Cn1ncc2c(Nc3cccc(OCC4CCCO4)c3)ncnc21
 SMILES IDX 8 1 9 2 10 3 11 4 12 5 20 6 7 7 6 9 2 10 3 11 24 12 4 13
 SMILES IDX 23 14 5 15 22 16 21 17 1 18 13 19 14 20 15 21 16 22 19 23
 SMILES IDX 17 24 18 25
 H PARENT 7 8

>  <TORSDO>  (1) 
F 5

$$$$
