/home/pchatterjee/Documents/git/vs_workflow/DiffDock/diffdock_run/pdbqt_scrubbed/Z321281298.pdbqt
     RDKit          3D

 24 27  0  0  1  0  0  0  0  0999 V2000
    4.6749   41.9591   49.5804 C   0  0  0  0  0  0  0  0  0  0  0  0
    4.2016   41.1472   48.5746 C   0  0  0  0  0  3  0  0  0  0  0  0
    2.9178   40.6554   48.6513 C   0  0  0  0  0  3  0  0  0  0  0  0
    2.1163   40.9761   49.7284 C   0  0  0  0  0  3  0  0  0  0  0  0
    2.6062   41.7897   50.7254 C   0  0  0  0  0  0  0  0  0  0  0  0
    3.8951   42.2984   50.6730 C   0  0  0  0  0  3  0  0  0  0  0  0
    6.0201   42.4333   49.4325 N   0  0  0  0  0  0  0  0  0  0  0  0
    6.4292   43.6097   50.1285 C   0  0  0  0  0  0  0  0  0  0  0  0
    9.4179   45.2904   50.7085 N   0  0  0  0  0  0  0  0  0  0  0  0
    9.9011   44.2958   49.9773 N   0  0  0  0  0  0  0  0  0  0  0  0
    8.0724   45.1490   50.8483 C   0  0  0  0  0  0  0  0  0  0  0  0
    8.9056   43.4880   49.6225 C   0  0  0  0  0  3  0  0  0  0  0  0
    7.1579   45.9018   51.4963 N   0  0  0  0  0  0  0  0  0  0  0  0
    7.7466   44.0020   50.1571 C   0  0  0  0  0  0  0  0  0  0  0  0
    5.8808   45.4817   51.4426 C   0  0  0  0  0  3  0  0  0  0  0  0
    5.5206   44.3684   50.7794 N   0  0  0  0  0  0  0  0  0  0  0  0
   10.1603   46.3729   51.2859 C   0  0  0  0  0  1  0  0  0  0  0  0
    1.7382   42.0707   51.7832 O   0  0  0  0  0  0  0  0  0  0  0  0
    0.8387   43.1533   51.6435 C   0  0  0  0  0  2  0  0  0  0  0  0
    0.9804   43.9700   52.9314 C   0  0  0  0  0  3  0  0  0  0  0  0
    0.1339   45.1974   52.8743 C   0  0  0  0  0  2  0  0  0  0  0  0
    0.5992   43.2013   54.0083 O   0  0  0  0  0  0  0  0  0  0  0  0
   -0.8120   44.9878   54.0429 C   0  0  0  0  0  2  0  0  0  0  0  0
   -0.7285   43.4921   54.2925 C   0  0  0  0  0  2  0  0  0  0  0  0
  1  7  1  0
  1  6  1  0
  2  1  2  0
  3  2  1  0
  3  4  2  0
  4  5  1  0
  5  6  2  0
  5 18  1  0
  7  8  1  0
  8 16  1  0
  8 14  2  0
  9 17  1  0
 10  9  1  0
 11 13  2  0
 11  9  1  0
 12 10  2  0
 14 12  1  0
 14 11  1  0
 15 13  1  0
 16 15  2  0
 19 18  1  0
 20 19  1  0
 20 22  1  0
 20 21  1  0
 21 23  1  0
 22 24  1  0
 24 23  1  0
M  RAD  8   2   2   3   2   4   2   6   2  12   2  15   2  17   2  19   3
M  RAD  4  20   2  21   3  23   3  24   3
M  END
>  <REMARK>  (1) 
 SMILES Cn1ncc2c(Nc3cccc(OCC4CCCO4)c3)ncnc21
 SMILES IDX 8 1 9 2 10 3 11 4 12 5 20 6 7 7 6 9 2 10 3 11 24 12 4 13
 SMILES IDX 23 14 5 15 22 16 21 17 1 18 13 19 14 20 15 21 16 22 19 23
 SMILES IDX 17 24 18 25
 H PARENT 7 8

>  <TORSDO>  (1) 
F 5

$$$$
