/home/pchatterjee/Documents/git/vs_workflow/DiffDock/diffdock_run/pdbqt_scrubbed/Z321281298.pdbqt
     RDKit          3D

 24 27  0  0  1  0  0  0  0  0999 V2000
    4.8491   41.9886   49.4079 C   0  0  0  0  0  0  0  0  0  0  0  0
    4.5913   40.7817   48.7981 C   0  0  0  0  0  3  0  0  0  0  0  0
    3.3173   40.2612   48.8422 C   0  0  0  0  0  3  0  0  0  0  0  0
    2.3110   40.9465   49.4928 C   0  0  0  0  0  3  0  0  0  0  0  0
    2.5869   42.1525   50.0973 C   0  0  0  0  0  0  0  0  0  0  0  0
    3.8609   42.6993   50.0679 C   0  0  0  0  0  3  0  0  0  0  0  0
    6.1978   42.4678   49.3209 N   0  0  0  0  0  0  0  0  0  0  0  0
    6.6207   43.5302   50.1742 C   0  0  0  0  0  0  0  0  0  0  0  0
    9.5022   45.4289   50.6050 N   0  0  0  0  0  0  0  0  0  0  0  0
    9.9298   44.6621   49.6118 N   0  0  0  0  0  0  0  0  0  0  0  0
    8.2235   45.0959   50.9275 C   0  0  0  0  0  0  0  0  0  0  0  0
    8.9626   43.8193   49.2601 C   0  0  0  0  0  3  0  0  0  0  0  0
    7.3800   45.5893   51.8591 N   0  0  0  0  0  0  0  0  0  0  0  0
    7.8804   44.0716   50.0716 C   0  0  0  0  0  0  0  0  0  0  0  0
    6.1578   45.0308   51.9251 C   0  0  0  0  0  3  0  0  0  0  0  0
    5.7830   44.0296   51.1088 N   0  0  0  0  0  0  0  0  0  0  0  0
   10.2380   46.4646   51.2702 C   0  0  0  0  0  1  0  0  0  0  0  0
    1.5195   42.7881   50.7361 O   0  0  0  0  0  0  0  0  0  0  0  0
    1.3934   42.6426   52.1373 C   0  0  0  0  0  2  0  0  0  0  0  0
    0.0364   43.2586   52.4908 C   0  0  0  0  0  3  0  0  0  0  0  0
   -0.1582   43.2945   53.9697 C   0  0  0  0  0  2  0  0  0  0  0  0
   -0.0325   44.5391   51.9892 O   0  0  0  0  0  0  0  0  0  0  0  0
   -0.2972   44.7822   54.2376 C   0  0  0  0  0  2  0  0  0  0  0  0
    0.3240   45.4159   53.0051 C   0  0  0  0  0  2  0  0  0  0  0  0
  1  7  1  0
  1  6  1  0
  2  1  2  0
  3  2  1  0
  3  4  2  0
  4  5  1  0
  5  6  2  0
  5 18  1  0
  7  8  1  0
  8 16  1  0
  8 14  2  0
  9 17  1  0
 10  9  1  0
 11 13  2  0
 11  9  1  0
 12 10  2  0
 14 12  1  0
 14 11  1  0
 15 13  1  0
 16 15  2  0
 19 18  1  0
 20 19  1  0
 20 22  1  0
 20 21  1  0
 21 23  1  0
 22 24  1  0
 24 23  1  0
M  RAD  8   2   2   3   2   4   2   6   2  12   2  15   2  17   2  19   3
M  RAD  4  20   2  21   3  23   3  24   3
M  END
>  <REMARK>  (1) 
 SMILES Cn1ncc2c(Nc3cccc(OCC4CCCO4)c3)ncnc21
 SMILES IDX 8 1 9 2 10 3 11 4 12 5 20 6 7 7 6 9 2 10 3 11 24 12 4 13
 SMILES IDX 23 14 5 15 22 16 21 17 1 18 13 19 14 20 15 21 16 22 19 23
 SMILES IDX 17 24 18 25
 H PARENT 7 8

>  <TORSDO>  (1) 
F 5

$$$$
