/home/pchatterjee/Documents/git/vs_workflow/DiffDock/diffdock_run/pdbqt_scrubbed/Z321281298.pdbqt
     RDKit          3D

 24 27  0  0  1  0  0  0  0  0999 V2000
    4.9252   41.8356   49.6444 C   0  0  0  0  0  0  0  0  0  0  0  0
    4.6233   40.8310   48.7531 C   0  0  0  0  0  3  0  0  0  0  0  0
    3.3568   40.2908   48.7479 C   0  0  0  0  0  3  0  0  0  0  0  0
    2.4019   40.7551   49.6300 C   0  0  0  0  0  3  0  0  0  0  0  0
    2.7215   41.7606   50.5147 C   0  0  0  0  0  0  0  0  0  0  0  0
    3.9891   42.3222   50.5411 C   0  0  0  0  0  3  0  0  0  0  0  0
    6.2631   42.3492   49.5917 N   0  0  0  0  0  0  0  0  0  0  0  0
    6.5855   43.5398   50.3087 C   0  0  0  0  0  0  0  0  0  0  0  0
    9.4217   45.4830   50.8317 N   0  0  0  0  0  0  0  0  0  0  0  0
    9.9681   44.5599   50.0528 N   0  0  0  0  0  0  0  0  0  0  0  0
    8.1022   45.2094   51.0158 C   0  0  0  0  0  0  0  0  0  0  0  0
    9.0407   43.6703   49.7095 C   0  0  0  0  0  3  0  0  0  0  0  0
    7.1464   45.8528   51.7197 N   0  0  0  0  0  0  0  0  0  0  0  0
    7.8599   44.0559   50.3016 C   0  0  0  0  0  0  0  0  0  0  0  0
    5.9139   45.3137   51.6994 C   0  0  0  0  0  3  0  0  0  0  0  0
    5.6352   44.1896   51.0154 N   0  0  0  0  0  0  0  0  0  0  0  0
   10.0801   46.6156   51.4152 C   0  0  0  0  0  1  0  0  0  0  0  0
    1.7048   42.1789   51.3766 O   0  0  0  0  0  0  0  0  0  0  0  0
    0.8752   43.2484   50.9663 C   0  0  0  0  0  2  0  0  0  0  0  0
    0.0776   43.6467   52.2117 C   0  0  0  0  0  3  0  0  0  0  0  0
    0.7542   43.1617   53.4499 C   0  0  0  0  0  2  0  0  0  0  0  0
   -0.0418   45.0176   52.2628 O   0  0  0  0  0  0  0  0  0  0  0  0
    1.0442   44.4582   54.1843 C   0  0  0  0  0  2  0  0  0  0  0  0
    0.9652   45.5040   53.0858 C   0  0  0  0  0  2  0  0  0  0  0  0
  1  7  1  0
  1  6  1  0
  2  1  2  0
  3  2  1  0
  3  4  2  0
  4  5  1  0
  5  6  2  0
  5 18  1  0
  7  8  1  0
  8 16  1  0
  8 14  2  0
  9 17  1  0
 10  9  1  0
 11 13  2  0
 11  9  1  0
 12 10  2  0
 14 12  1  0
 14 11  1  0
 15 13  1  0
 16 15  2  0
 19 18  1  0
 20 19  1  0
 20 22  1  0
 20 21  1  0
 21 23  1  0
 22 24  1  0
 24 23  1  0
M  RAD  8   2   2   3   2   4   2   6   2  12   2  15   2  17   2  19   3
M  RAD  4  20   2  21   3  23   3  24   3
M  END
>  <REMARK>  (1) 
 SMILES Cn1ncc2c(Nc3cccc(OCC4CCCO4)c3)ncnc21
 SMILES IDX 8 1 9 2 10 3 11 4 12 5 20 6 7 7 6 9 2 10 3 11 24 12 4 13
 SMILES IDX 23 14 5 15 22 16 21 17 1 18 13 19 14 20 15 21 16 22 19 23
 SMILES IDX 17 24 18 25
 H PARENT 7 8

>  <TORSDO>  (1) 
F 5

$$$$
