/home/pchatterjee/Documents/git/vs_workflow/DiffDock/diffdock_run/pdbqt_scrubbed/Z321281298.pdbqt
     RDKit          3D

 24 27  0  0  1  0  0  0  0  0999 V2000
    8.3477   47.1364   53.0521 C   0  0  0  0  0  0  0  0  0  0  0  0
    9.2136   48.0512   53.6070 C   0  0  0  0  0  3  0  0  0  0  0  0
    8.7612   48.8961   54.5957 C   0  0  0  0  0  3  0  0  0  0  0  0
    7.4508   48.8229   55.0234 C   0  0  0  0  0  3  0  0  0  0  0  0
    6.5985   47.9016   54.4571 C   0  0  0  0  0  0  0  0  0  0  0  0
    7.0281   47.0390   53.4600 C   0  0  0  0  0  3  0  0  0  0  0  0
    8.8891   46.2905   52.0286 N   0  0  0  0  0  0  0  0  0  0  0  0
    8.0089   45.4838   51.2475 C   0  0  0  0  0  0  0  0  0  0  0  0
    8.3249   43.1457   48.6926 N   0  0  0  0  0  0  0  0  0  0  0  0
    9.6117   43.4190   48.8568 N   0  0  0  0  0  0  0  0  0  0  0  0
    7.5822   43.8819   49.5624 C   0  0  0  0  0  0  0  0  0  0  0  0
    9.7484   44.3252   49.8209 C   0  0  0  0  0  3  0  0  0  0  0  0
    6.2491   43.9457   49.7666 N   0  0  0  0  0  0  0  0  0  0  0  0
    8.4883   44.6324   50.2802 C   0  0  0  0  0  0  0  0  0  0  0  0
    5.8232   44.7914   50.7224 C   0  0  0  0  0  3  0  0  0  0  0  0
    6.6739   45.5416   51.4455 N   0  0  0  0  0  0  0  0  0  0  0  0
    7.7544   42.2229   47.7549 C   0  0  0  0  0  1  0  0  0  0  0  0
    5.2878   47.8858   54.9403 O   0  0  0  0  0  0  0  0  0  0  0  0
    4.7419   46.6499   55.3586 C   0  0  0  0  0  2  0  0  0  0  0  0
    3.2303   46.8805   55.4461 C   0  0  0  0  0  3  0  0  0  0  0  0
    2.7407   47.6323   54.2539 C   0  0  0  0  0  2  0  0  0  0  0  0
    2.5831   45.6672   55.5192 O   0  0  0  0  0  0  0  0  0  0  0  0
    1.7615   46.6501   53.6367 C   0  0  0  0  0  2  0  0  0  0  0  0
    2.1810   45.3194   54.2365 C   0  0  0  0  0  2  0  0  0  0  0  0
  1  7  1  0
  1  6  1  0
  2  1  2  0
  3  2  1  0
  3  4  2  0
  4  5  1  0
  5  6  2  0
  5 18  1  0
  7  8  1  0
  8 16  1  0
  8 14  2  0
  9 17  1  0
 10  9  1  0
 11 13  2  0
 11  9  1  0
 12 10  2  0
 14 12  1  0
 14 11  1  0
 15 13  1  0
 16 15  2  0
 19 18  1  0
 20 19  1  0
 20 22  1  0
 20 21  1  0
 21 23  1  0
 22 24  1  0
 24 23  1  0
M  RAD  8   2   2   3   2   4   2   6   2  12   2  15   2  17   2  19   3
M  RAD  4  20   2  21   3  23   3  24   3
M  END
>  <REMARK>  (1) 
 SMILES Cn1ncc2c(Nc3cccc(OCC4CCCO4)c3)ncnc21
 SMILES IDX 8 1 9 2 10 3 11 4 12 5 20 6 7 7 6 9 2 10 3 11 24 12 4 13
 SMILES IDX 23 14 5 15 22 16 21 17 1 18 13 19 14 20 15 21 16 22 19 23
 SMILES IDX 17 24 18 25
 H PARENT 7 8

>  <TORSDO>  (1) 
F 5

$$$$
