/home/pchatterjee/Documents/git/vs_workflow/DiffDock/diffdock_run/pdbqt_scrubbed/Z321281298.pdbqt
     RDKit          3D

 24 27  0  0  1  0  0  0  0  0999 V2000
    8.4530   47.1716   53.0536 C   0  0  0  0  0  0  0  0  0  0  0  0
    9.4236   47.8641   53.7416 C   0  0  0  0  0  3  0  0  0  0  0  0
    9.0535   48.7134   54.7602 C   0  0  0  0  0  3  0  0  0  0  0  0
    7.7206   48.8660   55.0852 C   0  0  0  0  0  3  0  0  0  0  0  0
    6.7632   48.1654   54.3864 C   0  0  0  0  0  0  0  0  0  0  0  0
    7.1083   47.3037   53.3563 C   0  0  0  0  0  3  0  0  0  0  0  0
    8.9130   46.3064   52.0066 N   0  0  0  0  0  0  0  0  0  0  0  0
    7.9683   45.5233   51.2786 C   0  0  0  0  0  0  0  0  0  0  0  0
    8.0692   43.2226   48.6729 N   0  0  0  0  0  0  0  0  0  0  0  0
    9.3680   43.4770   48.7486 N   0  0  0  0  0  0  0  0  0  0  0  0
    7.4006   43.9540   49.6046 C   0  0  0  0  0  0  0  0  0  0  0  0
    9.5856   44.3660   49.7138 C   0  0  0  0  0  3  0  0  0  0  0  0
    6.0865   44.0312   49.9046 N   0  0  0  0  0  0  0  0  0  0  0  0
    8.3657   44.6815   50.2668 C   0  0  0  0  0  0  0  0  0  0  0  0
    5.7415   44.8668   50.9011 C   0  0  0  0  0  3  0  0  0  0  0  0
    6.6518   45.5947   51.5726 N   0  0  0  0  0  0  0  0  0  0  0  0
    7.4207   42.3220   47.7647 C   0  0  0  0  0  1  0  0  0  0  0  0
    5.4360   48.3705   54.7712 O   0  0  0  0  0  0  0  0  0  0  0  0
    4.7561   47.3161   55.4240 C   0  0  0  0  0  2  0  0  0  0  0  0
    4.2086   46.4279   54.3027 C   0  0  0  0  0  3  0  0  0  0  0  0
    3.2351   45.4347   54.8432 C   0  0  0  0  0  2  0  0  0  0  0  0
    3.5852   47.2117   53.3576 O   0  0  0  0  0  0  0  0  0  0  0  0
    1.9607   45.8019   54.1047 C   0  0  0  0  0  2  0  0  0  0  0  0
    2.2260   47.2236   53.6413 C   0  0  0  0  0  2  0  0  0  0  0  0
  1  7  1  0
  1  6  1  0
  2  1  2  0
  3  2  1  0
  3  4  2  0
  4  5  1  0
  5  6  2  0
  5 18  1  0
  7  8  1  0
  8 16  1  0
  8 14  2  0
  9 17  1  0
 10  9  1  0
 11 13  2  0
 11  9  1  0
 12 10  2  0
 14 12  1  0
 14 11  1  0
 15 13  1  0
 16 15  2  0
 19 18  1  0
 20 19  1  0
 20 22  1  0
 20 21  1  0
 21 23  1  0
 22 24  1  0
 24 23  1  0
M  RAD  8   2   2   3   2   4   2   6   2  12   2  15   2  17   2  19   3
M  RAD  4  20   2  21   3  23   3  24   3
M  END
>  <REMARK>  (1) 
 SMILES Cn1ncc2c(Nc3cccc(OCC4CCCO4)c3)ncnc21
 SMILES IDX 8 1 9 2 10 3 11 4 12 5 20 6 7 7 6 9 2 10 3 11 24 12 4 13
 SMILES IDX 23 14 5 15 22 16 21 17 1 18 13 19 14 20 15 21 16 22 19 23
 SMILES IDX 17 24 18 25
 H PARENT 7 8

>  <TORSDO>  (1) 
F 5

$$$$
