/home/pchatterjee/Documents/git/vs_workflow/DiffDock/diffdock_run/pdbqt_scrubbed/Z321281298.pdbqt
     RDKit          3D

 24 27  0  0  1  0  0  0  0  0999 V2000
    4.8503   41.9626   49.5265 C   0  0  0  0  0  0  0  0  0  0  0  0
    4.6605   40.6901   49.0370 C   0  0  0  0  0  3  0  0  0  0  0  0
    3.4141   40.1115   49.1250 C   0  0  0  0  0  3  0  0  0  0  0  0
    2.3676   40.8044   49.6994 C   0  0  0  0  0  3  0  0  0  0  0  0
    2.5756   42.0765   50.1839 C   0  0  0  0  0  0  0  0  0  0  0  0
    3.8204   42.6826   50.1080 C   0  0  0  0  0  3  0  0  0  0  0  0
    6.1738   42.4998   49.4002 N   0  0  0  0  0  0  0  0  0  0  0  0
    6.5646   43.6006   50.2194 C   0  0  0  0  0  0  0  0  0  0  0  0
    9.4203   45.5372   50.6534 N   0  0  0  0  0  0  0  0  0  0  0  0
    9.8820   44.7319   49.7070 N   0  0  0  0  0  0  0  0  0  0  0  0
    8.1346   45.2087   50.9520 C   0  0  0  0  0  0  0  0  0  0  0  0
    8.9309   43.8679   49.3633 C   0  0  0  0  0  3  0  0  0  0  0  0
    7.2608   45.7352   51.8364 N   0  0  0  0  0  0  0  0  0  0  0  0
    7.8234   44.1465   50.1309 C   0  0  0  0  0  0  0  0  0  0  0  0
    6.0406   45.1709   51.8902 C   0  0  0  0  0  3  0  0  0  0  0  0
    5.6964   44.1332   51.1067 N   0  0  0  0  0  0  0  0  0  0  0  0
   10.1296   46.6056   51.2952 C   0  0  0  0  0  1  0  0  0  0  0  0
    1.4706   42.7157   50.7511 O   0  0  0  0  0  0  0  0  0  0  0  0
    1.2051   42.5044   52.1242 C   0  0  0  0  0  2  0  0  0  0  0  0
   -0.0686   43.3017   52.4207 C   0  0  0  0  0  3  0  0  0  0  0  0
   -0.4184   43.2191   53.8689 C   0  0  0  0  0  2  0  0  0  0  0  0
    0.1215   44.6198   52.0706 O   0  0  0  0  0  0  0  0  0  0  0  0
   -0.3499   44.6737   54.2976 C   0  0  0  0  0  2  0  0  0  0  0  0
    0.4967   45.3155   53.2123 C   0  0  0  0  0  2  0  0  0  0  0  0
  1  7  1  0
  1  6  1  0
  2  1  2  0
  3  2  1  0
  3  4  2  0
  4  5  1  0
  5  6  2  0
  5 18  1  0
  7  8  1  0
  8 16  1  0
  8 14  2  0
  9 17  1  0
 10  9  1  0
 11 13  2  0
 11  9  1  0
 12 10  2  0
 14 12  1  0
 14 11  1  0
 15 13  1  0
 16 15  2  0
 19 18  1  0
 20 19  1  0
 20 22  1  0
 20 21  1  0
 21 23  1  0
 22 24  1  0
 24 23  1  0
M  RAD  8   2   2   3   2   4   2   6   2  12   2  15   2  17   2  19   3
M  RAD  4  20   2  21   3  23   3  24   3
M  END
>  <REMARK>  (1) 
 SMILES Cn1ncc2c(Nc3cccc(OCC4CCCO4)c3)ncnc21
 SMILES IDX 8 1 9 2 10 3 11 4 12 5 20 6 7 7 6 9 2 10 3 11 24 12 4 13
 SMILES IDX 23 14 5 15 22 16 21 17 1 18 13 19 14 20 15 21 16 22 19 23
 SMILES IDX 17 24 18 25
 H PARENT 7 8

>  <TORSDO>  (1) 
F 5

$$$$
