/home/pchatterjee/Documents/git/vs_workflow/DiffDock/diffdock_run/pdbqt_scrubbed/Z321281298.pdbqt
     RDKit          3D

 24 27  0  0  1  0  0  0  0  0999 V2000
    4.9886   42.0544   49.2986 C   0  0  0  0  0  0  0  0  0  0  0  0
    4.6578   41.1567   48.3090 C   0  0  0  0  0  3  0  0  0  0  0  0
    3.3703   40.6738   48.2379 C   0  0  0  0  0  3  0  0  0  0  0  0
    2.4233   41.0886   49.1524 C   0  0  0  0  0  3  0  0  0  0  0  0
    2.7718   41.9873   50.1358 C   0  0  0  0  0  0  0  0  0  0  0  0
    4.0610   42.4893   50.2301 C   0  0  0  0  0  3  0  0  0  0  0  0
    6.3471   42.5135   49.3103 N   0  0  0  0  0  0  0  0  0  0  0  0
    6.6922   43.6621   50.0829 C   0  0  0  0  0  0  0  0  0  0  0  0
    9.5863   45.4590   50.7824 N   0  0  0  0  0  0  0  0  0  0  0  0
   10.1223   44.5415   49.9897 N   0  0  0  0  0  0  0  0  0  0  0  0
    8.2503   45.2369   50.9076 C   0  0  0  0  0  0  0  0  0  0  0  0
    9.1717   43.7064   49.5793 C   0  0  0  0  0  3  0  0  0  0  0  0
    7.2965   45.8958   51.5999 N   0  0  0  0  0  0  0  0  0  0  0  0
    7.9867   44.1217   50.1420 C   0  0  0  0  0  0  0  0  0  0  0  0
    6.0439   45.4123   51.5142 C   0  0  0  0  0  3  0  0  0  0  0  0
    5.7440   44.3270   50.7784 N   0  0  0  0  0  0  0  0  0  0  0  0
   10.2694   46.5397   51.4319 C   0  0  0  0  0  1  0  0  0  0  0  0
    1.7614   42.3610   51.0250 O   0  0  0  0  0  0  0  0  0  0  0  0
    0.8907   43.4101   50.6487 C   0  0  0  0  0  2  0  0  0  0  0  0
    0.0692   43.7276   51.9017 C   0  0  0  0  0  3  0  0  0  0  0  0
    0.7664   43.2411   53.1279 C   0  0  0  0  0  2  0  0  0  0  0  0
   -0.1225   45.0881   51.9940 O   0  0  0  0  0  0  0  0  0  0  0  0
    0.9853   44.5279   53.9028 C   0  0  0  0  0  2  0  0  0  0  0  0
    0.8549   45.6013   52.8363 C   0  0  0  0  0  2  0  0  0  0  0  0
  1  7  1  0
  1  6  1  0
  2  1  2  0
  3  2  1  0
  3  4  2  0
  4  5  1  0
  5  6  2  0
  5 18  1  0
  7  8  1  0
  8 16  1  0
  8 14  2  0
  9 17  1  0
 10  9  1  0
 11 13  2  0
 11  9  1  0
 12 10  2  0
 14 12  1  0
 14 11  1  0
 15 13  1  0
 16 15  2  0
 19 18  1  0
 20 19  1  0
 20 22  1  0
 20 21  1  0
 21 23  1  0
 22 24  1  0
 24 23  1  0
M  RAD  8   2   2   3   2   4   2   6   2  12   2  15   2  17   2  19   3
M  RAD  4  20   2  21   3  23   3  24   3
M  END
>  <REMARK>  (1) 
 SMILES Cn1ncc2c(Nc3cccc(OCC4CCCO4)c3)ncnc21
 SMILES IDX 8 1 9 2 10 3 11 4 12 5 20 6 7 7 6 9 2 10 3 11 24 12 4 13
 SMILES IDX 23 14 5 15 22 16 21 17 1 18 13 19 14 20 15 21 16 22 19 23
 SMILES IDX 17 24 18 25
 H PARENT 7 8

>  <TORSDO>  (1) 
F 5

$$$$
