/home/pchatterjee/Documents/git/vs_workflow/DiffDock/diffdock_run/pdbqt_scrubbed/Z321281298.pdbqt
     RDKit          3D

 24 27  0  0  1  0  0  0  0  0999 V2000
    4.7470   41.8693   49.6162 C   0  0  0  0  0  0  0  0  0  0  0  0
    4.2901   41.0536   48.6060 C   0  0  0  0  0  3  0  0  0  0  0  0
    3.0003   40.5740   48.6562 C   0  0  0  0  0  3  0  0  0  0  0  0
    2.1767   40.9106   49.7116 C   0  0  0  0  0  3  0  0  0  0  0  0
    2.6505   41.7277   50.7135 C   0  0  0  0  0  0  0  0  0  0  0  0
    3.9449   42.2244   50.6875 C   0  0  0  0  0  3  0  0  0  0  0  0
    6.0996   42.3301   49.4964 N   0  0  0  0  0  0  0  0  0  0  0  0
    6.4811   43.5542   50.1223 C   0  0  0  0  0  0  0  0  0  0  0  0
    9.4441   45.2840   50.6904 N   0  0  0  0  0  0  0  0  0  0  0  0
    9.9551   44.2425   50.0488 N   0  0  0  0  0  0  0  0  0  0  0  0
    8.0945   45.1471   50.7910 C   0  0  0  0  0  0  0  0  0  0  0  0
    8.9746   43.4076   49.7160 C   0  0  0  0  0  3  0  0  0  0  0  0
    7.1558   45.9397   51.3510 N   0  0  0  0  0  0  0  0  0  0  0  0
    7.7961   43.9531   50.1709 C   0  0  0  0  0  0  0  0  0  0  0  0
    5.8823   45.5115   51.2809 C   0  0  0  0  0  3  0  0  0  0  0  0
    5.5482   44.3529   50.6849 N   0  0  0  0  0  0  0  0  0  0  0  0
   10.1632   46.4075   51.2167 C   0  0  0  0  0  1  0  0  0  0  0  0
    1.7605   42.0251   51.7483 O   0  0  0  0  0  0  0  0  0  0  0  0
    0.7426   42.9765   51.5052 C   0  0  0  0  0  2  0  0  0  0  0  0
    0.9912   44.1055   52.5098 C   0  0  0  0  0  3  0  0  0  0  0  0
   -0.1056   45.1154   52.4516 C   0  0  0  0  0  2  0  0  0  0  0  0
    1.0642   43.5823   53.7814 O   0  0  0  0  0  0  0  0  0  0  0  0
   -0.6735   45.0517   53.8580 C   0  0  0  0  0  2  0  0  0  0  0  0
   -0.1889   43.7053   54.3668 C   0  0  0  0  0  2  0  0  0  0  0  0
  1  7  1  0
  1  6  1  0
  2  1  2  0
  3  2  1  0
  3  4  2  0
  4  5  1  0
  5  6  2  0
  5 18  1  0
  7  8  1  0
  8 16  1  0
  8 14  2  0
  9 17  1  0
 10  9  1  0
 11 13  2  0
 11  9  1  0
 12 10  2  0
 14 12  1  0
 14 11  1  0
 15 13  1  0
 16 15  2  0
 19 18  1  0
 20 19  1  0
 20 22  1  0
 20 21  1  0
 21 23  1  0
 22 24  1  0
 24 23  1  0
M  RAD  8   2   2   3   2   4   2   6   2  12   2  15   2  17   2  19   3
M  RAD  4  20   2  21   3  23   3  24   3
M  END
>  <REMARK>  (1) 
 SMILES Cn1ncc2c(Nc3cccc(OCC4CCCO4)c3)ncnc21
 SMILES IDX 8 1 9 2 10 3 11 4 12 5 20 6 7 7 6 9 2 10 3 11 24 12 4 13
 SMILES IDX 23 14 5 15 22 16 21 17 1 18 13 19 14 20 15 21 16 22 19 23
 SMILES IDX 17 24 18 25
 H PARENT 7 8

>  <TORSDO>  (1) 
F 5

$$$$
