/home/pchatterjee/Documents/git/vs_workflow/DiffDock/diffdock_run/pdbqt_scrubbed/122199241.pdbqt
     RDKit          3D

 27 30  0  0  1  0  0  0  0  0999 V2000
    8.3663   63.9029   83.3407 C   0  0  0  0  0  0  0  0  0  0  0  0
    9.6667   63.3191   83.3809 N   0  0  0  0  0  0  0  0  0  0  0  0
   10.7210   63.9916   82.9779 C   0  0  0  0  0  0  0  0  0  0  0  0
   10.5916   65.2878   82.4928 C   0  0  0  0  0  3  0  0  0  0  0  0
   11.5715   66.2469   82.4199 N   0  0  0  0  0  0  0  0  0  0  0  0
   10.8671   67.4179   81.8264 C   0  0  0  0  0  2  0  0  0  0  0  0
    9.4723   67.1248   82.1057 N   0  0  0  0  0  0  0  0  0  0  0  0
    9.2786   65.9009   82.4954 C   0  0  0  0  0  0  0  0  0  0  0  0
    8.1626   65.1267   82.9183 N   0  0  0  0  0  0  0  0  0  0  0  0
    7.2242   63.1542   83.7690 N   0  0  0  0  0  0  0  0  0  0  0  0
    7.3572   61.7737   84.0878 C   0  0  0  0  0  0  0  0  0  0  0  0
    7.4905   59.4962   83.2757 C   0  0  0  0  0  0  0  0  0  0  0  0
    7.6086   59.0903   84.5958 C   0  0  0  0  0  3  0  0  0  0  0  0
    7.3662   60.8463   83.0545 C   0  0  0  0  0  3  0  0  0  0  0  0
    7.6062   59.9622   85.6619 C   0  0  0  0  0  3  0  0  0  0  0  0
    7.4787   61.3051   85.3809 C   0  0  0  0  0  3  0  0  0  0  0  0
    7.4990   58.5277   82.1834 C   0  0  0  0  0  0  0  0  0  0  0  0
    7.3764   59.0205   80.8545 N   0  0  0  0  0  0  0  0  0  0  0  0
    7.6138   57.3088   82.4653 O   0  0  0  0  0  0  0  0  0  0  0  0
   11.9382   63.3280   83.0711 O   0  0  0  0  0  0  0  0  0  0  0  0
   11.9615   62.0064   83.5744 C   0  0  0  0  0  2  0  0  0  0  0  0
   12.7256   61.1477   82.5787 C   0  0  0  0  0  3  0  0  0  0  0  0
   14.1531   61.6253   82.4259 C   0  0  0  0  0  2  0  0  0  0  0  0
   12.6819   59.6744   82.9669 C   0  0  0  0  0  2  0  0  0  0  0  0
   14.8951   61.5899   83.7487 C   0  0  0  0  0  2  0  0  0  0  0  0
   13.8875   59.3682   83.8383 C   0  0  0  0  0  2  0  0  0  0  0  0
   14.1816   60.6217   84.6487 C   0  0  0  0  0  2  0  0  0  0  0  0
  1 10  1  0
  2  1  1  0
  3  2  2  0
  4  8  1  0
  4  3  1  0
  5  4  1  0
  6  5  1  0
  6  7  1  0
  7  8  2  0
  8  9  1  0
  9  1  2  0
 10 11  1  0
 11 16  1  0
 12 13  2  0
 13 15  1  0
 14 12  1  0
 14 11  2  0
 16 15  2  0
 17 19  2  0
 17 12  1  0
 18 17  1  0
 20  3  1  0
 20 21  1  0
 21 22  1  0
 22 24  1  0
 22 23  1  0
 23 25  1  0
 24 26  1  0
 26 27  1  0
 27 25  1  0
M  RAD  8   4   2   6   3  13   2  14   2  15   2  16   2  21   3  22   2
M  RAD  5  23   3  24   3  25   3  26   3  27   3
M  END
>  <REMARK>  (1) 
 SMILES NC(=O)c1cccc(Nc2nc(OCC3CCCCC3)c3[nH]cnc3n2)c1
 SMILES IDX 10 1 11 2 12 3 21 4 22 5 23 6 24 7 25 8 26 9 9 11 8 13 4 14
 SMILES IDX 5 15 27 16 6 17 7 18 2 19 1 20 3 23 13 24 14 25 15 26 16 27
 SMILES IDX 20 28 17 29 19 30 18 31
 H PARENT 22 10 9 12 1 21 1 22

>  <TORSDO>  (1) 
F 6

$$$$
