/home/pchatterjee/Documents/git/vs_workflow/DiffDock/diffdock_run/pdbqt_scrubbed/122199241.pdbqt
     RDKit          3D

 27 30  0  0  1  0  0  0  0  0999 V2000
    7.6821   43.4353   49.4944 C   0  0  0  0  0  0  0  0  0  0  0  0
    6.6021   44.1320   50.1121 N   0  0  0  0  0  0  0  0  0  0  0  0
    6.8269   45.1205   50.9480 C   0  0  0  0  0  0  0  0  0  0  0  0
    8.1264   45.5047   51.2577 C   0  0  0  0  0  3  0  0  0  0  0  0
    8.5352   46.7164   51.7576 N   0  0  0  0  0  0  0  0  0  0  0  0
   10.0108   46.5573   51.8887 C   0  0  0  0  0  2  0  0  0  0  0  0
   10.2939   45.4596   50.9810 N   0  0  0  0  0  0  0  0  0  0  0  0
    9.2249   44.8306   50.5953 C   0  0  0  0  0  0  0  0  0  0  0  0
    8.9348   43.7504   49.7162 N   0  0  0  0  0  0  0  0  0  0  0  0
    7.4238   42.3508   48.5969 N   0  0  0  0  0  0  0  0  0  0  0  0
    6.0832   41.9791   48.2976 C   0  0  0  0  0  0  0  0  0  0  0  0
    3.8590   41.5162   49.1361 C   0  0  0  0  0  0  0  0  0  0  0  0
    3.4761   41.2691   47.8269 C   0  0  0  0  0  3  0  0  0  0  0  0
    5.1709   41.8695   49.3387 C   0  0  0  0  0  3  0  0  0  0  0  0
    4.3347   41.3615   46.7541 C   0  0  0  0  0  3  0  0  0  0  0  0
    5.6390   41.7198   47.0162 C   0  0  0  0  0  3  0  0  0  0  0  0
    2.9062   41.4032   50.2364 C   0  0  0  0  0  0  0  0  0  0  0  0
    3.3093   41.8712   51.5179 N   0  0  0  0  0  0  0  0  0  0  0  0
    1.7790   40.9001   50.0026 O   0  0  0  0  0  0  0  0  0  0  0  0
    5.7003   45.7336   51.4823 O   0  0  0  0  0  0  0  0  0  0  0  0
    4.4931   45.0008   51.5602 C   0  0  0  0  0  2  0  0  0  0  0  0
    3.9442   45.1657   52.9688 C   0  0  0  0  0  3  0  0  0  0  0  0
    3.4906   46.5877   53.2168 C   0  0  0  0  0  2  0  0  0  0  0  0
    2.8171   44.1775   53.2453 C   0  0  0  0  0  2  0  0  0  0  0  0
    2.4109   47.0051   52.2362 C   0  0  0  0  0  2  0  0  0  0  0  0
    1.4977   44.8343   52.8790 C   0  0  0  0  0  2  0  0  0  0  0  0
    1.7710   45.7562   51.7001 C   0  0  0  0  0  2  0  0  0  0  0  0
  1 10  1  0
  2  1  1  0
  3  2  2  0
  4  8  1  0
  4  3  1  0
  5  4  1  0
  6  5  1  0
  6  7  1  0
  7  8  2  0
  8  9  1  0
  9  1  2  0
 10 11  1  0
 11 16  1  0
 12 13  2  0
 13 15  1  0
 14 12  1  0
 14 11  2  0
 16 15  2  0
 17 19  2  0
 17 12  1  0
 18 17  1  0
 20  3  1  0
 20 21  1  0
 21 22  1  0
 22 24  1  0
 22 23  1  0
 23 25  1  0
 24 26  1  0
 26 27  1  0
 27 25  1  0
M  RAD  8   4   2   6   3  13   2  14   2  15   2  16   2  21   3  22   2
M  RAD  5  23   3  24   3  25   3  26   3  27   3
M  END
>  <REMARK>  (1) 
 SMILES NC(=O)c1cccc(Nc2nc(OCC3CCCCC3)c3[nH]cnc3n2)c1
 SMILES IDX 10 1 11 2 12 3 21 4 22 5 23 6 24 7 25 8 26 9 9 11 8 13 4 14
 SMILES IDX 5 15 27 16 6 17 7 18 2 19 1 20 3 23 13 24 14 25 15 26 16 27
 SMILES IDX 20 28 17 29 19 30 18 31
 H PARENT 22 10 9 12 1 21 1 22

>  <TORSDO>  (1) 
F 6

$$$$
