/home/pchatterjee/Documents/git/vs_workflow/DiffDock/diffdock_run/pdbqt_scrubbed/122199241.pdbqt
     RDKit          3D

 27 30  0  0  1  0  0  0  0  0999 V2000
    7.6510   43.3113   49.4100 C   0  0  0  0  0  0  0  0  0  0  0  0
    6.6528   43.9471   50.2053 N   0  0  0  0  0  0  0  0  0  0  0  0
    6.9770   44.8624   51.0904 C   0  0  0  0  0  0  0  0  0  0  0  0
    8.3053   45.2262   51.2792 C   0  0  0  0  0  3  0  0  0  0  0  0
    8.7744   46.3933   51.8295 N   0  0  0  0  0  0  0  0  0  0  0  0
   10.2546   46.2319   51.7751 C   0  0  0  0  0  2  0  0  0  0  0  0
   10.4260   45.2167   50.7508 N   0  0  0  0  0  0  0  0  0  0  0  0
    9.3168   44.6167   50.4394 C   0  0  0  0  0  0  0  0  0  0  0  0
    8.9222   43.6134   49.5113 N   0  0  0  0  0  0  0  0  0  0  0  0
    7.2859   42.3053   48.4597 N   0  0  0  0  0  0  0  0  0  0  0  0
    5.9128   42.0189   48.2191 C   0  0  0  0  0  0  0  0  0  0  0  0
    3.8185   41.1827   49.1014 C   0  0  0  0  0  0  0  0  0  0  0  0
    3.2582   41.4317   47.8582 C   0  0  0  0  0  3  0  0  0  0  0  0
    5.1496   41.4874   49.2502 C   0  0  0  0  0  3  0  0  0  0  0  0
    3.9637   41.9570   46.7985 C   0  0  0  0  0  3  0  0  0  0  0  0
    5.2955   42.2436   47.0047 C   0  0  0  0  0  3  0  0  0  0  0  0
    3.0231   40.6242   50.1908 C   0  0  0  0  0  0  0  0  0  0  0  0
    1.9296   41.3918   50.6794 N   0  0  0  0  0  0  0  0  0  0  0  0
    3.3391   39.4962   50.6451 O   0  0  0  0  0  0  0  0  0  0  0  0
    5.9225   45.4218   51.8015 O   0  0  0  0  0  0  0  0  0  0  0  0
    4.6048   44.9853   51.5300 C   0  0  0  0  0  2  0  0  0  0  0  0
    3.6612   46.1271   51.8748 C   0  0  0  0  0  3  0  0  0  0  0  0
    2.2196   45.7393   51.6291 C   0  0  0  0  0  2  0  0  0  0  0  0
    3.8620   46.5998   53.3100 C   0  0  0  0  0  2  0  0  0  0  0  0
    1.8213   44.5304   52.4545 C   0  0  0  0  0  2  0  0  0  0  0  0
    2.9171   45.8239   54.2110 C   0  0  0  0  0  2  0  0  0  0  0  0
    2.7728   44.4326   53.6128 C   0  0  0  0  0  2  0  0  0  0  0  0
  1 10  1  0
  2  1  1  0
  3  2  2  0
  4  8  1  0
  4  3  1  0
  5  4  1  0
  6  5  1  0
  6  7  1  0
  7  8  2  0
  8  9  1  0
  9  1  2  0
 10 11  1  0
 11 16  1  0
 12 13  2  0
 13 15  1  0
 14 12  1  0
 14 11  2  0
 16 15  2  0
 17 19  2  0
 17 12  1  0
 18 17  1  0
 20  3  1  0
 20 21  1  0
 21 22  1  0
 22 24  1  0
 22 23  1  0
 23 25  1  0
 24 26  1  0
 26 27  1  0
 27 25  1  0
M  RAD  8   4   2   6   3  13   2  14   2  15   2  16   2  21   3  22   2
M  RAD  5  23   3  24   3  25   3  26   3  27   3
M  END
>  <REMARK>  (1) 
 SMILES NC(=O)c1cccc(Nc2nc(OCC3CCCCC3)c3[nH]cnc3n2)c1
 SMILES IDX 10 1 11 2 12 3 21 4 22 5 23 6 24 7 25 8 26 9 9 11 8 13 4 14
 SMILES IDX 5 15 27 16 6 17 7 18 2 19 1 20 3 23 13 24 14 25 15 26 16 27
 SMILES IDX 20 28 17 29 19 30 18 31
 H PARENT 22 10 9 12 1 21 1 22

>  <TORSDO>  (1) 
F 6

$$$$
