/home/pchatterjee/Documents/git/vs_workflow/DiffDock/diffdock_run/pdbqt_scrubbed/122199241.pdbqt
     RDKit          3D

 27 30  0  0  1  0  0  0  0  0999 V2000
    7.7055   43.3418   49.5373 C   0  0  0  0  0  0  0  0  0  0  0  0
    6.7042   43.9378   50.3592 N   0  0  0  0  0  0  0  0  0  0  0  0
    7.0068   44.9006   51.2004 C   0  0  0  0  0  0  0  0  0  0  0  0
    8.3153   45.3551   51.3159 C   0  0  0  0  0  3  0  0  0  0  0  0
    8.7308   46.5676   51.8085 N   0  0  0  0  0  0  0  0  0  0  0  0
   10.2145   46.5001   51.6897 C   0  0  0  0  0  2  0  0  0  0  0  0
   10.4063   45.4648   50.6893 N   0  0  0  0  0  0  0  0  0  0  0  0
    9.3262   44.7848   50.4483 C   0  0  0  0  0  0  0  0  0  0  0  0
    8.9574   43.7282   49.5700 N   0  0  0  0  0  0  0  0  0  0  0  0
    7.3652   42.2837   48.6357 N   0  0  0  0  0  0  0  0  0  0  0  0
    6.0310   41.7910   48.5882 C   0  0  0  0  0  0  0  0  0  0  0  0
    3.7907   41.8778   49.5034 C   0  0  0  0  0  0  0  0  0  0  0  0
    3.4343   40.9084   48.5790 C   0  0  0  0  0  3  0  0  0  0  0  0
    5.0981   42.2988   49.4826 C   0  0  0  0  0  3  0  0  0  0  0  0
    4.3141   40.3674   47.6679 C   0  0  0  0  0  3  0  0  0  0  0  0
    5.6128   40.8271   47.6925 C   0  0  0  0  0  3  0  0  0  0  0  0
    2.8161   42.4170   50.4472 C   0  0  0  0  0  0  0  0  0  0  0  0
    1.4355   42.2617   50.1415 N   0  0  0  0  0  0  0  0  0  0  0  0
    3.2391   42.9909   51.4818 O   0  0  0  0  0  0  0  0  0  0  0  0
    5.9506   45.4141   51.9431 O   0  0  0  0  0  0  0  0  0  0  0  0
    4.7550   44.6649   52.0429 C   0  0  0  0  0  2  0  0  0  0  0  0
    3.6225   45.5328   51.5166 C   0  0  0  0  0  3  0  0  0  0  0  0
    2.3305   44.7508   51.4249 C   0  0  0  0  0  2  0  0  0  0  0  0
    3.4425   46.7862   52.3652 C   0  0  0  0  0  2  0  0  0  0  0  0
    1.9168   44.2013   52.7771 C   0  0  0  0  0  2  0  0  0  0  0  0
    2.4287   46.4896   53.4565 C   0  0  0  0  0  2  0  0  0  0  0  0
    2.5957   45.0253   53.8339 C   0  0  0  0  0  2  0  0  0  0  0  0
  1 10  1  0
  2  1  1  0
  3  2  2  0
  4  8  1  0
  4  3  1  0
  5  4  1  0
  6  5  1  0
  6  7  1  0
  7  8  2  0
  8  9  1  0
  9  1  2  0
 10 11  1  0
 11 16  1  0
 12 13  2  0
 13 15  1  0
 14 12  1  0
 14 11  2  0
 16 15  2  0
 17 19  2  0
 17 12  1  0
 18 17  1  0
 20  3  1  0
 20 21  1  0
 21 22  1  0
 22 24  1  0
 22 23  1  0
 23 25  1  0
 24 26  1  0
 26 27  1  0
 27 25  1  0
M  RAD  8   4   2   6   3  13   2  14   2  15   2  16   2  21   3  22   2
M  RAD  5  23   3  24   3  25   3  26   3  27   3
M  END
>  <REMARK>  (1) 
 SMILES NC(=O)c1cccc(Nc2nc(OCC3CCCCC3)c3[nH]cnc3n2)c1
 SMILES IDX 10 1 11 2 12 3 21 4 22 5 23 6 24 7 25 8 26 9 9 11 8 13 4 14
 SMILES IDX 5 15 27 16 6 17 7 18 2 19 1 20 3 23 13 24 14 25 15 26 16 27
 SMILES IDX 20 28 17 29 19 30 18 31
 H PARENT 22 10 9 12 1 21 1 22

>  <TORSDO>  (1) 
F 6

$$$$
