/home/pchatterjee/Documents/git/vs_workflow/DiffDock/diffdock_run/pdbqt_scrubbed/122199241.pdbqt
     RDKit          3D

 27 30  0  0  1  0  0  0  0  0999 V2000
    7.5779   43.3815   49.5773 C   0  0  0  0  0  0  0  0  0  0  0  0
    6.5497   44.1180   50.2359 N   0  0  0  0  0  0  0  0  0  0  0  0
    6.8358   45.1761   50.9604 C   0  0  0  0  0  0  0  0  0  0  0  0
    8.1519   45.5976   51.1097 C   0  0  0  0  0  3  0  0  0  0  0  0
    8.5852   46.8513   51.4644 N   0  0  0  0  0  0  0  0  0  0  0  0
   10.0691   46.7180   51.4651 C   0  0  0  0  0  2  0  0  0  0  0  0
   10.2836   45.5497   50.6295 N   0  0  0  0  0  0  0  0  0  0  0  0
    9.1939   44.8801   50.4031 C   0  0  0  0  0  0  0  0  0  0  0  0
    8.8402   43.7262   49.6498 N   0  0  0  0  0  0  0  0  0  0  0  0
    7.2542   42.2221   48.8032 N   0  0  0  0  0  0  0  0  0  0  0  0
    5.9223   41.7211   48.7951 C   0  0  0  0  0  0  0  0  0  0  0  0
    4.0319   40.9739   47.4790 C   0  0  0  0  0  0  0  0  0  0  0  0
    3.3588   40.7541   48.6706 C   0  0  0  0  0  3  0  0  0  0  0  0
    5.3136   41.4585   47.5750 C   0  0  0  0  0  3  0  0  0  0  0  0
    3.9093   40.9955   49.9097 C   0  0  0  0  0  3  0  0  0  0  0  0
    5.1982   41.4810   49.9460 C   0  0  0  0  0  3  0  0  0  0  0  0
    3.3993   40.7004   46.1920 C   0  0  0  0  0  0  0  0  0  0  0  0
    4.1581   40.0034   45.2110 N   0  0  0  0  0  0  0  0  0  0  0  0
    2.2192   41.0911   46.0102 O   0  0  0  0  0  0  0  0  0  0  0  0
    5.7548   45.8218   51.5478 O   0  0  0  0  0  0  0  0  0  0  0  0
    4.4699   45.2395   51.4444 C   0  0  0  0  0  2  0  0  0  0  0  0
    3.9650   44.9843   52.8561 C   0  0  0  0  0  3  0  0  0  0  0  0
    3.6348   46.2810   53.5623 C   0  0  0  0  0  2  0  0  0  0  0  0
    2.7664   44.0427   52.8559 C   0  0  0  0  0  2  0  0  0  0  0  0
    2.5735   47.0659   52.8147 C   0  0  0  0  0  2  0  0  0  0  0  0
    1.4982   44.8746   52.7768 C   0  0  0  0  0  2  0  0  0  0  0  0
    1.8224   46.1030   51.9399 C   0  0  0  0  0  2  0  0  0  0  0  0
  1 10  1  0
  2  1  1  0
  3  2  2  0
  4  8  1  0
  4  3  1  0
  5  4  1  0
  6  5  1  0
  6  7  1  0
  7  8  2  0
  8  9  1  0
  9  1  2  0
 10 11  1  0
 11 16  1  0
 12 13  2  0
 13 15  1  0
 14 12  1  0
 14 11  2  0
 16 15  2  0
 17 19  2  0
 17 12  1  0
 18 17  1  0
 20  3  1  0
 20 21  1  0
 21 22  1  0
 22 24  1  0
 22 23  1  0
 23 25  1  0
 24 26  1  0
 26 27  1  0
 27 25  1  0
M  RAD  8   4   2   6   3  13   2  14   2  15   2  16   2  21   3  22   2
M  RAD  5  23   3  24   3  25   3  26   3  27   3
M  END
>  <REMARK>  (1) 
 SMILES NC(=O)c1cccc(Nc2nc(OCC3CCCCC3)c3[nH]cnc3n2)c1
 SMILES IDX 10 1 11 2 12 3 21 4 22 5 23 6 24 7 25 8 26 9 9 11 8 13 4 14
 SMILES IDX 5 15 27 16 6 17 7 18 2 19 1 20 3 23 13 24 14 25 15 26 16 27
 SMILES IDX 20 28 17 29 19 30 18 31
 H PARENT 22 10 9 12 1 21 1 22

>  <TORSDO>  (1) 
F 6

$$$$
