/home/pchatterjee/Documents/git/vs_workflow/DiffDock/diffdock_run/pdbqt_scrubbed/122199241.pdbqt
     RDKit          3D

 27 30  0  0  1  0  0  0  0  0999 V2000
    7.6241   43.2174   49.5435 C   0  0  0  0  0  0  0  0  0  0  0  0
    6.6553   43.9875   50.2518 N   0  0  0  0  0  0  0  0  0  0  0  0
    7.0175   45.0064   50.9979 C   0  0  0  0  0  0  0  0  0  0  0  0
    8.3581   45.3524   51.1221 C   0  0  0  0  0  3  0  0  0  0  0  0
    8.8679   46.5699   51.5002 N   0  0  0  0  0  0  0  0  0  0  0  0
   10.3420   46.3577   51.4552 C   0  0  0  0  0  2  0  0  0  0  0  0
   10.4704   45.2053   50.5807 N   0  0  0  0  0  0  0  0  0  0  0  0
    9.3404   44.6019   50.3660 C   0  0  0  0  0  0  0  0  0  0  0  0
    8.9048   43.4919   49.5902 N   0  0  0  0  0  0  0  0  0  0  0  0
    7.2176   42.1008   48.7458 N   0  0  0  0  0  0  0  0  0  0  0  0
    5.8529   41.6974   48.7296 C   0  0  0  0  0  0  0  0  0  0  0  0
    3.9606   40.9559   47.4130 C   0  0  0  0  0  0  0  0  0  0  0  0
    3.2303   40.9071   48.5901 C   0  0  0  0  0  3  0  0  0  0  0  0
    5.2708   41.3555   47.5162 C   0  0  0  0  0  3  0  0  0  0  0  0
    3.7523   41.2339   49.8220 C   0  0  0  0  0  3  0  0  0  0  0  0
    5.0719   41.6279   49.8659 C   0  0  0  0  0  3  0  0  0  0  0  0
    3.3563   40.5980   46.1331 C   0  0  0  0  0  0  0  0  0  0  0  0
    1.9771   40.2495   46.1214 N   0  0  0  0  0  0  0  0  0  0  0  0
    4.0784   40.6141   45.1051 O   0  0  0  0  0  0  0  0  0  0  0  0
    5.9891   45.6909   51.6339 O   0  0  0  0  0  0  0  0  0  0  0  0
    4.7167   45.0808   51.7303 C   0  0  0  0  0  2  0  0  0  0  0  0
    4.2252   45.2635   53.1578 C   0  0  0  0  0  3  0  0  0  0  0  0
    3.8859   46.7108   53.4392 C   0  0  0  0  0  2  0  0  0  0  0  0
    3.0371   44.3566   53.4569 C   0  0  0  0  0  2  0  0  0  0  0  0
    2.8103   47.2219   52.4992 C   0  0  0  0  0  2  0  0  0  0  0  0
    1.7593   45.1143   53.1417 C   0  0  0  0  0  2  0  0  0  0  0  0
    2.0635   46.0321   51.9671 C   0  0  0  0  0  2  0  0  0  0  0  0
  1 10  1  0
  2  1  1  0
  3  2  2  0
  4  8  1  0
  4  3  1  0
  5  4  1  0
  6  5  1  0
  6  7  1  0
  7  8  2  0
  8  9  1  0
  9  1  2  0
 10 11  1  0
 11 16  1  0
 12 13  2  0
 13 15  1  0
 14 12  1  0
 14 11  2  0
 16 15  2  0
 17 19  2  0
 17 12  1  0
 18 17  1  0
 20  3  1  0
 20 21  1  0
 21 22  1  0
 22 24  1  0
 22 23  1  0
 23 25  1  0
 24 26  1  0
 26 27  1  0
 27 25  1  0
M  RAD  8   4   2   6   3  13   2  14   2  15   2  16   2  21   3  22   2
M  RAD  5  23   3  24   3  25   3  26   3  27   3
M  END
>  <REMARK>  (1) 
 SMILES NC(=O)c1cccc(Nc2nc(OCC3CCCCC3)c3[nH]cnc3n2)c1
 SMILES IDX 10 1 11 2 12 3 21 4 22 5 23 6 24 7 25 8 26 9 9 11 8 13 4 14
 SMILES IDX 5 15 27 16 6 17 7 18 2 19 1 20 3 23 13 24 14 25 15 26 16 27
 SMILES IDX 20 28 17 29 19 30 18 31
 H PARENT 22 10 9 12 1 21 1 22

>  <TORSDO>  (1) 
F 6

$$$$
