/home/pchatterjee/Documents/git/vs_workflow/DiffDock/diffdock_run/pdbqt_scrubbed/122199241.pdbqt
     RDKit          3D

 27 30  0  0  1  0  0  0  0  0999 V2000
    7.7244   43.4814   49.3950 C   0  0  0  0  0  0  0  0  0  0  0  0
    6.7101   44.0560   50.2162 N   0  0  0  0  0  0  0  0  0  0  0  0
    6.9983   45.0002   51.0833 C   0  0  0  0  0  0  0  0  0  0  0  0
    8.3038   45.4554   51.2272 C   0  0  0  0  0  3  0  0  0  0  0  0
    8.7088   46.6573   51.7529 N   0  0  0  0  0  0  0  0  0  0  0  0
   10.1942   46.5965   51.6532 C   0  0  0  0  0  2  0  0  0  0  0  0
   10.4029   45.5848   50.6323 N   0  0  0  0  0  0  0  0  0  0  0  0
    9.3282   44.9076   50.3609 C   0  0  0  0  0  0  0  0  0  0  0  0
    8.9746   43.8703   49.4538 N   0  0  0  0  0  0  0  0  0  0  0  0
    7.3997   42.4433   48.4649 N   0  0  0  0  0  0  0  0  0  0  0  0
    6.0838   41.9026   48.4332 C   0  0  0  0  0  0  0  0  0  0  0  0
    3.9309   41.7095   49.5251 C   0  0  0  0  0  0  0  0  0  0  0  0
    3.5273   40.9098   48.4672 C   0  0  0  0  0  3  0  0  0  0  0  0
    5.2166   42.1910   49.4786 C   0  0  0  0  0  3  0  0  0  0  0  0
    4.3413   40.5893   47.4036 C   0  0  0  0  0  3  0  0  0  0  0  0
    5.6210   41.1000   47.4095 C   0  0  0  0  0  3  0  0  0  0  0  0
    3.0255   42.0177   50.6281 C   0  0  0  0  0  0  0  0  0  0  0  0
    3.5773   42.1171   51.9355 N   0  0  0  0  0  0  0  0  0  0  0  0
    1.8060   42.1803   50.3736 O   0  0  0  0  0  0  0  0  0  0  0  0
    5.9305   45.4938   51.8227 O   0  0  0  0  0  0  0  0  0  0  0  0
    4.7019   44.7932   51.8039 C   0  0  0  0  0  2  0  0  0  0  0  0
    3.5848   45.8197   51.9109 C   0  0  0  0  0  3  0  0  0  0  0  0
    2.2280   45.1721   51.7413 C   0  0  0  0  0  2  0  0  0  0  0  0
    3.6615   46.5897   53.2241 C   0  0  0  0  0  2  0  0  0  0  0  0
    1.9888   44.1014   52.7892 C   0  0  0  0  0  2  0  0  0  0  0  0
    2.8142   45.8683   54.2576 C   0  0  0  0  0  2  0  0  0  0  0  0
    2.9032   44.3815   53.9476 C   0  0  0  0  0  2  0  0  0  0  0  0
  1 10  1  0
  2  1  1  0
  3  2  2  0
  4  8  1  0
  4  3  1  0
  5  4  1  0
  6  5  1  0
  6  7  1  0
  7  8  2  0
  8  9  1  0
  9  1  2  0
 10 11  1  0
 11 16  1  0
 12 13  2  0
 13 15  1  0
 14 12  1  0
 14 11  2  0
 16 15  2  0
 17 19  2  0
 17 12  1  0
 18 17  1  0
 20  3  1  0
 20 21  1  0
 21 22  1  0
 22 24  1  0
 22 23  1  0
 23 25  1  0
 24 26  1  0
 26 27  1  0
 27 25  1  0
M  RAD  8   4   2   6   3  13   2  14   2  15   2  16   2  21   3  22   2
M  RAD  5  23   3  24   3  25   3  26   3  27   3
M  END
>  <REMARK>  (1) 
 SMILES NC(=O)c1cccc(Nc2nc(OCC3CCCCC3)c3[nH]cnc3n2)c1
 SMILES IDX 10 1 11 2 12 3 21 4 22 5 23 6 24 7 25 8 26 9 9 11 8 13 4 14
 SMILES IDX 5 15 27 16 6 17 7 18 2 19 1 20 3 23 13 24 14 25 15 26 16 27
 SMILES IDX 20 28 17 29 19 30 18 31
 H PARENT 22 10 9 12 1 21 1 22

>  <TORSDO>  (1) 
F 6

$$$$
