/home/pchatterjee/Documents/git/vs_workflow/DiffDock/diffdock_run/pdbqt_scrubbed/122199241.pdbqt
     RDKit          3D

 27 30  0  0  1  0  0  0  0  0999 V2000
    7.7723   43.3579   49.5675 C   0  0  0  0  0  0  0  0  0  0  0  0
    6.7291   44.0495   50.2506 N   0  0  0  0  0  0  0  0  0  0  0  0
    6.9980   45.0576   51.0493 C   0  0  0  0  0  0  0  0  0  0  0  0
    8.3100   45.4681   51.2547 C   0  0  0  0  0  3  0  0  0  0  0  0
    8.7338   46.6957   51.7006 N   0  0  0  0  0  0  0  0  0  0  0  0
   10.2176   46.5624   51.7249 C   0  0  0  0  0  2  0  0  0  0  0  0
   10.4517   45.4516   50.8190 N   0  0  0  0  0  0  0  0  0  0  0  0
    9.3680   44.7985   50.5253 C   0  0  0  0  0  0  0  0  0  0  0  0
    9.0323   43.6969   49.6901 N   0  0  0  0  0  0  0  0  0  0  0  0
    7.4671   42.2520   48.7118 N   0  0  0  0  0  0  0  0  0  0  0  0
    6.1133   41.8653   48.5047 C   0  0  0  0  0  0  0  0  0  0  0  0
    3.8919   41.6340   49.4407 C   0  0  0  0  0  0  0  0  0  0  0  0
    3.4828   41.1477   48.2088 C   0  0  0  0  0  3  0  0  0  0  0  0
    5.2150   41.9846   49.5568 C   0  0  0  0  0  3  0  0  0  0  0  0
    4.3265   41.0068   47.1295 C   0  0  0  0  0  3  0  0  0  0  0  0
    5.6430   41.3741   47.3031 C   0  0  0  0  0  3  0  0  0  0  0  0
    2.9539   41.7625   50.5520 C   0  0  0  0  0  0  0  0  0  0  0  0
    1.7055   41.0879   50.4521 N   0  0  0  0  0  0  0  0  0  0  0  0
    3.2905   42.4598   51.5415 O   0  0  0  0  0  0  0  0  0  0  0  0
    5.9036   45.6634   51.6542 O   0  0  0  0  0  0  0  0  0  0  0  0
    4.6530   45.0032   51.6269 C   0  0  0  0  0  2  0  0  0  0  0  0
    4.1049   44.9963   53.0455 C   0  0  0  0  0  3  0  0  0  0  0  0
    3.9250   46.4040   53.5700 C   0  0  0  0  0  2  0  0  0  0  0  0
    2.8017   44.2105   53.1339 C   0  0  0  0  0  2  0  0  0  0  0  0
    2.9745   47.2038   52.6992 C   0  0  0  0  0  2  0  0  0  0  0  0
    1.6439   45.1684   52.9143 C   0  0  0  0  0  2  0  0  0  0  0  0
    2.1231   46.2299   51.9355 C   0  0  0  0  0  2  0  0  0  0  0  0
  1 10  1  0
  2  1  1  0
  3  2  2  0
  4  8  1  0
  4  3  1  0
  5  4  1  0
  6  5  1  0
  6  7  1  0
  7  8  2  0
  8  9  1  0
  9  1  2  0
 10 11  1  0
 11 16  1  0
 12 13  2  0
 13 15  1  0
 14 12  1  0
 14 11  2  0
 16 15  2  0
 17 19  2  0
 17 12  1  0
 18 17  1  0
 20  3  1  0
 20 21  1  0
 21 22  1  0
 22 24  1  0
 22 23  1  0
 23 25  1  0
 24 26  1  0
 26 27  1  0
 27 25  1  0
M  RAD  8   4   2   6   3  13   2  14   2  15   2  16   2  21   3  22   2
M  RAD  5  23   3  24   3  25   3  26   3  27   3
M  END
>  <REMARK>  (1) 
 SMILES NC(=O)c1cccc(Nc2nc(OCC3CCCCC3)c3[nH]cnc3n2)c1
 SMILES IDX 10 1 11 2 12 3 21 4 22 5 23 6 24 7 25 8 26 9 9 11 8 13 4 14
 SMILES IDX 5 15 27 16 6 17 7 18 2 19 1 20 3 23 13 24 14 25 15 26 16 27
 SMILES IDX 20 28 17 29 19 30 18 31
 H PARENT 22 10 9 12 1 21 1 22

>  <TORSDO>  (1) 
F 6

$$$$
