/home/pchatterjee/Documents/git/vs_workflow/DiffDock/diffdock_run/pdbqt_scrubbed/122199241.pdbqt
     RDKit          3D

 27 30  0  0  1  0  0  0  0  0999 V2000
    7.6053   43.3588   49.6391 C   0  0  0  0  0  0  0  0  0  0  0  0
    6.7028   44.0831   50.4723 N   0  0  0  0  0  0  0  0  0  0  0  0
    7.1369   45.0262   51.2775 C   0  0  0  0  0  0  0  0  0  0  0  0
    8.4908   45.3341   51.3429 C   0  0  0  0  0  3  0  0  0  0  0  0
    9.0538   46.5041   51.7895 N   0  0  0  0  0  0  0  0  0  0  0  0
   10.5163   46.2681   51.6303 C   0  0  0  0  0  2  0  0  0  0  0  0
   10.5603   45.1938   50.6540 N   0  0  0  0  0  0  0  0  0  0  0  0
    9.4042   44.6333   50.4629 C   0  0  0  0  0  0  0  0  0  0  0  0
    8.8928   43.6034   49.6253 N   0  0  0  0  0  0  0  0  0  0  0  0
    7.1213   42.3238   48.7773 N   0  0  0  0  0  0  0  0  0  0  0  0
    5.7609   41.9130   48.8533 C   0  0  0  0  0  0  0  0  0  0  0  0
    3.7950   41.1380   47.6705 C   0  0  0  0  0  0  0  0  0  0  0  0
    3.1398   41.1064   48.8916 C   0  0  0  0  0  3  0  0  0  0  0  0
    5.1065   41.5463   47.6847 C   0  0  0  0  0  3  0  0  0  0  0  0
    3.7354   41.4580   50.0826 C   0  0  0  0  0  3  0  0  0  0  0  0
    5.0526   41.8597   50.0372 C   0  0  0  0  0  3  0  0  0  0  0  0
    3.1144   40.7542   46.4373 C   0  0  0  0  0  0  0  0  0  0  0  0
    1.7306   40.4328   46.5119 N   0  0  0  0  0  0  0  0  0  0  0  0
    3.7787   40.7252   45.3713 O   0  0  0  0  0  0  0  0  0  0  0  0
    6.1683   45.6727   52.0355 O   0  0  0  0  0  0  0  0  0  0  0  0
    4.8156   45.2840   51.8946 C   0  0  0  0  0  2  0  0  0  0  0  0
    3.9611   46.3275   52.5973 C   0  0  0  0  0  3  0  0  0  0  0  0
    2.5446   46.3235   52.0658 C   0  0  0  0  0  2  0  0  0  0  0  0
    3.9771   46.1326   54.1090 C   0  0  0  0  0  2  0  0  0  0  0  0
    1.8858   44.9695   52.2509 C   0  0  0  0  0  2  0  0  0  0  0  0
    2.8182   45.2289   54.4921 C   0  0  0  0  0  2  0  0  0  0  0  0
    2.6195   44.2487   53.3457 C   0  0  0  0  0  2  0  0  0  0  0  0
  1 10  1  0
  2  1  1  0
  3  2  2  0
  4  8  1  0
  4  3  1  0
  5  4  1  0
  6  5  1  0
  6  7  1  0
  7  8  2  0
  8  9  1  0
  9  1  2  0
 10 11  1  0
 11 16  1  0
 12 13  2  0
 13 15  1  0
 14 12  1  0
 14 11  2  0
 16 15  2  0
 17 19  2  0
 17 12  1  0
 18 17  1  0
 20  3  1  0
 20 21  1  0
 21 22  1  0
 22 24  1  0
 22 23  1  0
 23 25  1  0
 24 26  1  0
 26 27  1  0
 27 25  1  0
M  RAD  8   4   2   6   3  13   2  14   2  15   2  16   2  21   3  22   2
M  RAD  5  23   3  24   3  25   3  26   3  27   3
M  END
>  <REMARK>  (1) 
 SMILES NC(=O)c1cccc(Nc2nc(OCC3CCCCC3)c3[nH]cnc3n2)c1
 SMILES IDX 10 1 11 2 12 3 21 4 22 5 23 6 24 7 25 8 26 9 9 11 8 13 4 14
 SMILES IDX 5 15 27 16 6 17 7 18 2 19 1 20 3 23 13 24 14 25 15 26 16 27
 SMILES IDX 20 28 17 29 19 30 18 31
 H PARENT 22 10 9 12 1 21 1 22

>  <TORSDO>  (1) 
F 6

$$$$
