/home/pchatterjee/Documents/git/vs_workflow/DiffDock/diffdock_run/pdbqt_scrubbed/122199241.pdbqt
     RDKit          3D

 27 30  0  0  1  0  0  0  0  0999 V2000
    7.5866   43.3969   49.5825 C   0  0  0  0  0  0  0  0  0  0  0  0
    6.5496   44.1339   50.2265 N   0  0  0  0  0  0  0  0  0  0  0  0
    6.8322   45.0747   51.0991 C   0  0  0  0  0  0  0  0  0  0  0  0
    8.1520   45.3676   51.4226 C   0  0  0  0  0  3  0  0  0  0  0  0
    8.6324   46.5326   51.9677 N   0  0  0  0  0  0  0  0  0  0  0  0
   10.0955   46.2797   52.0921 C   0  0  0  0  0  2  0  0  0  0  0  0
   10.3134   45.2018   51.1434 N   0  0  0  0  0  0  0  0  0  0  0  0
    9.2089   44.6537   50.7347 C   0  0  0  0  0  0  0  0  0  0  0  0
    8.8556   43.6270   49.8155 N   0  0  0  0  0  0  0  0  0  0  0  0
    7.2649   42.3647   48.6448 N   0  0  0  0  0  0  0  0  0  0  0  0
    5.9089   41.9808   48.4470 C   0  0  0  0  0  0  0  0  0  0  0  0
    3.7454   41.5466   49.4445 C   0  0  0  0  0  0  0  0  0  0  0  0
    3.2793   41.2512   48.1730 C   0  0  0  0  0  3  0  0  0  0  0  0
    5.0665   41.9085   49.5484 C   0  0  0  0  0  3  0  0  0  0  0  0
    4.0661   41.3052   47.0439 C   0  0  0  0  0  3  0  0  0  0  0  0
    5.3834   41.6743   47.2075 C   0  0  0  0  0  3  0  0  0  0  0  0
    2.8665   41.4730   50.6079 C   0  0  0  0  0  0  0  0  0  0  0  0
    1.5521   40.9625   50.4191 N   0  0  0  0  0  0  0  0  0  0  0  0
    3.3088   41.8621   51.7176 O   0  0  0  0  0  0  0  0  0  0  0  0
    5.7438   45.7343   51.6567 O   0  0  0  0  0  0  0  0  0  0  0  0
    4.4380   45.3346   51.2885 C   0  0  0  0  0  2  0  0  0  0  0  0
    3.7719   44.7448   52.5219 C   0  0  0  0  0  3  0  0  0  0  0  0
    3.6384   45.7779   53.6190 C   0  0  0  0  0  2  0  0  0  0  0  0
    2.4185   44.1311   52.1827 C   0  0  0  0  0  2  0  0  0  0  0  0
    2.8183   46.9699   53.1626 C   0  0  0  0  0  2  0  0  0  0  0  0
    1.3470   45.1914   52.3678 C   0  0  0  0  0  2  0  0  0  0  0  0
    1.9746   46.5279   52.0010 C   0  0  0  0  0  2  0  0  0  0  0  0
  1 10  1  0
  2  1  1  0
  3  2  2  0
  4  8  1  0
  4  3  1  0
  5  4  1  0
  6  5  1  0
  6  7  1  0
  7  8  2  0
  8  9  1  0
  9  1  2  0
 10 11  1  0
 11 16  1  0
 12 13  2  0
 13 15  1  0
 14 12  1  0
 14 11  2  0
 16 15  2  0
 17 19  2  0
 17 12  1  0
 18 17  1  0
 20  3  1  0
 20 21  1  0
 21 22  1  0
 22 24  1  0
 22 23  1  0
 23 25  1  0
 24 26  1  0
 26 27  1  0
 27 25  1  0
M  RAD  8   4   2   6   3  13   2  14   2  15   2  16   2  21   3  22   2
M  RAD  5  23   3  24   3  25   3  26   3  27   3
M  END
>  <REMARK>  (1) 
 SMILES NC(=O)c1cccc(Nc2nc(OCC3CCCCC3)c3[nH]cnc3n2)c1
 SMILES IDX 10 1 11 2 12 3 21 4 22 5 23 6 24 7 25 8 26 9 9 11 8 13 4 14
 SMILES IDX 5 15 27 16 6 17 7 18 2 19 1 20 3 23 13 24 14 25 15 26 16 27
 SMILES IDX 20 28 17 29 19 30 18 31
 H PARENT 22 10 9 12 1 21 1 22

>  <TORSDO>  (1) 
F 6

$$$$
