/home/pchatterjee/Documents/git/vs_workflow/DiffDock/diffdock_run/pdbqt_scrubbed/Z2992988213.pdbqt
     RDKit          3D

 23 22  0  0  1  0  0  0  0  0999 V2000
   -2.2782   80.9695   59.4745 O   0  0  0  0  0  0  0  0  0  0  0  0
   -2.4990   79.8436   60.0204 C   0  0  0  0  0  0  0  0  0  0  0  0
   -3.8149   79.3494   59.9087 N   0  0  0  0  0  0  0  0  0  0  0  0
   -1.3921   79.2090   60.6865 C   0  0  0  0  0  0  0  0  0  0  0  0
   -0.2352   79.9667   60.8705 C   0  0  0  0  0  0  0  0  0  0  0  0
   -1.3549   77.9271   61.1612 C   0  0  0  0  0  0  0  0  0  0  0  0
    0.8860   79.4639   61.4944 C   0  0  0  0  0  3  0  0  0  0  0  0
   -0.2271   77.4096   61.7938 C   0  0  0  0  0  3  0  0  0  0  0  0
    0.9068   78.1726   61.9677 C   0  0  0  0  0  3  0  0  0  0  0  0
   -0.1327   81.6355   60.3110 Cl  0  0  0  0  0  0  0  0  0  0  0  0
   -2.4290   77.0690   61.0378 O   0  0  0  0  0  0  0  0  0  0  0  0
   -2.4020   76.2545   59.8464 C   0  0  0  0  0  2  0  0  0  0  0  0
   -1.5069   75.0664   60.0133 C   0  0  0  0  0  3  0  0  0  0  0  0
   -1.6558   74.1825   61.2127 C   0  0  0  0  0  2  0  0  0  0  0  0
   -2.2836   73.7168   59.8754 C   0  0  0  0  0  2  0  0  0  0  0  0
   -4.8444   80.0879   59.2027 C   0  0  0  0  0  3  0  0  0  0  0  0
   -4.9458   79.7677   57.7506 C   0  0  0  0  0  1  0  0  0  0  0  0
   -2.9977   78.7753   60.3121 *   0  0  0  0  0  0  0  0  0  0  0  0
   -6.1263   80.0483   59.9379 C   0  0  0  0  0  0  0  0  0  0  0  0
   -7.0325   81.1370   59.8307 N   0  0  0  0  0  0  0  0  0  0  0  0
   -6.4426   79.0514   60.6735 O   0  0  0  0  0  0  0  0  0  0  0  0
   -8.2977   81.1105   60.5493 C   0  0  0  0  0  1  0  0  0  0  0  0
   -2.9977   78.7753   60.3121 *   0  0  0  0  0  0  0  0  0  0  0  0
  1  2  2  0
  2  3  1  0
  3 16  1  0
  4  5  2  0
  4  2  1  0
  5 10  1  0
  6  4  1  0
  7  5  1  0
  8  6  2  0
  8  9  1  0
  9  7  2  0
 11  6  1  0
 12 11  1  0
 13 14  1  0
 13 12  1  0
 15 13  1  0
 15 14  1  0
 16 17  1  0
 16 19  1  0
 19 21  2  0
 19 20  1  0
 22 20  1  0
M  RAD  8   7   2   8   2   9   2  12   3  13   2  14   3  15   3  16   2
M  RAD  2  17   2  22   2
V   18 *
V   23 *
M  END
>  <REMARK>  (1) 
 SMILES O=C(NC1CCCCNC1=O)c1c(Cl)cccc1OCC1CC1
 SMILES IDX 1 1 2 2 3 3 12 5 13 6 18 7 15 8 17 9 16 10 14 11 19 12 20 13
 SMILES IDX 21 14 22 15 23 16 4 17 5 18 6 19 10 21 9 22 11 23 8 25 7 26
 H PARENT 3 4 9 24
 Flexibility Score:   36.900

>  <TORSDO>  (1) 
F 5

$$$$
