/home/pchatterjee/Documents/git/vs_workflow/DiffDock/diffdock_run/pdbqt_scrubbed/Z2992988213.pdbqt
     RDKit          3D

 23 22  0  0  1  0  0  0  0  0999 V2000
   17.1053   85.8682   66.4980 O   0  0  0  0  0  0  0  0  0  0  0  0
   16.4700   85.7467   67.5916 C   0  0  0  0  0  0  0  0  0  0  0  0
   15.3119   86.5401   67.7256 N   0  0  0  0  0  0  0  0  0  0  0  0
   17.0015   84.8244   68.5602 C   0  0  0  0  0  0  0  0  0  0  0  0
   18.2743   84.3059   68.3203 C   0  0  0  0  0  0  0  0  0  0  0  0
   16.3821   84.3974   69.7022 C   0  0  0  0  0  0  0  0  0  0  0  0
   18.8832   83.4154   69.1780 C   0  0  0  0  0  3  0  0  0  0  0  0
   16.9890   83.4983   70.5758 C   0  0  0  0  0  3  0  0  0  0  0  0
   18.2471   82.9968   70.3234 C   0  0  0  0  0  3  0  0  0  0  0  0
   19.1961   84.7628   66.8887 Cl  0  0  0  0  0  0  0  0  0  0  0  0
   15.1186   84.8270   70.0546 O   0  0  0  0  0  0  0  0  0  0  0  0
   14.0512   83.9798   69.5788 C   0  0  0  0  0  2  0  0  0  0  0  0
   13.8619   82.7862   70.4620 C   0  0  0  0  0  3  0  0  0  0  0  0
   13.7265   82.9672   71.9421 C   0  0  0  0  0  2  0  0  0  0  0  0
   12.4392   82.7488   71.1087 C   0  0  0  0  0  2  0  0  0  0  0  0
   14.8775   87.4318   66.6674 C   0  0  0  0  0  3  0  0  0  0  0  0
   13.9465   86.8112   65.6828 C   0  0  0  0  0  1  0  0  0  0  0  0
   15.5938   85.7775   68.4321 *   0  0  0  0  0  0  0  0  0  0  0  0
   14.4266   88.7283   67.2160 C   0  0  0  0  0  0  0  0  0  0  0  0
   14.5700   89.9089   66.4390 N   0  0  0  0  0  0  0  0  0  0  0  0
   13.9068   88.8149   68.3811 O   0  0  0  0  0  0  0  0  0  0  0  0
   14.1302   91.1915   66.9675 C   0  0  0  0  0  1  0  0  0  0  0  0
   15.5938   85.7775   68.4321 *   0  0  0  0  0  0  0  0  0  0  0  0
  1  2  2  0
  2  3  1  0
  3 16  1  0
  4  5  2  0
  4  2  1  0
  5 10  1  0
  6  4  1  0
  7  5  1  0
  8  6  2  0
  8  9  1  0
  9  7  2  0
 11  6  1  0
 12 11  1  0
 13 14  1  0
 13 12  1  0
 15 13  1  0
 15 14  1  0
 16 17  1  0
 16 19  1  0
 19 21  2  0
 19 20  1  0
 22 20  1  0
M  RAD  8   7   2   8   2   9   2  12   3  13   2  14   3  15   3  16   2
M  RAD  2  17   2  22   2
V   18 *
V   23 *
M  END
>  <REMARK>  (1) 
 SMILES O=C(NC1CCCCNC1=O)c1c(Cl)cccc1OCC1CC1
 SMILES IDX 1 1 2 2 3 3 12 5 13 6 18 7 15 8 17 9 16 10 14 11 19 12 20 13
 SMILES IDX 21 14 22 15 23 16 4 17 5 18 6 19 10 21 9 22 11 23 8 25 7 26
 H PARENT 3 4 9 24
 Flexibility Score:   36.900

>  <TORSDO>  (1) 
F 5

$$$$
