/home/pchatterjee/Documents/git/vs_workflow/DiffDock/diffdock_run/pdbqt_scrubbed/Z2992988213.pdbqt
     RDKit          3D

 23 22  0  0  1  0  0  0  0  0999 V2000
   12.8504   59.3556   86.8014 O   0  0  0  0  0  0  0  0  0  0  0  0
   12.7628   60.1042   85.7786 C   0  0  0  0  0  0  0  0  0  0  0  0
   12.4306   59.4616   84.5682 N   0  0  0  0  0  0  0  0  0  0  0  0
   13.0132   61.5086   85.9701 C   0  0  0  0  0  0  0  0  0  0  0  0
   13.5411   61.9036   87.1996 C   0  0  0  0  0  0  0  0  0  0  0  0
   12.7838   62.5067   85.0640 C   0  0  0  0  0  0  0  0  0  0  0  0
   13.8207   63.2203   87.4950 C   0  0  0  0  0  3  0  0  0  0  0  0
   13.0635   63.8403   85.3523 C   0  0  0  0  0  3  0  0  0  0  0  0
   13.5855   64.2124   86.5718 C   0  0  0  0  0  3  0  0  0  0  0  0
   13.8891   60.7299   88.4683 Cl  0  0  0  0  0  0  0  0  0  0  0  0
   12.2576   62.2537   83.8133 O   0  0  0  0  0  0  0  0  0  0  0  0
   10.8184   62.3436   83.7474 C   0  0  0  0  0  2  0  0  0  0  0  0
   10.3617   63.7636   83.6223 C   0  0  0  0  0  3  0  0  0  0  0  0
   10.9605   64.6505   82.5750 C   0  0  0  0  0  2  0  0  0  0  0  0
    9.5748   64.0170   82.2955 C   0  0  0  0  0  2  0  0  0  0  0  0
   12.1968   58.0314   84.5089 C   0  0  0  0  0  3  0  0  0  0  0  0
   10.7799   57.6291   84.7364 C   0  0  0  0  0  1  0  0  0  0  0  0
   12.4862   60.5319   84.6761 *   0  0  0  0  0  0  0  0  0  0  0  0
   12.8250   57.4392   83.3088 C   0  0  0  0  0  0  0  0  0  0  0  0
   13.2839   56.0953   83.3458 N   0  0  0  0  0  0  0  0  0  0  0  0
   12.9670   58.1110   82.2301 O   0  0  0  0  0  0  0  0  0  0  0  0
   13.9040   55.5005   82.1714 C   0  0  0  0  0  1  0  0  0  0  0  0
   12.4862   60.5319   84.6761 *   0  0  0  0  0  0  0  0  0  0  0  0
  1  2  2  0
  2  3  1  0
  3 16  1  0
  4  5  2  0
  4  2  1  0
  5 10  1  0
  6  4  1  0
  7  5  1  0
  8  6  2  0
  8  9  1  0
  9  7  2  0
 11  6  1  0
 12 11  1  0
 13 14  1  0
 13 12  1  0
 15 13  1  0
 15 14  1  0
 16 17  1  0
 16 19  1  0
 19 21  2  0
 19 20  1  0
 22 20  1  0
M  RAD  8   7   2   8   2   9   2  12   3  13   2  14   3  15   3  16   2
M  RAD  2  17   2  22   2
V   18 *
V   23 *
M  END
>  <REMARK>  (1) 
 SMILES O=C(NC1CCCCNC1=O)c1c(Cl)cccc1OCC1CC1
 SMILES IDX 1 1 2 2 3 3 12 5 13 6 18 7 15 8 17 9 16 10 14 11 19 12 20 13
 SMILES IDX 21 14 22 15 23 16 4 17 5 18 6 19 10 21 9 22 11 23 8 25 7 26
 H PARENT 3 4 9 24
 Flexibility Score:   36.900

>  <TORSDO>  (1) 
F 5

$$$$
