/home/pchatterjee/Documents/git/vs_workflow/DiffDock/diffdock_run/pdbqt_scrubbed/Z2992988213.pdbqt
     RDKit          3D

 23 22  0  0  1  0  0  0  0  0999 V2000
    9.8496   62.5934   83.1886 O   0  0  0  0  0  0  0  0  0  0  0  0
   10.4902   63.6896   83.2349 C   0  0  0  0  0  0  0  0  0  0  0  0
   11.8955   63.5833   83.2817 N   0  0  0  0  0  0  0  0  0  0  0  0
    9.7156   64.9026   83.2373 C   0  0  0  0  0  0  0  0  0  0  0  0
    8.3363   64.7819   83.4089 C   0  0  0  0  0  0  0  0  0  0  0  0
   10.1950   66.1743   83.0855 C   0  0  0  0  0  0  0  0  0  0  0  0
    7.4956   65.8737   83.4276 C   0  0  0  0  0  3  0  0  0  0  0  0
    9.3540   67.2844   83.1037 C   0  0  0  0  0  3  0  0  0  0  0  0
    7.9940   67.1466   83.2750 C   0  0  0  0  0  3  0  0  0  0  0  0
    7.5720   63.2067   83.6160 Cl  0  0  0  0  0  0  0  0  0  0  0  0
   11.5381   66.4334   82.9006 O   0  0  0  0  0  0  0  0  0  0  0  0
   11.9446   66.4922   81.5168 C   0  0  0  0  0  2  0  0  0  0  0  0
   11.6319   67.8236   80.9084 C   0  0  0  0  0  3  0  0  0  0  0  0
   12.0587   69.0799   81.6024 C   0  0  0  0  0  2  0  0  0  0  0  0
   12.9173   68.5669   80.4195 C   0  0  0  0  0  2  0  0  0  0  0  0
   12.5588   62.2935   83.2688 C   0  0  0  0  0  3  0  0  0  0  0  0
   12.8887   61.7845   81.9074 C   0  0  0  0  0  1  0  0  0  0  0  0
   11.3748   64.5186   83.1620 *   0  0  0  0  0  0  0  0  0  0  0  0
   13.6803   62.2625   84.2315 C   0  0  0  0  0  0  0  0  0  0  0  0
   14.0411   61.0365   84.8516 N   0  0  0  0  0  0  0  0  0  0  0  0
   14.3388   63.3193   84.5225 O   0  0  0  0  0  0  0  0  0  0  0  0
   15.1430   60.9924   85.8011 C   0  0  0  0  0  1  0  0  0  0  0  0
   11.3748   64.5186   83.1620 *   0  0  0  0  0  0  0  0  0  0  0  0
  1  2  2  0
  2  3  1  0
  3 16  1  0
  4  5  2  0
  4  2  1  0
  5 10  1  0
  6  4  1  0
  7  5  1  0
  8  6  2  0
  8  9  1  0
  9  7  2  0
 11  6  1  0
 12 11  1  0
 13 14  1  0
 13 12  1  0
 15 13  1  0
 15 14  1  0
 16 17  1  0
 16 19  1  0
 19 21  2  0
 19 20  1  0
 22 20  1  0
M  RAD  8   7   2   8   2   9   2  12   3  13   2  14   3  15   3  16   2
M  RAD  2  17   2  22   2
V   18 *
V   23 *
M  END
>  <REMARK>  (1) 
 SMILES O=C(NC1CCCCNC1=O)c1c(Cl)cccc1OCC1CC1
 SMILES IDX 1 1 2 2 3 3 12 5 13 6 18 7 15 8 17 9 16 10 14 11 19 12 20 13
 SMILES IDX 21 14 22 15 23 16 4 17 5 18 6 19 10 21 9 22 11 23 8 25 7 26
 H PARENT 3 4 9 24
 Flexibility Score:   36.900

>  <TORSDO>  (1) 
F 5

$$$$
