/home/pchatterjee/Documents/git/vs_workflow/DiffDock/diffdock_run/pdbqt_scrubbed/Z2992988213.pdbqt
     RDKit          3D

 23 22  0  0  1  0  0  0  0  0999 V2000
    8.6668   43.4179   50.1553 O   0  0  0  0  0  0  0  0  0  0  0  0
    7.6287   44.0402   50.5418 C   0  0  0  0  0  0  0  0  0  0  0  0
    6.3933   43.4367   50.2289 N   0  0  0  0  0  0  0  0  0  0  0  0
    7.8305   45.2794   51.2454 C   0  0  0  0  0  0  0  0  0  0  0  0
    9.1220   45.8069   51.2567 C   0  0  0  0  0  0  0  0  0  0  0  0
    6.8791   46.0003   51.9126 C   0  0  0  0  0  0  0  0  0  0  0  0
    9.4330   46.9863   51.8983 C   0  0  0  0  0  3  0  0  0  0  0  0
    7.1828   47.1936   52.5635 C   0  0  0  0  0  3  0  0  0  0  0  0
    8.4639   47.7004   52.5637 C   0  0  0  0  0  3  0  0  0  0  0  0
   10.4540   44.9896   50.4406 Cl  0  0  0  0  0  0  0  0  0  0  0  0
    5.5641   45.5871   51.9851 O   0  0  0  0  0  0  0  0  0  0  0  0
    5.2603   44.7801   53.1427 C   0  0  0  0  0  2  0  0  0  0  0  0
    5.0332   45.6250   54.3572 C   0  0  0  0  0  3  0  0  0  0  0  0
    4.0812   46.7792   54.2959 C   0  0  0  0  0  2  0  0  0  0  0  0
    3.5900   45.4558   54.9338 C   0  0  0  0  0  2  0  0  0  0  0  0
    6.3249   42.1759   49.5150 C   0  0  0  0  0  3  0  0  0  0  0  0
    6.3240   40.9710   50.3922 C   0  0  0  0  0  1  0  0  0  0  0  0
    6.4872   44.3014   50.8641 *   0  0  0  0  0  0  0  0  0  0  0  0
    5.2569   42.2006   48.4932 C   0  0  0  0  0  0  0  0  0  0  0  0
    5.3960   41.4242   47.3116 N   0  0  0  0  0  0  0  0  0  0  0  0
    4.2031   42.9083   48.6469 O   0  0  0  0  0  0  0  0  0  0  0  0
    4.3520   41.4396   46.2980 C   0  0  0  0  0  1  0  0  0  0  0  0
    6.4872   44.3014   50.8641 *   0  0  0  0  0  0  0  0  0  0  0  0
  1  2  2  0
  2  3  1  0
  3 16  1  0
  4  5  2  0
  4  2  1  0
  5 10  1  0
  6  4  1  0
  7  5  1  0
  8  6  2  0
  8  9  1  0
  9  7  2  0
 11  6  1  0
 12 11  1  0
 13 14  1  0
 13 12  1  0
 15 13  1  0
 15 14  1  0
 16 17  1  0
 16 19  1  0
 19 21  2  0
 19 20  1  0
 22 20  1  0
M  RAD  8   7   2   8   2   9   2  12   3  13   2  14   3  15   3  16   2
M  RAD  2  17   2  22   2
V   18 *
V   23 *
M  END
>  <REMARK>  (1) 
 SMILES O=C(NC1CCCCNC1=O)c1c(Cl)cccc1OCC1CC1
 SMILES IDX 1 1 2 2 3 3 12 5 13 6 18 7 15 8 17 9 16 10 14 11 19 12 20 13
 SMILES IDX 21 14 22 15 23 16 4 17 5 18 6 19 10 21 9 22 11 23 8 25 7 26
 H PARENT 3 4 9 24
 Flexibility Score:   36.900

>  <TORSDO>  (1) 
F 5

$$$$
