/home/pchatterjee/Documents/git/vs_workflow/DiffDock/diffdock_run/pdbqt_scrubbed/Z2992988213.pdbqt
     RDKit          3D

 23 22  0  0  1  0  0  0  0  0999 V2000
   12.9723   83.3514   69.6819 O   0  0  0  0  0  0  0  0  0  0  0  0
   13.0708   84.0775   70.7199 C   0  0  0  0  0  0  0  0  0  0  0  0
   12.1527   85.1432   70.8187 N   0  0  0  0  0  0  0  0  0  0  0  0
   14.1000   83.7341   71.6656 C   0  0  0  0  0  0  0  0  0  0  0  0
   15.0396   82.7808   71.2722 C   0  0  0  0  0  0  0  0  0  0  0  0
   14.2537   84.2487   72.9232 C   0  0  0  0  0  0  0  0  0  0  0  0
   16.0684   82.3743   72.0940 C   0  0  0  0  0  3  0  0  0  0  0  0
   15.2904   83.8452   73.7613 C   0  0  0  0  0  3  0  0  0  0  0  0
   16.2100   82.9029   73.3560 C   0  0  0  0  0  3  0  0  0  0  0  0
   14.9705   82.0272   69.6799 Cl  0  0  0  0  0  0  0  0  0  0  0  0
   13.3895   85.1936   73.4385 O   0  0  0  0  0  0  0  0  0  0  0  0
   12.2825   84.6405   74.1816 C   0  0  0  0  0  2  0  0  0  0  0  0
   12.6824   84.2837   75.5792 C   0  0  0  0  0  3  0  0  0  0  0  0
   13.3962   85.2877   76.4304 C   0  0  0  0  0  2  0  0  0  0  0  0
   11.8756   85.0890   76.6489 C   0  0  0  0  0  2  0  0  0  0  0  0
   11.1546   85.3811   69.7936 C   0  0  0  0  0  3  0  0  0  0  0  0
    9.8622   84.6731   70.0166 C   0  0  0  0  0  1  0  0  0  0  0  0
   12.8206   84.8596   71.6147 *   0  0  0  0  0  0  0  0  0  0  0  0
   11.0288   86.8242   69.4984 C   0  0  0  0  0  0  0  0  0  0  0  0
   10.6515   87.2452   68.1952 N   0  0  0  0  0  0  0  0  0  0  0  0
   11.2526   87.7099   70.3932 O   0  0  0  0  0  0  0  0  0  0  0  0
   10.5241   88.6628   67.8917 C   0  0  0  0  0  1  0  0  0  0  0  0
   12.8206   84.8596   71.6147 *   0  0  0  0  0  0  0  0  0  0  0  0
  1  2  2  0
  2  3  1  0
  3 16  1  0
  4  5  2  0
  4  2  1  0
  5 10  1  0
  6  4  1  0
  7  5  1  0
  8  6  2  0
  8  9  1  0
  9  7  2  0
 11  6  1  0
 12 11  1  0
 13 14  1  0
 13 12  1  0
 15 13  1  0
 15 14  1  0
 16 17  1  0
 16 19  1  0
 19 21  2  0
 19 20  1  0
 22 20  1  0
M  RAD  8   7   2   8   2   9   2  12   3  13   2  14   3  15   3  16   2
M  RAD  2  17   2  22   2
V   18 *
V   23 *
M  END
>  <REMARK>  (1) 
 SMILES O=C(NC1CCCCNC1=O)c1c(Cl)cccc1OCC1CC1
 SMILES IDX 1 1 2 2 3 3 12 5 13 6 18 7 15 8 17 9 16 10 14 11 19 12 20 13
 SMILES IDX 21 14 22 15 23 16 4 17 5 18 6 19 10 21 9 22 11 23 8 25 7 26
 H PARENT 3 4 9 24
 Flexibility Score:   36.900

>  <TORSDO>  (1) 
F 5

$$$$
