/home/pchatterjee/Documents/git/vs_workflow/DiffDock/diffdock_run/pdbqt_scrubbed/Z2992988213.pdbqt
     RDKit          3D

  0  0  0  0  0  0  0  0  0  0999 V3000
M  V30 BEGIN CTAB
M  V30 COUNTS 23 22 0 0 1
M  V30 BEGIN ATOM
M  V30 1 O -2233064448.000000 -1797585408.000000 1747528192.000000 0
M  V30 2 C -2233064448.000000 -1797585408.000000 1747528192.000000 0
M  V30 3 N -2233064448.000000 -1797585408.000000 1747528192.000000 0
M  V30 4 C -2233064448.000000 -1797585408.000000 1747528192.000000 0
M  V30 5 C -2233064448.000000 -1797585408.000000 1747528192.000000 0
M  V30 6 C -2233064448.000000 -1797585408.000000 1747528192.000000 0
M  V30 7 C -2233064448.000000 -1797585408.000000 1747528192.000000 0 RAD=2 VAL=3
M  V30 8 C -2233064448.000000 -1797585408.000000 1747528192.000000 0 RAD=2 VAL=3
M  V30 9 C -2233064448.000000 -1797585408.000000 1747528192.000000 0 RAD=2 VAL=3
M  V30 10 Cl -2233064448.000000 -1797585408.000000 1747528192.000000 0
M  V30 11 O -2233064448.000000 -1797585408.000000 1747528192.000000 0
M  V30 12 C -2233064448.000000 -1797585408.000000 1747528192.000000 0 RAD=3 VAL=2
M  V30 13 C -2233064448.000000 -1797585408.000000 1747528192.000000 0 RAD=2 VAL=3
M  V30 14 C -2233064448.000000 -1797585408.000000 1747528192.000000 0 RAD=3 VAL=2
M  V30 15 C -2233064448.000000 -1797585408.000000 1747528192.000000 0 RAD=3 VAL=2
M  V30 16 C -2233064448.000000 -1797585408.000000 1747528192.000000 0 RAD=2 VAL=3
M  V30 17 C -2233064448.000000 -1797585408.000000 1747528192.000000 0 RAD=2 VAL=1
M  V30 18 * -2233064448.000000 -1797585408.000000 1747528192.000000 0
M  V30 19 C -2233064448.000000 -1797585408.000000 1747528192.000000 0
M  V30 20 N -2233064448.000000 -1797585408.000000 1747528192.000000 0
M  V30 21 O -2233064448.000000 -1797585408.000000 1747528192.000000 0
M  V30 22 C -2233064448.000000 -1797585408.000000 1747528192.000000 0 RAD=2 VAL=1
M  V30 23 * -2233064448.000000 -1797585408.000000 1747528192.000000 0
M  V30 END ATOM
M  V30 BEGIN BOND
M  V30 1 2 1 2
M  V30 2 1 2 3
M  V30 3 1 3 16
M  V30 4 2 4 5
M  V30 5 1 4 2
M  V30 6 1 5 10
M  V30 7 1 6 4
M  V30 8 1 7 5
M  V30 9 2 8 6
M  V30 10 1 8 9
M  V30 11 2 9 7
M  V30 12 1 11 6
M  V30 13 1 12 11
M  V30 14 1 13 14
M  V30 15 1 13 12
M  V30 16 1 15 13
M  V30 17 1 15 14
M  V30 18 1 16 17
M  V30 19 1 16 19
M  V30 20 2 19 21
M  V30 21 1 19 20
M  V30 22 1 22 20
M  V30 END BOND
M  V30 END CTAB
M  END
>  <REMARK>  (1) 
 SMILES O=C(NC1CCCCNC1=O)c1c(Cl)cccc1OCC1CC1
 SMILES IDX 1 1 2 2 3 3 12 5 13 6 18 7 15 8 17 9 16 10 14 11 19 12 20 13
 SMILES IDX 21 14 22 15 23 16 4 17 5 18 6 19 10 21 9 22 11 23 8 25 7 26
 H PARENT 3 4 9 24
 Flexibility Score:   36.900

>  <TORSDO>  (1) 
F 5

$$$$
