/home/pchatterjee/Documents/git/vs_workflow/DiffDock/diffdock_run/pdbqt_scrubbed/Z2992988213.pdbqt
     RDKit          3D

 23 22  0  0  1  0  0  0  0  0999 V2000
   17.8528   85.5531   67.7606 O   0  0  0  0  0  0  0  0  0  0  0  0
   16.8074   85.6082   68.4806 C   0  0  0  0  0  0  0  0  0  0  0  0
   15.9638   86.7169   68.2625 N   0  0  0  0  0  0  0  0  0  0  0  0
   16.6072   84.5445   69.4292 C   0  0  0  0  0  0  0  0  0  0  0  0
   17.6692   83.6642   69.6384 C   0  0  0  0  0  0  0  0  0  0  0  0
   15.4725   84.3029   70.1532 C   0  0  0  0  0  0  0  0  0  0  0  0
   17.5916   82.6094   70.5220 C   0  0  0  0  0  3  0  0  0  0  0  0
   15.3841   83.2403   71.0492 C   0  0  0  0  0  3  0  0  0  0  0  0
   16.4432   82.3810   71.2439 C   0  0  0  0  0  3  0  0  0  0  0  0
   19.1962   83.8474   68.7766 Cl  0  0  0  0  0  0  0  0  0  0  0  0
   14.3470   85.0933   70.0361 O   0  0  0  0  0  0  0  0  0  0  0  0
   13.3968   84.6283   69.0541 C   0  0  0  0  0  2  0  0  0  0  0  0
   12.5363   83.5312   69.5986 C   0  0  0  0  0  3  0  0  0  0  0  0
   11.8411   83.7105   70.9126 C   0  0  0  0  0  2  0  0  0  0  0  0
   11.0222   83.9197   69.6144 C   0  0  0  0  0  2  0  0  0  0  0  0
   16.2776   87.7236   67.2666 C   0  0  0  0  0  3  0  0  0  0  0  0
   15.7220   87.4439   65.9122 C   0  0  0  0  0  1  0  0  0  0  0  0
   15.7021   85.8883   68.8989 *   0  0  0  0  0  0  0  0  0  0  0  0
   16.0057   89.0829   67.7803 C   0  0  0  0  0  0  0  0  0  0  0  0
   16.7780   90.1793   67.3118 N   0  0  0  0  0  0  0  0  0  0  0  0
   15.0862   89.2984   68.6423 O   0  0  0  0  0  0  0  0  0  0  0  0
   16.5205   91.5223   67.8095 C   0  0  0  0  0  1  0  0  0  0  0  0
   15.7021   85.8883   68.8989 *   0  0  0  0  0  0  0  0  0  0  0  0
  1  2  2  0
  2  3  1  0
  3 16  1  0
  4  5  2  0
  4  2  1  0
  5 10  1  0
  6  4  1  0
  7  5  1  0
  8  6  2  0
  8  9  1  0
  9  7  2  0
 11  6  1  0
 12 11  1  0
 13 14  1  0
 13 12  1  0
 15 13  1  0
 15 14  1  0
 16 17  1  0
 16 19  1  0
 19 21  2  0
 19 20  1  0
 22 20  1  0
M  RAD  8   7   2   8   2   9   2  12   3  13   2  14   3  15   3  16   2
M  RAD  2  17   2  22   2
V   18 *
V   23 *
M  END
>  <REMARK>  (1) 
 SMILES O=C(NC1CCCCNC1=O)c1c(Cl)cccc1OCC1CC1
 SMILES IDX 1 1 2 2 3 3 12 5 13 6 18 7 15 8 17 9 16 10 14 11 19 12 20 13
 SMILES IDX 21 14 22 15 23 16 4 17 5 18 6 19 10 21 9 22 11 23 8 25 7 26
 H PARENT 3 4 9 24
 Flexibility Score:   36.900

>  <TORSDO>  (1) 
F 5

$$$$
