/home/pchatterjee/Documents/git/vs_workflow/DiffDock/diffdock_run/pdbqt_scrubbed/Z2992988213.pdbqt
     RDKit          3D

 23 22  0  0  1  0  0  0  0  0999 V2000
   13.7353   85.3345   71.1285 O   0  0  0  0  0  0  0  0  0  0  0  0
   14.7333   85.4540   70.3513 C   0  0  0  0  0  0  0  0  0  0  0  0
   14.8007   86.6523   69.6110 N   0  0  0  0  0  0  0  0  0  0  0  0
   15.6701   84.3621   70.3136 C   0  0  0  0  0  0  0  0  0  0  0  0
   15.3023   83.1797   70.9565 C   0  0  0  0  0  0  0  0  0  0  0  0
   16.8965   84.3629   69.7087 C   0  0  0  0  0  0  0  0  0  0  0  0
   16.1186   82.0697   70.9857 C   0  0  0  0  0  3  0  0  0  0  0  0
   17.7287   83.2463   69.7319 C   0  0  0  0  0  3  0  0  0  0  0  0
   17.3489   82.0864   70.3710 C   0  0  0  0  0  3  0  0  0  0  0  0
   13.7515   83.0280   71.7812 Cl  0  0  0  0  0  0  0  0  0  0  0  0
   17.3846   85.4699   69.0443 O   0  0  0  0  0  0  0  0  0  0  0  0
   18.1804   86.3503   69.8661 C   0  0  0  0  0  2  0  0  0  0  0  0
   19.5841   85.8501   70.0077 C   0  0  0  0  0  3  0  0  0  0  0  0
   20.3671   85.4697   68.7894 C   0  0  0  0  0  2  0  0  0  0  0  0
   20.6314   86.8558   69.4283 C   0  0  0  0  0  2  0  0  0  0  0  0
   13.7891   87.6832   69.7439 C   0  0  0  0  0  3  0  0  0  0  0  0
   14.0777   88.6968   70.7978 C   0  0  0  0  0  1  0  0  0  0  0  0
   15.5937   85.9238   69.6344 *   0  0  0  0  0  0  0  0  0  0  0  0
   13.4256   88.2448   68.4256 C   0  0  0  0  0  0  0  0  0  0  0  0
   12.1124   88.7422   68.2109 N   0  0  0  0  0  0  0  0  0  0  0  0
   14.2696   88.2946   67.4663 O   0  0  0  0  0  0  0  0  0  0  0  0
   11.7419   89.2976   66.9179 C   0  0  0  0  0  1  0  0  0  0  0  0
   15.5937   85.9238   69.6344 *   0  0  0  0  0  0  0  0  0  0  0  0
  1  2  2  0
  2  3  1  0
  3 16  1  0
  4  5  2  0
  4  2  1  0
  5 10  1  0
  6  4  1  0
  7  5  1  0
  8  6  2  0
  8  9  1  0
  9  7  2  0
 11  6  1  0
 12 11  1  0
 13 14  1  0
 13 12  1  0
 15 13  1  0
 15 14  1  0
 16 17  1  0
 16 19  1  0
 19 21  2  0
 19 20  1  0
 22 20  1  0
M  RAD  8   7   2   8   2   9   2  12   3  13   2  14   3  15   3  16   2
M  RAD  2  17   2  22   2
V   18 *
V   23 *
M  END
>  <REMARK>  (1) 
 SMILES O=C(NC1CCCCNC1=O)c1c(Cl)cccc1OCC1CC1
 SMILES IDX 1 1 2 2 3 3 12 5 13 6 18 7 15 8 17 9 16 10 14 11 19 12 20 13
 SMILES IDX 21 14 22 15 23 16 4 17 5 18 6 19 10 21 9 22 11 23 8 25 7 26
 H PARENT 3 4 9 24
 Flexibility Score:   36.900

>  <TORSDO>  (1) 
F 5

$$$$
