/home/pchatterjee/Documents/git/vs_workflow/DiffDock/diffdock_run/pdbqt_scrubbed/Z2992988213.pdbqt
     RDKit          3D

 23 22  0  0  1  0  0  0  0  0999 V2000
    4.7292   45.6747   50.5503 O   0  0  0  0  0  0  0  0  0  0  0  0
    5.6045   45.6096   51.4690 C   0  0  0  0  0  0  0  0  0  0  0  0
    6.6557   44.6937   51.2580 N   0  0  0  0  0  0  0  0  0  0  0  0
    5.4229   46.4676   52.6102 C   0  0  0  0  0  0  0  0  0  0  0  0
    4.2030   47.1350   52.7225 C   0  0  0  0  0  0  0  0  0  0  0  0
    6.3314   46.7009   53.6053 C   0  0  0  0  0  0  0  0  0  0  0  0
    3.9177   47.9817   53.7718 C   0  0  0  0  0  3  0  0  0  0  0  0
    6.0528   47.5541   54.6703 C   0  0  0  0  0  3  0  0  0  0  0  0
    4.8421   48.2045   54.7657 C   0  0  0  0  0  3  0  0  0  0  0  0
    2.9332   46.9349   51.5160 Cl  0  0  0  0  0  0  0  0  0  0  0  0
    7.5787   46.1098   53.6115 O   0  0  0  0  0  0  0  0  0  0  0  0
    8.6080   46.8927   52.9702 C   0  0  0  0  0  2  0  0  0  0  0  0
    9.1374   47.9559   53.8813 C   0  0  0  0  0  3  0  0  0  0  0  0
    9.5791   47.5992   55.2668 C   0  0  0  0  0  2  0  0  0  0  0  0
   10.6626   47.7780   54.1743 C   0  0  0  0  0  2  0  0  0  0  0  0
    6.7270   43.8857   50.0557 C   0  0  0  0  0  3  0  0  0  0  0  0
    7.4819   44.5147   48.9350 C   0  0  0  0  0  1  0  0  0  0  0  0
    6.6366   45.3978   52.0730 *   0  0  0  0  0  0  0  0  0  0  0  0
    7.1260   42.4975   50.3707 C   0  0  0  0  0  0  0  0  0  0  0  0
    6.6665   41.4309   49.5527 N   0  0  0  0  0  0  0  0  0  0  0  0
    7.8799   42.2304   51.3683 O   0  0  0  0  0  0  0  0  0  0  0  0
    7.0519   40.0599   49.8519 C   0  0  0  0  0  1  0  0  0  0  0  0
    6.6366   45.3978   52.0730 *   0  0  0  0  0  0  0  0  0  0  0  0
  1  2  2  0
  2  3  1  0
  3 16  1  0
  4  5  2  0
  4  2  1  0
  5 10  1  0
  6  4  1  0
  7  5  1  0
  8  6  2  0
  8  9  1  0
  9  7  2  0
 11  6  1  0
 12 11  1  0
 13 14  1  0
 13 12  1  0
 15 13  1  0
 15 14  1  0
 16 17  1  0
 16 19  1  0
 19 21  2  0
 19 20  1  0
 22 20  1  0
M  RAD  8   7   2   8   2   9   2  12   3  13   2  14   3  15   3  16   2
M  RAD  2  17   2  22   2
V   18 *
V   23 *
M  END
>  <REMARK>  (1) 
 SMILES O=C(NC1CCCCNC1=O)c1c(Cl)cccc1OCC1CC1
 SMILES IDX 1 1 2 2 3 3 12 5 13 6 18 7 15 8 17 9 16 10 14 11 19 12 20 13
 SMILES IDX 21 14 22 15 23 16 4 17 5 18 6 19 10 21 9 22 11 23 8 25 7 26
 H PARENT 3 4 9 24
 Flexibility Score:   36.900

>  <TORSDO>  (1) 
F 5

$$$$
