/home/pchatterjee/Documents/git/vs_workflow/DiffDock/diffdock_run/pdbqt_scrubbed/Z94803042.pdbqt
     RDKit          3D

 26 29  0  0  1  0  0  0  0  0999 V2000
   13.9923   61.5987   85.8375 C   0  0  0  0  0  0  0  0  0  0  0  0
   14.4485   61.3806   84.5692 C   0  0  0  0  0  3  0  0  0  0  0  0
   14.4989   62.3890   83.6518 C   0  0  0  0  0  3  0  0  0  0  0  0
   14.0798   63.6502   84.0186 C   0  0  0  0  0  0  0  0  0  0  0  0
   13.6180   63.8654   85.3070 C   0  0  0  0  0  3  0  0  0  0  0  0
   13.5670   62.8345   86.2430 C   0  0  0  0  0  3  0  0  0  0  0  0
   13.9644   60.4770   86.7697 C   0  0  0  0  0  0  0  0  0  0  0  0
   13.4869   60.5874   88.1048 N   0  0  0  0  0  0  0  0  0  0  0  0
   14.3823   59.3563   86.3761 O   0  0  0  0  0  0  0  0  0  0  0  0
   14.1337   64.6875   83.0683 N   0  0  0  0  0  0  0  0  0  0  0  0
   13.0087   65.5011   82.7575 C   0  0  0  0  0  0  0  0  0  0  0  0
   11.9280   65.3752   83.4375 N   0  0  0  0  0  0  0  0  0  0  0  0
   13.1211   66.4500   81.6773 N   0  0  0  0  0  2  0  0  0  0  0  0
   10.7423   66.1389   83.2109 C   0  0  0  0  0  3  0  0  0  0  0  0
   12.0045   67.2642   81.3614 C   0  0  0  0  0  0  0  0  0  0  0  0
   10.8646   67.1082   82.1038 C   0  0  0  0  0  0  0  0  0  0  0  0
   12.0022   68.2024   80.3507 C   0  0  0  0  0  3  0  0  0  0  0  0
    9.7663   67.8892   81.8146 C   0  0  0  0  0  3  0  0  0  0  0  0
   10.9105   68.9903   80.0506 C   0  0  0  0  0  3  0  0  0  0  0  0
    9.7739   68.8149   80.8122 C   0  0  0  0  0  3  0  0  0  0  0  0
    9.5177   65.3441   83.0071 C   0  0  0  0  0  0  0  0  0  0  0  0
    9.4029   64.1514   83.6939 C   0  0  0  0  0  3  0  0  0  0  0  0
    8.4822   65.7110   82.1789 C   0  0  0  0  0  3  0  0  0  0  0  0
    8.2950   63.3303   83.5738 C   0  0  0  0  0  3  0  0  0  0  0  0
    7.3633   64.8894   82.0529 C   0  0  0  0  0  3  0  0  0  0  0  0
    7.2554   63.6984   82.7425 C   0  0  0  0  0  3  0  0  0  0  0  0
  1  7  1  0
  2  1  2  0
  3  2  1  0
  4  3  2  0
  4  5  1  0
  5  6  2  0
  6  1  1  0
  7  8  1  0
  7  9  2  0
 10  4  1  0
 11 10  1  0
 12 11  2  0
 13 11  1  0
 14 21  1  0
 14 12  1  0
 15 13  1  0
 16 15  2  0
 16 14  1  0
 17 15  1  0
 18 16  1  0
 19 17  2  0
 20 19  1  0
 20 18  2  0
 21 22  2  0
 23 21  1  0
 24 22  1  0
 25 23  2  0
 25 26  1  0
 26 24  2  0
M  RAD  8   2   2   3   2   5   2   6   2  13   2  14   2  17   2  18   2
M  RAD  7  19   2  20   2  22   2  23   2  24   2  25   2  26   2
M  END
>  <REMARK>  (1) 
 SMILES NC(=O)c1ccc(Nc2nc(-c3ccccc3)c3ccccc3n2)cc1
 SMILES IDX 4 1 5 2 6 3 7 4 25 5 26 6 2 7 1 8 3 11 8 12 9 14 10 15 24 16
 SMILES IDX 11 17 23 18 18 19 22 20 19 21 21 22 20 23 12 24 13 25 17 26
 SMILES IDX 14 27 16 28 15 29
 H PARENT 1 9 1 10 8 13

>  <TORSDO>  (1) 
F 4

$$$$
