/home/pchatterjee/Documents/git/vs_workflow/DiffDock/diffdock_run/pdbqt_scrubbed/Z94803042.pdbqt
     RDKit          3D

 26 29  0  0  1  0  0  0  0  0999 V2000
   11.4094   67.9327   81.6150 C   0  0  0  0  0  0  0  0  0  0  0  0
   10.1043   68.0096   81.2212 C   0  0  0  0  0  3  0  0  0  0  0  0
    9.2328   66.9864   81.4546 C   0  0  0  0  0  3  0  0  0  0  0  0
    9.6848   65.8556   82.1011 C   0  0  0  0  0  0  0  0  0  0  0  0
   11.0101   65.7832   82.4983 C   0  0  0  0  0  3  0  0  0  0  0  0
   11.8991   66.8291   82.2592 C   0  0  0  0  0  3  0  0  0  0  0  0
   12.2889   69.0622   81.3346 C   0  0  0  0  0  0  0  0  0  0  0  0
   11.8728   70.2087   80.6033 N   0  0  0  0  0  0  0  0  0  0  0  0
   13.4737   69.0227   81.7592 O   0  0  0  0  0  0  0  0  0  0  0  0
    8.7816   64.8024   82.3397 N   0  0  0  0  0  0  0  0  0  0  0  0
    9.2091   63.4888   82.6803 C   0  0  0  0  0  0  0  0  0  0  0  0
   10.3676   63.3149   83.2034 N   0  0  0  0  0  0  0  0  0  0  0  0
    8.3172   62.3849   82.4238 N   0  0  0  0  0  2  0  0  0  0  0  0
   10.8954   62.0427   83.5826 C   0  0  0  0  0  3  0  0  0  0  0  0
    8.7358   61.0731   82.7603 C   0  0  0  0  0  0  0  0  0  0  0  0
    9.9770   60.9175   83.3172 C   0  0  0  0  0  0  0  0  0  0  0  0
    7.9648   59.9477   82.5588 C   0  0  0  0  0  3  0  0  0  0  0  0
   10.4053   59.6510   83.6525 C   0  0  0  0  0  3  0  0  0  0  0  0
    8.3809   58.6749   82.8896 C   0  0  0  0  0  3  0  0  0  0  0  0
    9.6348   58.5434   83.4491 C   0  0  0  0  0  3  0  0  0  0  0  0
   12.2144   61.7187   83.0098 C   0  0  0  0  0  0  0  0  0  0  0  0
   12.9538   60.7240   83.6191 C   0  0  0  0  0  3  0  0  0  0  0  0
   12.7576   62.3407   81.9095 C   0  0  0  0  0  3  0  0  0  0  0  0
   14.2034   60.3429   83.1613 C   0  0  0  0  0  3  0  0  0  0  0  0
   14.0153   61.9624   81.4426 C   0  0  0  0  0  3  0  0  0  0  0  0
   14.7488   60.9671   82.0567 C   0  0  0  0  0  3  0  0  0  0  0  0
  1  7  1  0
  2  1  2  0
  3  2  1  0
  4  3  2  0
  4  5  1  0
  5  6  2  0
  6  1  1  0
  7  8  1  0
  7  9  2  0
 10  4  1  0
 11 10  1  0
 12 11  2  0
 13 11  1  0
 14 21  1  0
 14 12  1  0
 15 13  1  0
 16 15  2  0
 16 14  1  0
 17 15  1  0
 18 16  1  0
 19 17  2  0
 20 19  1  0
 20 18  2  0
 21 22  2  0
 23 21  1  0
 24 22  1  0
 25 23  2  0
 25 26  1  0
 26 24  2  0
M  RAD  8   2   2   3   2   5   2   6   2  13   2  14   2  17   2  18   2
M  RAD  7  19   2  20   2  22   2  23   2  24   2  25   2  26   2
M  END
>  <REMARK>  (1) 
 SMILES NC(=O)c1ccc(Nc2nc(-c3ccccc3)c3ccccc3n2)cc1
 SMILES IDX 4 1 5 2 6 3 7 4 25 5 26 6 2 7 1 8 3 11 8 12 9 14 10 15 24 16
 SMILES IDX 11 17 23 18 18 19 22 20 19 21 21 22 20 23 12 24 13 25 17 26
 SMILES IDX 14 27 16 28 15 29
 H PARENT 1 9 1 10 8 13

>  <TORSDO>  (1) 
F 4

$$$$
