/home/pchatterjee/Documents/git/vs_workflow/DiffDock/diffdock_run/pdbqt_scrubbed/Z94803042.pdbqt
     RDKit          3D

 26 29  0  0  1  0  0  0  0  0999 V2000
    4.8863   66.4347   84.4618 C   0  0  0  0  0  0  0  0  0  0  0  0
    4.7810   65.0746   84.4038 C   0  0  0  0  0  3  0  0  0  0  0  0
    5.8696   64.2901   84.1579 C   0  0  0  0  0  3  0  0  0  0  0  0
    7.0968   64.8881   83.9653 C   0  0  0  0  0  0  0  0  0  0  0  0
    7.1975   66.2686   84.0253 C   0  0  0  0  0  3  0  0  0  0  0  0
    6.0848   67.0687   84.2765 C   0  0  0  0  0  3  0  0  0  0  0  0
    3.6833   67.2154   84.7285 C   0  0  0  0  0  0  0  0  0  0  0  0
    3.6949   68.6269   84.9014 N   0  0  0  0  0  0  0  0  0  0  0  0
    2.5804   66.6132   84.8101 O   0  0  0  0  0  0  0  0  0  0  0  0
    8.2172   64.0741   83.7119 N   0  0  0  0  0  0  0  0  0  0  0  0
    9.5247   64.6051   83.5311 C   0  0  0  0  0  0  0  0  0  0  0  0
    9.6888   65.8755   83.4596 N   0  0  0  0  0  0  0  0  0  0  0  0
   10.6339   63.6885   83.4330 N   0  0  0  0  0  2  0  0  0  0  0  0
   10.9541   66.5136   83.2796 C   0  0  0  0  0  3  0  0  0  0  0  0
   11.9398   64.2097   83.2528 C   0  0  0  0  0  0  0  0  0  0  0  0
   12.0848   65.5693   83.1801 C   0  0  0  0  0  0  0  0  0  0  0  0
   13.0694   63.4259   83.1469 C   0  0  0  0  0  3  0  0  0  0  0  0
   13.3454   66.0987   83.0050 C   0  0  0  0  0  3  0  0  0  0  0  0
   14.3363   63.9423   82.9716 C   0  0  0  0  0  3  0  0  0  0  0  0
   14.4572   65.3145   82.9013 C   0  0  0  0  0  3  0  0  0  0  0  0
   11.0237   67.4521   82.1451 C   0  0  0  0  0  0  0  0  0  0  0  0
    9.8445   67.7718   81.5010 C   0  0  0  0  0  3  0  0  0  0  0  0
   12.1843   68.0304   81.6852 C   0  0  0  0  0  3  0  0  0  0  0  0
    9.7994   68.6420   80.4255 C   0  0  0  0  0  3  0  0  0  0  0  0
   12.1468   68.9077   80.6027 C   0  0  0  0  0  3  0  0  0  0  0  0
   10.9643   69.2227   79.9637 C   0  0  0  0  0  3  0  0  0  0  0  0
  1  7  1  0
  2  1  2  0
  3  2  1  0
  4  3  2  0
  4  5  1  0
  5  6  2  0
  6  1  1  0
  7  8  1  0
  7  9  2  0
 10  4  1  0
 11 10  1  0
 12 11  2  0
 13 11  1  0
 14 21  1  0
 14 12  1  0
 15 13  1  0
 16 15  2  0
 16 14  1  0
 17 15  1  0
 18 16  1  0
 19 17  2  0
 20 19  1  0
 20 18  2  0
 21 22  2  0
 23 21  1  0
 24 22  1  0
 25 23  2  0
 25 26  1  0
 26 24  2  0
M  RAD  8   2   2   3   2   5   2   6   2  13   2  14   2  17   2  18   2
M  RAD  7  19   2  20   2  22   2  23   2  24   2  25   2  26   2
M  END
>  <REMARK>  (1) 
 SMILES NC(=O)c1ccc(Nc2nc(-c3ccccc3)c3ccccc3n2)cc1
 SMILES IDX 4 1 5 2 6 3 7 4 25 5 26 6 2 7 1 8 3 11 8 12 9 14 10 15 24 16
 SMILES IDX 11 17 23 18 18 19 22 20 19 21 21 22 20 23 12 24 13 25 17 26
 SMILES IDX 14 27 16 28 15 29
 H PARENT 1 9 1 10 8 13

>  <TORSDO>  (1) 
F 4

$$$$
