/home/pchatterjee/Documents/git/vs_workflow/DiffDock/diffdock_run/pdbqt_scrubbed/Z94803042.pdbqt
     RDKit          3D

 26 29  0  0  1  0  0  0  0  0999 V2000
    3.6116   68.8769   84.9264 C   0  0  0  0  0  0  0  0  0  0  0  0
    3.8714   70.2155   84.8560 C   0  0  0  0  0  3  0  0  0  0  0  0
    5.0372   70.6834   84.3240 C   0  0  0  0  0  3  0  0  0  0  0  0
    5.9668   69.7822   83.8501 C   0  0  0  0  0  0  0  0  0  0  0  0
    5.6976   68.4252   83.9242 C   0  0  0  0  0  3  0  0  0  0  0  0
    4.5064   67.9486   84.4678 C   0  0  0  0  0  3  0  0  0  0  0  0
    2.3457   68.4430   85.5070 C   0  0  0  0  0  0  0  0  0  0  0  0
    1.3606   69.3485   85.9891 N   0  0  0  0  0  0  0  0  0  0  0  0
    2.1113   67.2084   85.5863 O   0  0  0  0  0  0  0  0  0  0  0  0
    7.1683   70.2700   83.3020 N   0  0  0  0  0  0  0  0  0  0  0  0
    8.1317   69.4206   82.6901 C   0  0  0  0  0  0  0  0  0  0  0  0
    7.8211   68.2074   82.4111 N   0  0  0  0  0  0  0  0  0  0  0  0
    9.4391   69.9565   82.4007 N   0  0  0  0  0  2  0  0  0  0  0  0
    8.7090   67.2711   81.7981 C   0  0  0  0  0  3  0  0  0  0  0  0
   10.4045   69.1165   81.7912 C   0  0  0  0  0  0  0  0  0  0  0  0
   10.0452   67.8266   81.5048 C   0  0  0  0  0  0  0  0  0  0  0  0
   11.6823   69.5247   81.4713 C   0  0  0  0  0  3  0  0  0  0  0  0
   10.9677   66.9915   80.9119 C   0  0  0  0  0  3  0  0  0  0  0  0
   12.6151   68.6998   80.8781 C   0  0  0  0  0  3  0  0  0  0  0  0
   12.2299   67.4050   80.5992 C   0  0  0  0  0  3  0  0  0  0  0  0
    8.8772   66.0013   82.5275 C   0  0  0  0  0  0  0  0  0  0  0  0
    7.8670   65.6134   83.3858 C   0  0  0  0  0  3  0  0  0  0  0  0
    9.9727   65.1773   82.4103 C   0  0  0  0  0  3  0  0  0  0  0  0
    7.9257   64.4400   84.1177 C   0  0  0  0  0  3  0  0  0  0  0  0
   10.0389   63.9940   83.1442 C   0  0  0  0  0  3  0  0  0  0  0  0
    9.0252   63.6126   84.0003 C   0  0  0  0  0  3  0  0  0  0  0  0
  1  7  1  0
  2  1  2  0
  3  2  1  0
  4  3  2  0
  4  5  1  0
  5  6  2  0
  6  1  1  0
  7  8  1  0
  7  9  2  0
 10  4  1  0
 11 10  1  0
 12 11  2  0
 13 11  1  0
 14 21  1  0
 14 12  1  0
 15 13  1  0
 16 15  2  0
 16 14  1  0
 17 15  1  0
 18 16  1  0
 19 17  2  0
 20 19  1  0
 20 18  2  0
 21 22  2  0
 23 21  1  0
 24 22  1  0
 25 23  2  0
 25 26  1  0
 26 24  2  0
M  RAD  8   2   2   3   2   5   2   6   2  13   2  14   2  17   2  18   2
M  RAD  7  19   2  20   2  22   2  23   2  24   2  25   2  26   2
M  END
>  <REMARK>  (1) 
 SMILES NC(=O)c1ccc(Nc2nc(-c3ccccc3)c3ccccc3n2)cc1
 SMILES IDX 4 1 5 2 6 3 7 4 25 5 26 6 2 7 1 8 3 11 8 12 9 14 10 15 24 16
 SMILES IDX 11 17 23 18 18 19 22 20 19 21 21 22 20 23 12 24 13 25 17 26
 SMILES IDX 14 27 16 28 15 29
 H PARENT 1 9 1 10 8 13

>  <TORSDO>  (1) 
F 4

$$$$
