/home/pchatterjee/Documents/git/vs_workflow/DiffDock/diffdock_run/pdbqt_scrubbed/Z94803042.pdbqt
     RDKit          3D

 26 29  0  0  1  0  0  0  0  0999 V2000
    6.5464   61.0667   82.1890 C   0  0  0  0  0  0  0  0  0  0  0  0
    5.5558   62.0025   82.2745 C   0  0  0  0  0  3  0  0  0  0  0  0
    5.8411   63.3365   82.2865 C   0  0  0  0  0  3  0  0  0  0  0  0
    7.1570   63.7410   82.2106 C   0  0  0  0  0  0  0  0  0  0  0  0
    8.1578   62.7869   82.1240 C   0  0  0  0  0  3  0  0  0  0  0  0
    7.8650   61.4247   82.1118 C   0  0  0  0  0  3  0  0  0  0  0  0
    6.1732   59.6566   82.1809 C   0  0  0  0  0  0  0  0  0  0  0  0
    7.1236   58.6013   82.1065 N   0  0  0  0  0  0  0  0  0  0  0  0
    4.9518   59.3566   82.2426 O   0  0  0  0  0  0  0  0  0  0  0  0
    7.4463   65.1187   82.2234 N   0  0  0  0  0  0  0  0  0  0  0  0
    8.7432   65.6319   81.9428 C   0  0  0  0  0  0  0  0  0  0  0  0
    9.7284   64.8223   81.8016 N   0  0  0  0  0  0  0  0  0  0  0  0
    8.9095   67.0596   81.8250 N   0  0  0  0  0  2  0  0  0  0  0  0
   11.0685   65.2286   81.5191 C   0  0  0  0  0  3  0  0  0  0  0  0
   10.1986   67.5787   81.5455 C   0  0  0  0  0  0  0  0  0  0  0  0
   11.2312   66.6913   81.3999 C   0  0  0  0  0  0  0  0  0  0  0  0
   10.4702   68.9241   81.4124 C   0  0  0  0  0  3  0  0  0  0  0  0
   12.4935   67.1733   81.1278 C   0  0  0  0  0  3  0  0  0  0  0  0
   11.7283   69.4199   81.1403 C   0  0  0  0  0  3  0  0  0  0  0  0
   12.7522   68.5067   80.9979 C   0  0  0  0  0  3  0  0  0  0  0  0
   12.0860   64.7168   82.4547 C   0  0  0  0  0  0  0  0  0  0  0  0
   13.3837   64.6041   81.9957 C   0  0  0  0  0  3  0  0  0  0  0  0
   11.8293   64.3441   83.7539 C   0  0  0  0  0  3  0  0  0  0  0  0
   14.4140   64.1351   82.7924 C   0  0  0  0  0  3  0  0  0  0  0  0
   12.8615   63.8709   84.5623 C   0  0  0  0  0  3  0  0  0  0  0  0
   14.1565   63.7609   84.0967 C   0  0  0  0  0  3  0  0  0  0  0  0
  1  7  1  0
  2  1  2  0
  3  2  1  0
  4  3  2  0
  4  5  1  0
  5  6  2  0
  6  1  1  0
  7  8  1  0
  7  9  2  0
 10  4  1  0
 11 10  1  0
 12 11  2  0
 13 11  1  0
 14 21  1  0
 14 12  1  0
 15 13  1  0
 16 15  2  0
 16 14  1  0
 17 15  1  0
 18 16  1  0
 19 17  2  0
 20 19  1  0
 20 18  2  0
 21 22  2  0
 23 21  1  0
 24 22  1  0
 25 23  2  0
 25 26  1  0
 26 24  2  0
M  RAD  8   2   2   3   2   5   2   6   2  13   2  14   2  17   2  18   2
M  RAD  7  19   2  20   2  22   2  23   2  24   2  25   2  26   2
M  END
>  <REMARK>  (1) 
 SMILES NC(=O)c1ccc(Nc2nc(-c3ccccc3)c3ccccc3n2)cc1
 SMILES IDX 4 1 5 2 6 3 7 4 25 5 26 6 2 7 1 8 3 11 8 12 9 14 10 15 24 16
 SMILES IDX 11 17 23 18 18 19 22 20 19 21 21 22 20 23 12 24 13 25 17 26
 SMILES IDX 14 27 16 28 15 29
 H PARENT 1 9 1 10 8 13

>  <TORSDO>  (1) 
F 4

$$$$
