/home/pchatterjee/Documents/git/vs_workflow/DiffDock/diffdock_run/pdbqt_scrubbed/Z94803042.pdbqt
     RDKit          3D

 26 29  0  0  1  0  0  0  0  0999 V2000
   11.3806   67.6244   81.6907 C   0  0  0  0  0  0  0  0  0  0  0  0
   11.7860   66.6107   82.5106 C   0  0  0  0  0  3  0  0  0  0  0  0
   10.9578   65.5692   82.8114 C   0  0  0  0  0  3  0  0  0  0  0  0
    9.6884   65.5457   82.2739 C   0  0  0  0  0  0  0  0  0  0  0  0
    9.2827   66.5771   81.4426 C   0  0  0  0  0  3  0  0  0  0  0  0
   10.1296   67.6403   81.1363 C   0  0  0  0  0  3  0  0  0  0  0  0
   12.3154   68.7083   81.4093 C   0  0  0  0  0  0  0  0  0  0  0  0
   12.0089   69.7943   80.5437 N   0  0  0  0  0  0  0  0  0  0  0  0
   13.4486   68.6838   81.9578 O   0  0  0  0  0  0  0  0  0  0  0  0
    8.8375   64.4688   82.5873 N   0  0  0  0  0  0  0  0  0  0  0  0
    9.2570   63.3680   83.3851 C   0  0  0  0  0  0  0  0  0  0  0  0
    9.9924   63.5758   84.4157 N   0  0  0  0  0  0  0  0  0  0  0  0
    8.8376   62.0414   83.0053 N   0  0  0  0  0  2  0  0  0  0  0  0
   10.4688   62.5462   85.2839 C   0  0  0  0  0  3  0  0  0  0  0  0
    9.2515   60.9394   83.7951 C   0  0  0  0  0  0  0  0  0  0  0  0
   10.0357   61.1910   84.8890 C   0  0  0  0  0  0  0  0  0  0  0  0
    8.9092   59.6314   83.5240 C   0  0  0  0  0  3  0  0  0  0  0  0
   10.4501   60.1348   85.6717 C   0  0  0  0  0  3  0  0  0  0  0  0
    9.3168   58.5653   84.2986 C   0  0  0  0  0  3  0  0  0  0  0  0
   10.1060   58.8437   85.3950 C   0  0  0  0  0  3  0  0  0  0  0  0
   11.9280   62.5316   85.4923 C   0  0  0  0  0  0  0  0  0  0  0  0
   12.7371   62.7508   84.3946 C   0  0  0  0  0  3  0  0  0  0  0  0
   12.5372   62.3144   86.7065 C   0  0  0  0  0  3  0  0  0  0  0  0
   14.1186   62.7577   84.4814 C   0  0  0  0  0  3  0  0  0  0  0  0
   13.9279   62.3199   86.8018 C   0  0  0  0  0  3  0  0  0  0  0  0
   14.7304   62.5397   85.7002 C   0  0  0  0  0  3  0  0  0  0  0  0
  1  7  1  0
  2  1  2  0
  3  2  1  0
  4  3  2  0
  4  5  1  0
  5  6  2  0
  6  1  1  0
  7  8  1  0
  7  9  2  0
 10  4  1  0
 11 10  1  0
 12 11  2  0
 13 11  1  0
 14 21  1  0
 14 12  1  0
 15 13  1  0
 16 15  2  0
 16 14  1  0
 17 15  1  0
 18 16  1  0
 19 17  2  0
 20 19  1  0
 20 18  2  0
 21 22  2  0
 23 21  1  0
 24 22  1  0
 25 23  2  0
 25 26  1  0
 26 24  2  0
M  RAD  8   2   2   3   2   5   2   6   2  13   2  14   2  17   2  18   2
M  RAD  7  19   2  20   2  22   2  23   2  24   2  25   2  26   2
M  END
>  <REMARK>  (1) 
 SMILES NC(=O)c1ccc(Nc2nc(-c3ccccc3)c3ccccc3n2)cc1
 SMILES IDX 4 1 5 2 6 3 7 4 25 5 26 6 2 7 1 8 3 11 8 12 9 14 10 15 24 16
 SMILES IDX 11 17 23 18 18 19 22 20 19 21 21 22 20 23 12 24 13 25 17 26
 SMILES IDX 14 27 16 28 15 29
 H PARENT 1 9 1 10 8 13

>  <TORSDO>  (1) 
F 4

$$$$
