/home/pchatterjee/Documents/git/vs_workflow/DiffDock/diffdock_run/pdbqt_scrubbed/Z94803042.pdbqt
     RDKit          3D

 26 29  0  0  1  0  0  0  0  0999 V2000
    6.5081   64.9141   84.1492 C   0  0  0  0  0  0  0  0  0  0  0  0
    7.4943   65.8364   83.9465 C   0  0  0  0  0  3  0  0  0  0  0  0
    8.7964   65.4588   83.7948 C   0  0  0  0  0  3  0  0  0  0  0  0
    9.1161   64.1187   83.8482 C   0  0  0  0  0  0  0  0  0  0  0  0
    8.1111   63.1876   84.0541 C   0  0  0  0  0  3  0  0  0  0  0  0
    6.7816   63.5746   84.2089 C   0  0  0  0  0  3  0  0  0  0  0  0
    5.1360   65.3847   84.3038 C   0  0  0  0  0  0  0  0  0  0  0  0
    4.7873   66.7626   84.3505 N   0  0  0  0  0  0  0  0  0  0  0  0
    4.2144   64.5322   84.4008 O   0  0  0  0  0  0  0  0  0  0  0  0
   10.4612   63.7342   83.6910 N   0  0  0  0  0  0  0  0  0  0  0  0
   11.5094   64.6760   83.4950 C   0  0  0  0  0  0  0  0  0  0  0  0
   11.2376   65.9294   83.4623 N   0  0  0  0  0  0  0  0  0  0  0  0
   12.8567   64.1859   83.3378 N   0  0  0  0  0  2  0  0  0  0  0  0
   12.2103   66.9581   83.2717 C   0  0  0  0  0  3  0  0  0  0  0  0
   13.9066   65.1180   83.1420 C   0  0  0  0  0  0  0  0  0  0  0  0
   13.5870   66.4491   83.1116 C   0  0  0  0  0  0  0  0  0  0  0  0
   15.2285   64.7599   82.9810 C   0  0  0  0  0  3  0  0  0  0  0  0
   14.5916   67.3736   82.9224 C   0  0  0  0  0  3  0  0  0  0  0  0
   16.2435   65.6744   82.7910 C   0  0  0  0  0  3  0  0  0  0  0  0
   15.8970   67.0093   82.7640 C   0  0  0  0  0  3  0  0  0  0  0  0
   11.9227   67.8920   82.1681 C   0  0  0  0  0  0  0  0  0  0  0  0
   10.6218   67.9659   81.7102 C   0  0  0  0  0  3  0  0  0  0  0  0
   12.8631   68.6942   81.5642 C   0  0  0  0  0  3  0  0  0  0  0  0
   10.2454   68.8096   80.6793 C   0  0  0  0  0  3  0  0  0  0  0  0
   12.4917   69.5464   80.5255 C   0  0  0  0  0  3  0  0  0  0  0  0
   11.1893   69.6151   80.0729 C   0  0  0  0  0  3  0  0  0  0  0  0
  1  7  1  0
  2  1  2  0
  3  2  1  0
  4  3  2  0
  4  5  1  0
  5  6  2  0
  6  1  1  0
  7  8  1  0
  7  9  2  0
 10  4  1  0
 11 10  1  0
 12 11  2  0
 13 11  1  0
 14 21  1  0
 14 12  1  0
 15 13  1  0
 16 15  2  0
 16 14  1  0
 17 15  1  0
 18 16  1  0
 19 17  2  0
 20 19  1  0
 20 18  2  0
 21 22  2  0
 23 21  1  0
 24 22  1  0
 25 23  2  0
 25 26  1  0
 26 24  2  0
M  RAD  8   2   2   3   2   5   2   6   2  13   2  14   2  17   2  18   2
M  RAD  7  19   2  20   2  22   2  23   2  24   2  25   2  26   2
M  END
>  <REMARK>  (1) 
 SMILES NC(=O)c1ccc(Nc2nc(-c3ccccc3)c3ccccc3n2)cc1
 SMILES IDX 4 1 5 2 6 3 7 4 25 5 26 6 2 7 1 8 3 11 8 12 9 14 10 15 24 16
 SMILES IDX 11 17 23 18 18 19 22 20 19 21 21 22 20 23 12 24 13 25 17 26
 SMILES IDX 14 27 16 28 15 29
 H PARENT 1 9 1 10 8 13

>  <TORSDO>  (1) 
F 4

$$$$
