/home/pchatterjee/Documents/git/vs_workflow/DiffDock/diffdock_run/pdbqt_scrubbed/Z94803042.pdbqt
     RDKit          3D

 26 29  0  0  1  0  0  0  0  0999 V2000
   11.0554   67.9651   81.1991 C   0  0  0  0  0  0  0  0  0  0  0  0
    9.6963   67.8892   81.0919 C   0  0  0  0  0  3  0  0  0  0  0  0
    9.0043   66.8289   81.5997 C   0  0  0  0  0  3  0  0  0  0  0  0
    9.6963   65.8180   82.2323 C   0  0  0  0  0  0  0  0  0  0  0  0
   11.0752   65.9006   82.3380 C   0  0  0  0  0  3  0  0  0  0  0  0
   11.7808   66.9841   81.8188 C   0  0  0  0  0  3  0  0  0  0  0  0
   11.7345   69.1261   80.6343 C   0  0  0  0  0  0  0  0  0  0  0  0
   13.1489   69.2195   80.5190 N   0  0  0  0  0  0  0  0  0  0  0  0
   11.0374   70.0931   80.2287 O   0  0  0  0  0  0  0  0  0  0  0  0
    8.9775   64.7260   82.7547 N   0  0  0  0  0  0  0  0  0  0  0  0
    9.5988   63.6869   83.5020 C   0  0  0  0  0  0  0  0  0  0  0  0
   10.8711   63.6979   83.6664 N   0  0  0  0  0  0  0  0  0  0  0  0
    8.7695   62.6449   84.0557 N   0  0  0  0  0  2  0  0  0  0  0  0
   11.5957   62.7068   84.3969 C   0  0  0  0  0  3  0  0  0  0  0  0
    9.3810   61.6060   84.8015 C   0  0  0  0  0  0  0  0  0  0  0  0
   10.7405   61.6435   84.9608 C   0  0  0  0  0  0  0  0  0  0  0  0
    8.6850   60.5624   85.3742 C   0  0  0  0  0  3  0  0  0  0  0  0
   11.3569   60.6437   85.6823 C   0  0  0  0  0  3  0  0  0  0  0  0
    9.2890   59.5557   86.0984 C   0  0  0  0  0  3  0  0  0  0  0  0
   10.6592   59.6150   86.2452 C   0  0  0  0  0  3  0  0  0  0  0  0
   12.7061   62.0765   83.6604 C   0  0  0  0  0  0  0  0  0  0  0  0
   13.2036   62.7392   82.5555 C   0  0  0  0  0  3  0  0  0  0  0  0
   13.2794   60.8729   84.0000 C   0  0  0  0  0  3  0  0  0  0  0  0
   14.2442   62.2346   81.7946 C   0  0  0  0  0  3  0  0  0  0  0  0
   14.3276   60.3584   83.2387 C   0  0  0  0  0  3  0  0  0  0  0  0
   14.8199   61.0264   82.1353 C   0  0  0  0  0  3  0  0  0  0  0  0
  1  7  1  0
  2  1  2  0
  3  2  1  0
  4  3  2  0
  4  5  1  0
  5  6  2  0
  6  1  1  0
  7  8  1  0
  7  9  2  0
 10  4  1  0
 11 10  1  0
 12 11  2  0
 13 11  1  0
 14 21  1  0
 14 12  1  0
 15 13  1  0
 16 15  2  0
 16 14  1  0
 17 15  1  0
 18 16  1  0
 19 17  2  0
 20 19  1  0
 20 18  2  0
 21 22  2  0
 23 21  1  0
 24 22  1  0
 25 23  2  0
 25 26  1  0
 26 24  2  0
M  RAD  8   2   2   3   2   5   2   6   2  13   2  14   2  17   2  18   2
M  RAD  7  19   2  20   2  22   2  23   2  24   2  25   2  26   2
M  END
>  <REMARK>  (1) 
 SMILES NC(=O)c1ccc(Nc2nc(-c3ccccc3)c3ccccc3n2)cc1
 SMILES IDX 4 1 5 2 6 3 7 4 25 5 26 6 2 7 1 8 3 11 8 12 9 14 10 15 24 16
 SMILES IDX 11 17 23 18 18 19 22 20 19 21 21 22 20 23 12 24 13 25 17 26
 SMILES IDX 14 27 16 28 15 29
 H PARENT 1 9 1 10 8 13

>  <TORSDO>  (1) 
F 4

$$$$
