/home/pchatterjee/Documents/git/vs_workflow/DiffDock/diffdock_run/pdbqt_scrubbed/Z94803042.pdbqt
     RDKit          3D

 26 29  0  0  1  0  0  0  0  0999 V2000
    3.3982   40.4852   48.3769 C   0  0  0  0  0  0  0  0  0  0  0  0
    3.7284   41.1594   49.5173 C   0  0  0  0  0  3  0  0  0  0  0  0
    4.9419   41.7674   49.6542 C   0  0  0  0  0  3  0  0  0  0  0  0
    5.8479   41.6960   48.6174 C   0  0  0  0  0  0  0  0  0  0  0  0
    5.5073   41.0105   47.4626 C   0  0  0  0  0  3  0  0  0  0  0  0
    4.2674   40.3899   47.3242 C   0  0  0  0  0  3  0  0  0  0  0  0
    2.0841   39.8574   48.2950 C   0  0  0  0  0  0  0  0  0  0  0  0
    1.7173   38.9537   47.2600 N   0  0  0  0  0  0  0  0  0  0  0  0
    1.2318   40.1267   49.1820 O   0  0  0  0  0  0  0  0  0  0  0  0
    7.0989   42.3251   48.7634 N   0  0  0  0  0  0  0  0  0  0  0  0
    7.3787   43.2382   49.8179 C   0  0  0  0  0  0  0  0  0  0  0  0
    6.6430   43.2377   50.8690 N   0  0  0  0  0  0  0  0  0  0  0  0
    8.4915   44.1436   49.6693 N   0  0  0  0  0  2  0  0  0  0  0  0
    6.8342   44.1096   51.9844 C   0  0  0  0  0  3  0  0  0  0  0  0
    8.7768   45.0564   50.7156 C   0  0  0  0  0  0  0  0  0  0  0  0
    7.9750   45.0334   51.8252 C   0  0  0  0  0  0  0  0  0  0  0  0
    9.8143   45.9641   50.6784 C   0  0  0  0  0  3  0  0  0  0  0  0
    8.2335   45.9121   52.8552 C   0  0  0  0  0  3  0  0  0  0  0  0
   10.0842   46.8488   51.7017 C   0  0  0  0  0  3  0  0  0  0  0  0
    9.2628   46.8067   52.8089 C   0  0  0  0  0  3  0  0  0  0  0  0
    5.6473   44.8908   52.3762 C   0  0  0  0  0  0  0  0  0  0  0  0
    4.9671   45.5693   51.3839 C   0  0  0  0  0  3  0  0  0  0  0  0
    5.1722   44.9891   53.6636 C   0  0  0  0  0  3  0  0  0  0  0  0
    3.8413   46.3313   51.6447 C   0  0  0  0  0  3  0  0  0  0  0  0
    4.0390   45.7546   53.9339 C   0  0  0  0  0  3  0  0  0  0  0  0
    3.3641   46.4302   52.9369 C   0  0  0  0  0  3  0  0  0  0  0  0
  1  7  1  0
  2  1  2  0
  3  2  1  0
  4  3  2  0
  4  5  1  0
  5  6  2  0
  6  1  1  0
  7  8  1  0
  7  9  2  0
 10  4  1  0
 11 10  1  0
 12 11  2  0
 13 11  1  0
 14 21  1  0
 14 12  1  0
 15 13  1  0
 16 15  2  0
 16 14  1  0
 17 15  1  0
 18 16  1  0
 19 17  2  0
 20 19  1  0
 20 18  2  0
 21 22  2  0
 23 21  1  0
 24 22  1  0
 25 23  2  0
 25 26  1  0
 26 24  2  0
M  RAD  8   2   2   3   2   5   2   6   2  13   2  14   2  17   2  18   2
M  RAD  7  19   2  20   2  22   2  23   2  24   2  25   2  26   2
M  END
>  <REMARK>  (1) 
 SMILES NC(=O)c1ccc(Nc2nc(-c3ccccc3)c3ccccc3n2)cc1
 SMILES IDX 4 1 5 2 6 3 7 4 25 5 26 6 2 7 1 8 3 11 8 12 9 14 10 15 24 16
 SMILES IDX 11 17 23 18 18 19 22 20 19 21 21 22 20 23 12 24 13 25 17 26
 SMILES IDX 14 27 16 28 15 29
 H PARENT 1 9 1 10 8 13

>  <TORSDO>  (1) 
F 4

$$$$
