/home/pchatterjee/Documents/git/vs_workflow/DiffDock/diffdock_run/pdbqt_scrubbed/Z94803042.pdbqt
     RDKit          3D

 26 29  0  0  1  0  0  0  0  0999 V2000
    5.7985   62.9071   83.6371 C   0  0  0  0  0  0  0  0  0  0  0  0
    5.2870   64.0745   84.1269 C   0  0  0  0  0  3  0  0  0  0  0  0
    5.7935   65.2833   83.7486 C   0  0  0  0  0  3  0  0  0  0  0  0
    6.8421   65.3201   82.8541 C   0  0  0  0  0  0  0  0  0  0  0  0
    7.3569   64.1324   82.3605 C   0  0  0  0  0  3  0  0  0  0  0  0
    6.8385   62.8984   82.7478 C   0  0  0  0  0  3  0  0  0  0  0  0
    5.2108   61.6485   84.0825 C   0  0  0  0  0  0  0  0  0  0  0  0
    5.6462   60.3783   83.6139 N   0  0  0  0  0  0  0  0  0  0  0  0
    4.2731   61.6855   84.9221 O   0  0  0  0  0  0  0  0  0  0  0  0
    7.3613   66.5700   82.4667 N   0  0  0  0  0  0  0  0  0  0  0  0
    8.7081   66.7416   82.0414 C   0  0  0  0  0  0  0  0  0  0  0  0
    9.4772   65.7194   81.9435 N   0  0  0  0  0  0  0  0  0  0  0  0
    9.1693   68.0724   81.7311 N   0  0  0  0  0  2  0  0  0  0  0  0
   10.8425   65.7776   81.5274 C   0  0  0  0  0  3  0  0  0  0  0  0
   10.5099   68.2517   81.3067 C   0  0  0  0  0  0  0  0  0  0  0  0
   11.3076   67.1429   81.2114 C   0  0  0  0  0  0  0  0  0  0  0  0
   11.0541   69.4773   80.9852 C   0  0  0  0  0  3  0  0  0  0  0  0
   12.6148   67.2931   80.8008 C   0  0  0  0  0  3  0  0  0  0  0  0
   12.3601   69.6418   80.5730 C   0  0  0  0  0  3  0  0  0  0  0  0
   13.1441   68.5104   80.4848 C   0  0  0  0  0  3  0  0  0  0  0  0
   11.8046   65.1558   82.4550 C   0  0  0  0  0  0  0  0  0  0  0  0
   12.0119   63.7944   82.3500 C   0  0  0  0  0  3  0  0  0  0  0  0
   12.5092   65.8408   83.4179 C   0  0  0  0  0  3  0  0  0  0  0  0
   12.8931   63.1130   83.1718 C   0  0  0  0  0  3  0  0  0  0  0  0
   13.3983   65.1615   84.2492 C   0  0  0  0  0  3  0  0  0  0  0  0
   13.6005   63.8003   84.1385 C   0  0  0  0  0  3  0  0  0  0  0  0
  1  7  1  0
  2  1  2  0
  3  2  1  0
  4  3  2  0
  4  5  1  0
  5  6  2  0
  6  1  1  0
  7  8  1  0
  7  9  2  0
 10  4  1  0
 11 10  1  0
 12 11  2  0
 13 11  1  0
 14 21  1  0
 14 12  1  0
 15 13  1  0
 16 15  2  0
 16 14  1  0
 17 15  1  0
 18 16  1  0
 19 17  2  0
 20 19  1  0
 20 18  2  0
 21 22  2  0
 23 21  1  0
 24 22  1  0
 25 23  2  0
 25 26  1  0
 26 24  2  0
M  RAD  8   2   2   3   2   5   2   6   2  13   2  14   2  17   2  18   2
M  RAD  7  19   2  20   2  22   2  23   2  24   2  25   2  26   2
M  END
>  <REMARK>  (1) 
 SMILES NC(=O)c1ccc(Nc2nc(-c3ccccc3)c3ccccc3n2)cc1
 SMILES IDX 4 1 5 2 6 3 7 4 25 5 26 6 2 7 1 8 3 11 8 12 9 14 10 15 24 16
 SMILES IDX 11 17 23 18 18 19 22 20 19 21 21 22 20 23 12 24 13 25 17 26
 SMILES IDX 14 27 16 28 15 29
 H PARENT 1 9 1 10 8 13

>  <TORSDO>  (1) 
F 4

$$$$
