/home/pchatterjee/Documents/git/vs_workflow/DiffDock/diffdock_run/pdbqt_scrubbed/Z56890527.pdbqt
     RDKit          3D

 23 26  0  0  1  0  0  0  0  0999 V2000
    9.3863   44.7745   50.5215 N   0  0  0  0  0  0  0  0  0  0  0  0
    9.4864   45.7532   51.5384 C   0  0  0  0  0  0  0  0  0  0  0  0
    8.3496   46.2344   52.1069 N   0  0  0  0  0  0  0  0  0  0  0  0
    8.3459   47.1675   53.0731 C   0  0  0  0  0  0  0  0  0  0  0  0
    9.5408   47.6823   53.5322 C   0  0  0  0  0  0  0  0  0  0  0  0
   10.6920   47.2076   52.9695 C   0  0  0  0  0  0  0  0  0  0  0  0
   11.7929   47.6610   53.3709 O   0  0  0  0  0  0  0  0  0  0  0  0
   10.6337   46.2650   51.9972 N   0  0  0  0  0  0  0  0  0  0  0  0
    9.6292   48.7150   54.5961 C   0  0  0  0  0  2  0  0  0  0  0  0
    8.3835   48.5903   55.4715 C   0  0  0  0  0  2  0  0  0  0  0  0
    7.1387   48.6505   54.6475 C   0  0  0  0  0  2  0  0  0  0  0  0
    7.0210   47.5947   53.5973 C   0  0  0  0  0  2  0  0  0  0  0  0
    8.1846   44.1178   50.1616 C   0  0  0  0  0  0  0  0  0  0  0  0
    7.1584   42.4470   48.7717 C   0  0  0  0  0  3  0  0  0  0  0  0
    8.2826   43.1997   49.2433 N   0  0  0  0  0  0  0  0  0  0  0  0
    5.8849   42.7965   49.4139 C   0  0  0  0  0  0  0  0  0  0  0  0
    4.7496   42.1196   49.0217 C   0  0  0  0  0  3  0  0  0  0  0  0
    5.7333   43.7594   50.3887 C   0  0  0  0  0  0  0  0  0  0  0  0
    6.9415   44.4495   50.7775 N   0  0  0  0  0  2  0  0  0  0  0  0
    3.4978   42.3583   49.5498 C   0  0  0  0  0  3  0  0  0  0  0  0
    4.5151   44.0304   50.9404 C   0  0  0  0  0  3  0  0  0  0  0  0
    3.3747   43.3298   50.5263 C   0  0  0  0  0  3  0  0  0  0  0  0
    7.0032   42.5521   47.2773 C   0  0  0  0  0  1  0  0  0  0  0  0
  1  2  1  0
  1 13  1  0
  2  8  1  0
  3  4  1  0
  3  2  2  0
  4  5  2  0
  5  9  1  0
  5  6  1  0
  6  7  2  0
  8  6  1  0
 10  9  1  0
 11 10  1  0
 12 11  1  0
 12  4  1  0
 13 15  2  0
 14 23  1  0
 15 14  1  0
 16 14  1  0
 16 17  2  0
 18 16  1  0
 19 13  1  0
 19 18  1  0
 20 17  1  0
 21 18  2  0
 21 22  1  0
 22 20  2  0
M  RAD  8   9   3  10   3  11   3  12   3  14   2  17   2  19   2  20   2
M  RAD  3  21   2  22   2  23   2
M  END
>  <REMARK>  (1) 
 SMILES Cc1nc(Nc2nc3c(c(=O)[nH]2)CCCC3)nc2ccccc12
 SMILES IDX 5 1 6 2 7 3 8 4 9 5 10 6 11 7 12 8 13 9 14 10 15 11 16 12
 SMILES IDX 4 15 2 16 3 17 23 18 22 19 18 20 17 21 21 22 19 23 20 24
 SMILES IDX 1 25
 H PARENT 5 13 12 14

>  <TORSDO>  (1) 
F 1

$$$$
