/home/pchatterjee/Documents/git/vs_workflow/DiffDock/diffdock_run/pdbqt_scrubbed/Z56890527.pdbqt
     RDKit          3D

 23 26  0  0  1  0  0  0  0  0999 V2000
    9.1976   44.4953   50.4495 N   0  0  0  0  0  0  0  0  0  0  0  0
    9.3118   45.5016   51.4376 C   0  0  0  0  0  0  0  0  0  0  0  0
    8.1860   45.9674   52.0398 N   0  0  0  0  0  0  0  0  0  0  0  0
    8.1957   46.9241   52.9826 C   0  0  0  0  0  0  0  0  0  0  0  0
    9.3937   47.4810   53.3805 C   0  0  0  0  0  0  0  0  0  0  0  0
   10.5339   47.0222   52.7833 C   0  0  0  0  0  0  0  0  0  0  0  0
   11.6373   47.5139   53.1288 O   0  0  0  0  0  0  0  0  0  0  0  0
   10.4623   46.0543   51.8371 N   0  0  0  0  0  0  0  0  0  0  0  0
    9.4966   48.5421   54.4147 C   0  0  0  0  0  2  0  0  0  0  0  0
    8.2905   48.4073   55.3425 C   0  0  0  0  0  2  0  0  0  0  0  0
    7.0127   48.4145   54.5683 C   0  0  0  0  0  2  0  0  0  0  0  0
    6.8817   47.3299   53.5495 C   0  0  0  0  0  2  0  0  0  0  0  0
    7.9851   43.8520   50.1022 C   0  0  0  0  0  0  0  0  0  0  0  0
    6.9324   42.1648   48.7523 C   0  0  0  0  0  3  0  0  0  0  0  0
    8.0689   42.9085   49.2085 N   0  0  0  0  0  0  0  0  0  0  0  0
    5.6635   42.5547   49.3803 C   0  0  0  0  0  0  0  0  0  0  0  0
    4.5171   41.8891   49.0015 C   0  0  0  0  0  3  0  0  0  0  0  0
    5.5268   43.5454   50.3291 C   0  0  0  0  0  0  0  0  0  0  0  0
    6.7464   44.2228   50.7044 N   0  0  0  0  0  2  0  0  0  0  0  0
    3.2682   42.1648   49.5184 C   0  0  0  0  0  3  0  0  0  0  0  0
    4.3120   43.8534   50.8689 C   0  0  0  0  0  3  0  0  0  0  0  0
    3.1601   43.1636   50.4687 C   0  0  0  0  0  3  0  0  0  0  0  0
    6.7842   42.2337   47.2551 C   0  0  0  0  0  1  0  0  0  0  0  0
  1  2  1  0
  1 13  1  0
  2  8  1  0
  3  4  1  0
  3  2  2  0
  4  5  2  0
  5  9  1  0
  5  6  1  0
  6  7  2  0
  8  6  1  0
 10  9  1  0
 11 10  1  0
 12 11  1  0
 12  4  1  0
 13 15  2  0
 14 23  1  0
 15 14  1  0
 16 14  1  0
 16 17  2  0
 18 16  1  0
 19 13  1  0
 19 18  1  0
 20 17  1  0
 21 18  2  0
 21 22  1  0
 22 20  2  0
M  RAD  8   9   3  10   3  11   3  12   3  14   2  17   2  19   2  20   2
M  RAD  3  21   2  22   2  23   2
M  END
>  <REMARK>  (1) 
 SMILES Cc1nc(Nc2nc3c(c(=O)[nH]2)CCCC3)nc2ccccc12
 SMILES IDX 5 1 6 2 7 3 8 4 9 5 10 6 11 7 12 8 13 9 14 10 15 11 16 12
 SMILES IDX 4 15 2 16 3 17 23 18 22 19 18 20 17 21 21 22 19 23 20 24
 SMILES IDX 1 25
 H PARENT 5 13 12 14

>  <TORSDO>  (1) 
F 1

$$$$
