/home/pchatterjee/Documents/git/vs_workflow/DiffDock/diffdock_run/pdbqt_scrubbed/Z56890527.pdbqt
     RDKit          3D

 23 26  0  0  1  0  0  0  0  0999 V2000
    8.8383   44.3858   50.1435 N   0  0  0  0  0  0  0  0  0  0  0  0
    9.0320   45.3736   51.1378 C   0  0  0  0  0  0  0  0  0  0  0  0
    7.9495   45.8857   51.7805 N   0  0  0  0  0  0  0  0  0  0  0  0
    8.0350   46.8296   52.7323 C   0  0  0  0  0  0  0  0  0  0  0  0
    9.2703   47.3236   53.0974 C   0  0  0  0  0  0  0  0  0  0  0  0
   10.3678   46.8178   52.4595 C   0  0  0  0  0  0  0  0  0  0  0  0
   11.5040   47.2519   52.7746 O   0  0  0  0  0  0  0  0  0  0  0  0
   10.2198   45.8657   51.5061 N   0  0  0  0  0  0  0  0  0  0  0  0
    9.4568   48.3662   54.1387 C   0  0  0  0  0  2  0  0  0  0  0  0
    8.2753   48.2785   55.1031 C   0  0  0  0  0  2  0  0  0  0  0  0
    6.9758   48.3561   54.3702 C   0  0  0  0  0  2  0  0  0  0  0  0
    6.7605   47.2912   53.3450 C   0  0  0  0  0  2  0  0  0  0  0  0
    7.5907   43.7852   49.8477 C   0  0  0  0  0  0  0  0  0  0  0  0
    6.4147   42.1776   48.5025 C   0  0  0  0  0  3  0  0  0  0  0  0
    7.5957   42.8759   48.9155 N   0  0  0  0  0  0  0  0  0  0  0  0
    5.1969   42.5720   49.2221 C   0  0  0  0  0  0  0  0  0  0  0  0
    4.0127   41.9488   48.8899 C   0  0  0  0  0  3  0  0  0  0  0  0
    5.1437   43.5274   50.2144 C   0  0  0  0  0  0  0  0  0  0  0  0
    6.4009   44.1608   50.5390 N   0  0  0  0  0  2  0  0  0  0  0  0
    2.8051   42.2331   49.4932 C   0  0  0  0  0  3  0  0  0  0  0  0
    3.9723   43.8422   50.8395 C   0  0  0  0  0  3  0  0  0  0  0  0
    2.7808   43.1959   50.4855 C   0  0  0  0  0  3  0  0  0  0  0  0
    6.1775   42.3089   47.0210 C   0  0  0  0  0  1  0  0  0  0  0  0
  1  2  1  0
  1 13  1  0
  2  8  1  0
  3  4  1  0
  3  2  2  0
  4  5  2  0
  5  9  1  0
  5  6  1  0
  6  7  2  0
  8  6  1  0
 10  9  1  0
 11 10  1  0
 12 11  1  0
 12  4  1  0
 13 15  2  0
 14 23  1  0
 15 14  1  0
 16 14  1  0
 16 17  2  0
 18 16  1  0
 19 13  1  0
 19 18  1  0
 20 17  1  0
 21 18  2  0
 21 22  1  0
 22 20  2  0
M  RAD  8   9   3  10   3  11   3  12   3  14   2  17   2  19   2  20   2
M  RAD  3  21   2  22   2  23   2
M  END
>  <REMARK>  (1) 
 SMILES Cc1nc(Nc2nc3c(c(=O)[nH]2)CCCC3)nc2ccccc12
 SMILES IDX 5 1 6 2 7 3 8 4 9 5 10 6 11 7 12 8 13 9 14 10 15 11 16 12
 SMILES IDX 4 15 2 16 3 17 23 18 22 19 18 20 17 21 21 22 19 23 20 24
 SMILES IDX 1 25
 H PARENT 5 13 12 14

>  <TORSDO>  (1) 
F 1

$$$$
