/home/pchatterjee/Documents/git/vs_workflow/DiffDock/diffdock_run/pdbqt_scrubbed/Z56890527.pdbqt
     RDKit          3D

 23 26  0  0  1  0  0  0  0  0999 V2000
    9.1440   44.4354   50.4899 N   0  0  0  0  0  0  0  0  0  0  0  0
    9.2505   45.4758   51.4429 C   0  0  0  0  0  0  0  0  0  0  0  0
    8.1197   45.9645   52.0170 N   0  0  0  0  0  0  0  0  0  0  0  0
    8.1221   46.9540   52.9254 C   0  0  0  0  0  0  0  0  0  0  0  0
    9.3171   47.5226   53.3152 C   0  0  0  0  0  0  0  0  0  0  0  0
   10.4623   47.0412   52.7460 C   0  0  0  0  0  0  0  0  0  0  0  0
   11.5632   47.5430   53.0848 O   0  0  0  0  0  0  0  0  0  0  0  0
   10.3981   46.0405   51.8340 N   0  0  0  0  0  0  0  0  0  0  0  0
    9.4120   48.6195   54.3122 C   0  0  0  0  0  2  0  0  0  0  0  0
    8.1965   48.5197   55.2321 C   0  0  0  0  0  2  0  0  0  0  0  0
    6.9265   48.5016   54.4456 C   0  0  0  0  0  2  0  0  0  0  0  0
    6.8033   47.3818   53.4645 C   0  0  0  0  0  2  0  0  0  0  0  0
    7.9350   43.7770   50.1591 C   0  0  0  0  0  0  0  0  0  0  0  0
    6.8952   42.0338   48.8718 C   0  0  0  0  0  3  0  0  0  0  0  0
    8.0273   42.7970   49.3065 N   0  0  0  0  0  0  0  0  0  0  0  0
    5.6207   42.4484   49.4718 C   0  0  0  0  0  0  0  0  0  0  0  0
    4.4780   41.7663   49.1111 C   0  0  0  0  0  3  0  0  0  0  0  0
    5.4749   43.4777   50.3771 C   0  0  0  0  0  0  0  0  0  0  0  0
    6.6907   44.1714   50.7344 N   0  0  0  0  0  2  0  0  0  0  0  0
    3.2245   42.0622   49.6050 C   0  0  0  0  0  3  0  0  0  0  0  0
    4.2552   43.8068   50.8928 C   0  0  0  0  0  3  0  0  0  0  0  0
    3.1073   43.0997   50.5118 C   0  0  0  0  0  3  0  0  0  0  0  0
    6.7602   42.0399   47.3718 C   0  0  0  0  0  1  0  0  0  0  0  0
  1  2  1  0
  1 13  1  0
  2  8  1  0
  3  4  1  0
  3  2  2  0
  4  5  2  0
  5  9  1  0
  5  6  1  0
  6  7  2  0
  8  6  1  0
 10  9  1  0
 11 10  1  0
 12 11  1  0
 12  4  1  0
 13 15  2  0
 14 23  1  0
 15 14  1  0
 16 14  1  0
 16 17  2  0
 18 16  1  0
 19 13  1  0
 19 18  1  0
 20 17  1  0
 21 18  2  0
 21 22  1  0
 22 20  2  0
M  RAD  8   9   3  10   3  11   3  12   3  14   2  17   2  19   2  20   2
M  RAD  3  21   2  22   2  23   2
M  END
>  <REMARK>  (1) 
 SMILES Cc1nc(Nc2nc3c(c(=O)[nH]2)CCCC3)nc2ccccc12
 SMILES IDX 5 1 6 2 7 3 8 4 9 5 10 6 11 7 12 8 13 9 14 10 15 11 16 12
 SMILES IDX 4 15 2 16 3 17 23 18 22 19 18 20 17 21 21 22 19 23 20 24
 SMILES IDX 1 25
 H PARENT 5 13 12 14

>  <TORSDO>  (1) 
F 1

$$$$
