/home/pchatterjee/Documents/git/vs_workflow/DiffDock/diffdock_run/pdbqt_scrubbed/Z56890527.pdbqt
     RDKit          3D

 23 26  0  0  1  0  0  0  0  0999 V2000
   13.6159   63.9051   82.2705 N   0  0  0  0  0  0  0  0  0  0  0  0
   13.8657   63.1531   83.4427 C   0  0  0  0  0  0  0  0  0  0  0  0
   13.3972   63.6104   84.6337 N   0  0  0  0  0  0  0  0  0  0  0  0
   13.5904   62.9686   85.7978 C   0  0  0  0  0  0  0  0  0  0  0  0
   14.2961   61.7832   85.8171 C   0  0  0  0  0  0  0  0  0  0  0  0
   14.7732   61.3115   84.6267 C   0  0  0  0  0  0  0  0  0  0  0  0
   15.4190   60.2337   84.6185 O   0  0  0  0  0  0  0  0  0  0  0  0
   14.5471   62.0029   83.4830 N   0  0  0  0  0  0  0  0  0  0  0  0
   14.5561   61.0086   87.0574 C   0  0  0  0  0  2  0  0  0  0  0  0
   13.4423   61.3325   88.0515 C   0  0  0  0  0  2  0  0  0  0  0  0
   13.3139   62.8072   88.2539 C   0  0  0  0  0  2  0  0  0  0  0  0
   13.0165   63.5939   87.0194 C   0  0  0  0  0  2  0  0  0  0  0  0
   12.7839   65.0496   82.2189 C   0  0  0  0  0  0  0  0  0  0  0  0
   10.6745   66.0175   82.8435 C   0  0  0  0  0  3  0  0  0  0  0  0
   11.6272   64.9480   82.8085 N   0  0  0  0  0  0  0  0  0  0  0  0
   11.1139   67.2407   82.1601 C   0  0  0  0  0  0  0  0  0  0  0  0
   10.2592   68.3225   82.1462 C   0  0  0  0  0  3  0  0  0  0  0  0
   12.3271   67.3941   81.5238 C   0  0  0  0  0  0  0  0  0  0  0  0
   13.1992   66.2429   81.5571 N   0  0  0  0  0  2  0  0  0  0  0  0
   10.5582   69.5237   81.5374 C   0  0  0  0  0  3  0  0  0  0  0  0
   12.6668   68.5635   80.9080 C   0  0  0  0  0  3  0  0  0  0  0  0
   11.7822   69.6499   80.9064 C   0  0  0  0  0  3  0  0  0  0  0  0
    9.3394   65.5945   82.2895 C   0  0  0  0  0  1  0  0  0  0  0  0
  1  2  1  0
  1 13  1  0
  2  8  1  0
  3  4  1  0
  3  2  2  0
  4  5  2  0
  5  9  1  0
  5  6  1  0
  6  7  2  0
  8  6  1  0
 10  9  1  0
 11 10  1  0
 12 11  1  0
 12  4  1  0
 13 15  2  0
 14 23  1  0
 15 14  1  0
 16 14  1  0
 16 17  2  0
 18 16  1  0
 19 13  1  0
 19 18  1  0
 20 17  1  0
 21 18  2  0
 21 22  1  0
 22 20  2  0
M  RAD  8   9   3  10   3  11   3  12   3  14   2  17   2  19   2  20   2
M  RAD  3  21   2  22   2  23   2
M  END
>  <REMARK>  (1) 
 SMILES Cc1nc(Nc2nc3c(c(=O)[nH]2)CCCC3)nc2ccccc12
 SMILES IDX 5 1 6 2 7 3 8 4 9 5 10 6 11 7 12 8 13 9 14 10 15 11 16 12
 SMILES IDX 4 15 2 16 3 17 23 18 22 19 18 20 17 21 21 22 19 23 20 24
 SMILES IDX 1 25
 H PARENT 5 13 12 14

>  <TORSDO>  (1) 
F 1

$$$$
