/home/pchatterjee/Documents/git/vs_workflow/DiffDock/diffdock_run/pdbqt_scrubbed/Z56890527.pdbqt
     RDKit          3D

 23 26  0  0  1  0  0  0  0  0999 V2000
    9.0152   44.3615   50.3573 N   0  0  0  0  0  0  0  0  0  0  0  0
    9.1489   45.3561   51.3546 C   0  0  0  0  0  0  0  0  0  0  0  0
    8.0314   45.8475   51.9520 N   0  0  0  0  0  0  0  0  0  0  0  0
    8.0597   46.7959   52.9028 C   0  0  0  0  0  0  0  0  0  0  0  0
    9.2692   47.3166   53.3146 C   0  0  0  0  0  0  0  0  0  0  0  0
   10.4012   46.8318   52.7224 C   0  0  0  0  0  0  0  0  0  0  0  0
   11.5148   47.2903   53.0805 O   0  0  0  0  0  0  0  0  0  0  0  0
   10.3108   45.8739   51.7676 N   0  0  0  0  0  0  0  0  0  0  0  0
    9.3928   48.3660   54.3584 C   0  0  0  0  0  2  0  0  0  0  0  0
    8.1760   48.2567   55.2757 C   0  0  0  0  0  2  0  0  0  0  0  0
    6.9052   48.3051   54.4918 C   0  0  0  0  0  2  0  0  0  0  0  0
    6.7528   47.2329   53.4629 C   0  0  0  0  0  2  0  0  0  0  0  0
    7.7934   43.7320   50.0168 C   0  0  0  0  0  0  0  0  0  0  0  0
    6.6962   42.1321   48.5979 C   0  0  0  0  0  3  0  0  0  0  0  0
    7.8459   42.8534   49.0571 N   0  0  0  0  0  0  0  0  0  0  0  0
    5.4523   42.4654   49.3038 C   0  0  0  0  0  0  0  0  0  0  0  0
    4.2954   41.8164   48.9276 C   0  0  0  0  0  3  0  0  0  0  0  0
    5.3490   43.3866   50.3240 C   0  0  0  0  0  0  0  0  0  0  0  0
    6.5787   44.0482   50.6944 N   0  0  0  0  0  2  0  0  0  0  0  0
    3.0677   42.0436   49.5140 C   0  0  0  0  0  3  0  0  0  0  0  0
    4.1560   43.6448   50.9339 C   0  0  0  0  0  3  0  0  0  0  0  0
    2.9929   42.9732   50.5351 C   0  0  0  0  0  3  0  0  0  0  0  0
    6.4845   42.3030   47.1166 C   0  0  0  0  0  1  0  0  0  0  0  0
  1  2  1  0
  1 13  1  0
  2  8  1  0
  3  4  1  0
  3  2  2  0
  4  5  2  0
  5  9  1  0
  5  6  1  0
  6  7  2  0
  8  6  1  0
 10  9  1  0
 11 10  1  0
 12 11  1  0
 12  4  1  0
 13 15  2  0
 14 23  1  0
 15 14  1  0
 16 14  1  0
 16 17  2  0
 18 16  1  0
 19 13  1  0
 19 18  1  0
 20 17  1  0
 21 18  2  0
 21 22  1  0
 22 20  2  0
M  RAD  8   9   3  10   3  11   3  12   3  14   2  17   2  19   2  20   2
M  RAD  3  21   2  22   2  23   2
M  END
>  <REMARK>  (1) 
 SMILES Cc1nc(Nc2nc3c(c(=O)[nH]2)CCCC3)nc2ccccc12
 SMILES IDX 5 1 6 2 7 3 8 4 9 5 10 6 11 7 12 8 13 9 14 10 15 11 16 12
 SMILES IDX 4 15 2 16 3 17 23 18 22 19 18 20 17 21 21 22 19 23 20 24
 SMILES IDX 1 25
 H PARENT 5 13 12 14

>  <TORSDO>  (1) 
F 1

$$$$
