/home/pchatterjee/Documents/git/vs_workflow/DiffDock/diffdock_run/pdbqt_scrubbed/Z56890527.pdbqt
     RDKit          3D

 23 26  0  0  1  0  0  0  0  0999 V2000
    7.0517   83.4732   74.7175 N   0  0  0  0  0  0  0  0  0  0  0  0
    8.0865   84.3315   74.2762 C   0  0  0  0  0  0  0  0  0  0  0  0
    9.3774   84.0034   74.5461 N   0  0  0  0  0  0  0  0  0  0  0  0
   10.4238   84.7586   74.1731 C   0  0  0  0  0  0  0  0  0  0  0  0
   10.2087   85.9320   73.4800 C   0  0  0  0  0  0  0  0  0  0  0  0
    8.9154   86.2745   73.2018 C   0  0  0  0  0  0  0  0  0  0  0  0
    8.6939   87.3386   72.5716 O   0  0  0  0  0  0  0  0  0  0  0  0
    7.8994   85.4724   73.6039 N   0  0  0  0  0  0  0  0  0  0  0  0
   11.3056   86.8263   73.0295 C   0  0  0  0  0  2  0  0  0  0  0  0
   12.5611   85.9733   72.8562 C   0  0  0  0  0  2  0  0  0  0  0  0
   12.8603   85.1980   74.0977 C   0  0  0  0  0  2  0  0  0  0  0  0
   11.7789   84.2678   74.5412 C   0  0  0  0  0  2  0  0  0  0  0  0
    7.2166   82.4608   75.6935 C   0  0  0  0  0  0  0  0  0  0  0  0
    6.2101   80.5989   76.8324 C   0  0  0  0  0  3  0  0  0  0  0  0
    6.1988   81.6704   75.8813 N   0  0  0  0  0  0  0  0  0  0  0  0
    7.4688   80.4650   77.5768 C   0  0  0  0  0  0  0  0  0  0  0  0
    7.5686   79.4576   78.5128 C   0  0  0  0  0  3  0  0  0  0  0  0
    8.5707   81.2766   77.4119 C   0  0  0  0  0  0  0  0  0  0  0  0
    8.4340   82.3215   76.4237 N   0  0  0  0  0  2  0  0  0  0  0  0
    8.6967   79.2317   79.2738 C   0  0  0  0  0  3  0  0  0  0  0  0
    9.7086   81.0916   78.1419 C   0  0  0  0  0  3  0  0  0  0  0  0
    9.7875   80.0611   79.0878 C   0  0  0  0  0  3  0  0  0  0  0  0
    5.0681   80.7065   77.8084 C   0  0  0  0  0  1  0  0  0  0  0  0
  1  2  1  0
  1 13  1  0
  2  8  1  0
  3  4  1  0
  3  2  2  0
  4  5  2  0
  5  9  1  0
  5  6  1  0
  6  7  2  0
  8  6  1  0
 10  9  1  0
 11 10  1  0
 12 11  1  0
 12  4  1  0
 13 15  2  0
 14 23  1  0
 15 14  1  0
 16 14  1  0
 16 17  2  0
 18 16  1  0
 19 13  1  0
 19 18  1  0
 20 17  1  0
 21 18  2  0
 21 22  1  0
 22 20  2  0
M  RAD  8   9   3  10   3  11   3  12   3  14   2  17   2  19   2  20   2
M  RAD  3  21   2  22   2  23   2
M  END
>  <REMARK>  (1) 
 SMILES Cc1nc(Nc2nc3c(c(=O)[nH]2)CCCC3)nc2ccccc12
 SMILES IDX 5 1 6 2 7 3 8 4 9 5 10 6 11 7 12 8 13 9 14 10 15 11 16 12
 SMILES IDX 4 15 2 16 3 17 23 18 22 19 18 20 17 21 21 22 19 23 20 24
 SMILES IDX 1 25
 H PARENT 5 13 12 14

>  <TORSDO>  (1) 
F 1

$$$$
