/home/pchatterjee/Documents/git/vs_workflow/DiffDock/diffdock_run/pdbqt_scrubbed/Z56890527.pdbqt
     RDKit          3D

 23 26  0  0  1  0  0  0  0  0999 V2000
    6.8566   42.4390   49.0269 N   0  0  0  0  0  0  0  0  0  0  0  0
    7.4977   43.4653   49.7602 C   0  0  0  0  0  0  0  0  0  0  0  0
    6.7568   44.2473   50.5888 N   0  0  0  0  0  0  0  0  0  0  0  0
    7.2763   45.2481   51.3187 C   0  0  0  0  0  0  0  0  0  0  0  0
    8.6270   45.5198   51.2445 C   0  0  0  0  0  0  0  0  0  0  0  0
    9.3843   44.7415   50.4152 C   0  0  0  0  0  0  0  0  0  0  0  0
   10.6170   44.9694   50.3305 O   0  0  0  0  0  0  0  0  0  0  0  0
    8.8043   43.7450   49.7024 N   0  0  0  0  0  0  0  0  0  0  0  0
    9.2843   46.6058   52.0156 C   0  0  0  0  0  2  0  0  0  0  0  0
    8.4507   46.8565   53.2711 C   0  0  0  0  0  2  0  0  0  0  0  0
    7.0210   47.1166   52.9245 C   0  0  0  0  0  2  0  0  0  0  0  0
    6.3379   46.0163   52.1801 C   0  0  0  0  0  2  0  0  0  0  0  0
    5.4990   42.0713   49.1889 C   0  0  0  0  0  0  0  0  0  0  0  0
    3.4848   42.3725   50.4653 C   0  0  0  0  0  3  0  0  0  0  0  0
    4.8615   42.6398   50.1719 N   0  0  0  0  0  0  0  0  0  0  0  0
    2.8514   41.4040   49.5612 C   0  0  0  0  0  0  0  0  0  0  0  0
    1.5254   41.0885   49.7694 C   0  0  0  0  0  3  0  0  0  0  0  0
    3.4853   40.7782   48.5093 C   0  0  0  0  0  0  0  0  0  0  0  0
    4.8731   41.1309   48.3179 N   0  0  0  0  0  2  0  0  0  0  0  0
    0.8220   40.1946   48.9891 C   0  0  0  0  0  3  0  0  0  0  0  0
    2.8305   39.8868   47.7102 C   0  0  0  0  0  3  0  0  0  0  0  0
    1.4827   39.5812   47.9405 C   0  0  0  0  0  3  0  0  0  0  0  0
    3.2953   41.9170   51.8883 C   0  0  0  0  0  1  0  0  0  0  0  0
  1  2  1  0
  1 13  1  0
  2  8  1  0
  3  4  1  0
  3  2  2  0
  4  5  2  0
  5  9  1  0
  5  6  1  0
  6  7  2  0
  8  6  1  0
 10  9  1  0
 11 10  1  0
 12 11  1  0
 12  4  1  0
 13 15  2  0
 14 23  1  0
 15 14  1  0
 16 14  1  0
 16 17  2  0
 18 16  1  0
 19 13  1  0
 19 18  1  0
 20 17  1  0
 21 18  2  0
 21 22  1  0
 22 20  2  0
M  RAD  8   9   3  10   3  11   3  12   3  14   2  17   2  19   2  20   2
M  RAD  3  21   2  22   2  23   2
M  END
>  <REMARK>  (1) 
 SMILES Cc1nc(Nc2nc3c(c(=O)[nH]2)CCCC3)nc2ccccc12
 SMILES IDX 5 1 6 2 7 3 8 4 9 5 10 6 11 7 12 8 13 9 14 10 15 11 16 12
 SMILES IDX 4 15 2 16 3 17 23 18 22 19 18 20 17 21 21 22 19 23 20 24
 SMILES IDX 1 25
 H PARENT 5 13 12 14

>  <TORSDO>  (1) 
F 1

$$$$
