/home/pchatterjee/Documents/git/vs_workflow/DiffDock/diffdock_run/pdbqt_scrubbed/Z56890527.pdbqt
     RDKit          3D

 23 26  0  0  1  0  0  0  0  0999 V2000
    7.8872   44.4519   50.7024 N   0  0  0  0  0  0  0  0  0  0  0  0
    7.9422   45.3874   51.7624 C   0  0  0  0  0  0  0  0  0  0  0  0
    9.1465   45.8976   52.1319 N   0  0  0  0  0  0  0  0  0  0  0  0
    9.2971   46.7848   53.1291 C   0  0  0  0  0  0  0  0  0  0  0  0
    8.1921   47.2188   53.8320 C   0  0  0  0  0  0  0  0  0  0  0  0
    6.9745   46.7140   53.4714 C   0  0  0  0  0  0  0  0  0  0  0  0
    5.9531   47.0940   54.0967 O   0  0  0  0  0  0  0  0  0  0  0  0
    6.8840   45.8205   52.4561 N   0  0  0  0  0  0  0  0  0  0  0  0
    8.2669   48.1966   54.9475 C   0  0  0  0  0  2  0  0  0  0  0  0
    9.5079   49.0601   54.7280 C   0  0  0  0  0  2  0  0  0  0  0  0
   10.7281   48.2151   54.5580 C   0  0  0  0  0  2  0  0  0  0  0  0
   10.6796   47.2524   53.4168 C   0  0  0  0  0  2  0  0  0  0  0  0
    6.7321   43.7132   50.3492 C   0  0  0  0  0  0  0  0  0  0  0  0
    5.8156   41.9778   48.9617 C   0  0  0  0  0  3  0  0  0  0  0  0
    6.8876   42.8065   49.4275 N   0  0  0  0  0  0  0  0  0  0  0  0
    4.5255   42.2353   49.6141 C   0  0  0  0  0  0  0  0  0  0  0  0
    3.4377   41.4812   49.2280 C   0  0  0  0  0  3  0  0  0  0  0  0
    4.3138   43.1827   50.5928 C   0  0  0  0  0  0  0  0  0  0  0  0
    5.4733   43.9551   50.9749 N   0  0  0  0  0  2  0  0  0  0  0  0
    2.1762   41.6300   49.7658 C   0  0  0  0  0  3  0  0  0  0  0  0
    3.0836   43.3660   51.1541 C   0  0  0  0  0  3  0  0  0  0  0  0
    1.9923   42.5880   50.7460 C   0  0  0  0  0  3  0  0  0  0  0  0
    5.6424   42.0754   47.4687 C   0  0  0  0  0  1  0  0  0  0  0  0
  1  2  1  0
  1 13  1  0
  2  8  1  0
  3  4  1  0
  3  2  2  0
  4  5  2  0
  5  9  1  0
  5  6  1  0
  6  7  2  0
  8  6  1  0
 10  9  1  0
 11 10  1  0
 12 11  1  0
 12  4  1  0
 13 15  2  0
 14 23  1  0
 15 14  1  0
 16 14  1  0
 16 17  2  0
 18 16  1  0
 19 13  1  0
 19 18  1  0
 20 17  1  0
 21 18  2  0
 21 22  1  0
 22 20  2  0
M  RAD  8   9   3  10   3  11   3  12   3  14   2  17   2  19   2  20   2
M  RAD  3  21   2  22   2  23   2
M  END
>  <REMARK>  (1) 
 SMILES Cc1nc(Nc2nc3c(c(=O)[nH]2)CCCC3)nc2ccccc12
 SMILES IDX 5 1 6 2 7 3 8 4 9 5 10 6 11 7 12 8 13 9 14 10 15 11 16 12
 SMILES IDX 4 15 2 16 3 17 23 18 22 19 18 20 17 21 21 22 19 23 20 24
 SMILES IDX 1 25
 H PARENT 5 13 12 14

>  <TORSDO>  (1) 
F 1

$$$$
