/home/pchatterjee/Documents/git/vs_workflow/DiffDock/diffdock_run/pdbqt_scrubbed/Z56890527.pdbqt
     RDKit          3D

 23 26  0  0  1  0  0  0  0  0999 V2000
    9.1990   44.5122   50.4019 N   0  0  0  0  0  0  0  0  0  0  0  0
    9.3357   45.5207   51.3848 C   0  0  0  0  0  0  0  0  0  0  0  0
    8.2177   46.0614   51.9369 N   0  0  0  0  0  0  0  0  0  0  0  0
    8.2489   47.0264   52.8708 C   0  0  0  0  0  0  0  0  0  0  0  0
    9.4621   47.5133   53.3118 C   0  0  0  0  0  0  0  0  0  0  0  0
   10.5947   46.9788   52.7652 C   0  0  0  0  0  0  0  0  0  0  0  0
   11.7118   47.4059   53.1506 O   0  0  0  0  0  0  0  0  0  0  0  0
   10.5012   46.0064   51.8255 N   0  0  0  0  0  0  0  0  0  0  0  0
    9.5891   48.5778   54.3398 C   0  0  0  0  0  2  0  0  0  0  0  0
    8.3410   48.5277   55.2193 C   0  0  0  0  0  2  0  0  0  0  0  0
    7.0979   48.6044   54.3941 C   0  0  0  0  0  2  0  0  0  0  0  0
    6.9409   47.5184   53.3805 C   0  0  0  0  0  2  0  0  0  0  0  0
    7.9747   43.8846   50.0674 C   0  0  0  0  0  0  0  0  0  0  0  0
    6.8774   42.2491   48.6898 C   0  0  0  0  0  3  0  0  0  0  0  0
    8.0292   42.9733   49.1388 N   0  0  0  0  0  0  0  0  0  0  0  0
    5.6286   42.6195   49.3680 C   0  0  0  0  0  0  0  0  0  0  0  0
    4.4693   41.9705   48.9993 C   0  0  0  0  0  3  0  0  0  0  0  0
    5.5229   43.5761   50.3548 C   0  0  0  0  0  0  0  0  0  0  0  0
    6.7552   44.2367   50.7182 N   0  0  0  0  0  2  0  0  0  0  0  0
    3.2370   42.2307   49.5618 C   0  0  0  0  0  3  0  0  0  0  0  0
    4.3253   43.8677   50.9403 C   0  0  0  0  0  3  0  0  0  0  0  0
    3.1599   43.1953   50.5497 C   0  0  0  0  0  3  0  0  0  0  0  0
    6.6860   42.3715   47.2010 C   0  0  0  0  0  1  0  0  0  0  0  0
  1  2  1  0
  1 13  1  0
  2  8  1  0
  3  4  1  0
  3  2  2  0
  4  5  2  0
  5  9  1  0
  5  6  1  0
  6  7  2  0
  8  6  1  0
 10  9  1  0
 11 10  1  0
 12 11  1  0
 12  4  1  0
 13 15  2  0
 14 23  1  0
 15 14  1  0
 16 14  1  0
 16 17  2  0
 18 16  1  0
 19 13  1  0
 19 18  1  0
 20 17  1  0
 21 18  2  0
 21 22  1  0
 22 20  2  0
M  RAD  8   9   3  10   3  11   3  12   3  14   2  17   2  19   2  20   2
M  RAD  3  21   2  22   2  23   2
M  END
>  <REMARK>  (1) 
 SMILES Cc1nc(Nc2nc3c(c(=O)[nH]2)CCCC3)nc2ccccc12
 SMILES IDX 5 1 6 2 7 3 8 4 9 5 10 6 11 7 12 8 13 9 14 10 15 11 16 12
 SMILES IDX 4 15 2 16 3 17 23 18 22 19 18 20 17 21 21 22 19 23 20 24
 SMILES IDX 1 25
 H PARENT 5 13 12 14

>  <TORSDO>  (1) 
F 1

$$$$
