/home/pchatterjee/Documents/git/vs_workflow/DiffDock/diffdock_run/pdbqt_scrubbed/Z1677967961.pdbqt
     RDKit          3D

 27 30  0  0  0  0  0  0  0  0999 V2000
    4.2470   42.4202   50.5098 C   0  0  0  0  0  0  0  0  0  0  0  0
    3.7016   42.3811   51.7887 C   0  0  0  0  0  3  0  0  0  0  0  0
    2.7129   41.4826   52.1435 C   0  0  0  0  0  3  0  0  0  0  0  0
    2.2562   40.5957   51.1873 C   0  0  0  0  0  3  0  0  0  0  0  0
    2.7808   40.6150   49.9136 C   0  0  0  0  0  3  0  0  0  0  0  0
    3.7775   41.5248   49.5659 C   0  0  0  0  0  0  0  0  0  0  0  0
    5.3007   43.3884   50.1569 C   0  0  0  0  0  0  0  0  0  0  0  0
    6.5368   42.8783   49.6796 N   0  0  0  0  0  0  0  0  0  0  0  0
    5.1352   44.6302   50.2659 O   0  0  0  0  0  0  0  0  0  0  0  0
    7.7258   43.6456   49.8156 C   0  0  0  0  0  0  0  0  0  0  0  0
    8.8475   43.5878   49.0785 N   0  0  0  0  0  0  0  0  0  0  0  0
    7.9536   44.6004   50.7360 N   0  0  0  0  0  0  0  0  0  0  0  0
    9.7440   44.4800   49.5283 N   0  0  0  0  0  0  0  0  0  0  0  0
    9.1841   45.1224   50.5755 C   0  0  0  0  0  0  0  0  0  0  0  0
    9.7262   46.1928   51.4353 C   0  0  0  0  0  3  0  0  0  0  0  0
    9.2844   46.2199   52.8609 C   0  0  0  0  0  2  0  0  0  0  0  0
    8.9905   47.4900   51.2017 C   0  0  0  0  0  2  0  0  0  0  0  0
    8.3108   47.3198   52.5440 C   0  0  0  0  0  2  0  0  0  0  0  0
    4.2961   41.5238   48.2588 O   0  0  0  0  0  0  0  0  0  0  0  0
    3.9305   40.5054   47.3463 C   0  0  0  0  0  2  0  0  0  0  0  0
    4.2437   40.9893   45.9819 C   0  0  0  0  0  0  0  0  0  0  0  0
    3.2109   41.5476   45.2531 C   0  0  0  0  0  3  0  0  0  0  0  0
    5.5249   40.8888   45.4490 C   0  0  0  0  0  3  0  0  0  0  0  0
    3.4620   42.0120   43.9736 C   0  0  0  0  0  3  0  0  0  0  0  0
    5.7478   41.3609   44.1680 C   0  0  0  0  0  3  0  0  0  0  0  0
    4.7318   41.9210   43.4245 C   0  0  0  0  0  0  0  0  0  0  0  0
    4.9825   42.3746   42.1716 F   0  0  0  0  0  0  0  0  0  0  0  0
  1  2  2  0
  1  7  1  0
  3  2  1  0
  4  3  2  0
  5  4  1  0
  5  6  2  0
  6  1  1  0
  7  9  2  0
  8  7  1  0
  8 10  1  0
 10 11  2  0
 11 13  1  0
 12 10  1  0
 12 14  2  0
 14 13  1  0
 15 14  1  0
 16 15  1  0
 17 15  1  0
 18 16  1  0
 18 17  1  0
 19  6  1  0
 20 19  1  0
 21 20  1  0
 21 22  2  0
 23 21  1  0
 24 22  1  0
 25 23  2  0
 25 26  1  0
 26 24  2  0
 27 26  1  0
M  RAD  8   2   2   3   2   4   2   5   2  15   2  16   3  17   3  18   3
M  RAD  5  20   3  22   2  23   2  24   2  25   2
M  END
>  <REMARK>  (1) 
 SMILES O=C(Nc1n[nH]c(C2CCC2)n1)c1ccccc1OCc1ccc(F)cc1
 SMILES IDX 13 1 14 2 15 3 16 4 17 5 18 6 2 7 3 8 1 9 4 11 5 12 12 13
 SMILES IDX 6 14 7 15 8 17 9 18 11 19 10 20 19 21 20 22 21 23 22 24
 SMILES IDX 27 25 23 26 26 27 24 28 25 29
 H PARENT 3 10 6 16

>  <TORSDO>  (1) 
F 6

$$$$
