/home/pchatterjee/Documents/git/vs_workflow/DiffDock/diffdock_run/pdbqt_scrubbed/Z1677967961.pdbqt
     RDKit          3D

 27 30  0  0  0  0  0  0  0  0999 V2000
    5.4823   42.1576   49.0388 C   0  0  0  0  0  0  0  0  0  0  0  0
    5.9753   41.2254   48.1318 C   0  0  0  0  0  3  0  0  0  0  0  0
    5.1794   40.2393   47.5793 C   0  0  0  0  0  3  0  0  0  0  0  0
    3.8485   40.1855   47.9469 C   0  0  0  0  0  3  0  0  0  0  0  0
    3.3370   41.0978   48.8434 C   0  0  0  0  0  3  0  0  0  0  0  0
    4.1476   42.0882   49.3949 C   0  0  0  0  0  0  0  0  0  0  0  0
    6.3521   43.1994   49.6135 C   0  0  0  0  0  0  0  0  0  0  0  0
    7.6912   43.2761   49.1480 N   0  0  0  0  0  0  0  0  0  0  0  0
    5.9455   44.0058   50.4885 O   0  0  0  0  0  0  0  0  0  0  0  0
    8.6192   44.1455   49.7838 C   0  0  0  0  0  0  0  0  0  0  0  0
    9.8720   44.4514   49.4072 N   0  0  0  0  0  0  0  0  0  0  0  0
    8.4070   44.8434   50.9144 N   0  0  0  0  0  0  0  0  0  0  0  0
   10.4203   45.3132   50.2783 N   0  0  0  0  0  0  0  0  0  0  0  0
    9.4987   45.5641   51.2326 C   0  0  0  0  0  0  0  0  0  0  0  0
    9.5739   46.4344   52.4224 C   0  0  0  0  0  3  0  0  0  0  0  0
    8.2858   46.8863   53.0265 C   0  0  0  0  0  2  0  0  0  0  0  0
    9.8661   47.8607   52.0237 C   0  0  0  0  0  2  0  0  0  0  0  0
    8.4340   48.2230   52.3563 C   0  0  0  0  0  2  0  0  0  0  0  0
    3.6008   43.0073   50.3078 O   0  0  0  0  0  0  0  0  0  0  0  0
    2.3313   42.7694   50.8869 C   0  0  0  0  0  2  0  0  0  0  0  0
    2.1024   43.8113   51.9145 C   0  0  0  0  0  0  0  0  0  0  0  0
    2.1573   43.4202   53.2388 C   0  0  0  0  0  3  0  0  0  0  0  0
    1.8420   45.1330   51.5672 C   0  0  0  0  0  3  0  0  0  0  0  0
    1.9489   44.3636   54.2300 C   0  0  0  0  0  3  0  0  0  0  0  0
    1.6376   46.0549   52.5780 C   0  0  0  0  0  3  0  0  0  0  0  0
    1.6880   45.6859   53.9047 C   0  0  0  0  0  0  0  0  0  0  0  0
    1.4833   46.6133   54.8721 F   0  0  0  0  0  0  0  0  0  0  0  0
  1  2  2  0
  1  7  1  0
  3  2  1  0
  4  3  2  0
  5  4  1  0
  5  6  2  0
  6  1  1  0
  7  9  2  0
  8  7  1  0
  8 10  1  0
 10 11  2  0
 11 13  1  0
 12 10  1  0
 12 14  2  0
 14 13  1  0
 15 14  1  0
 16 15  1  0
 17 15  1  0
 18 16  1  0
 18 17  1  0
 19  6  1  0
 20 19  1  0
 21 20  1  0
 21 22  2  0
 23 21  1  0
 24 22  1  0
 25 23  2  0
 25 26  1  0
 26 24  2  0
 27 26  1  0
M  RAD  8   2   2   3   2   4   2   5   2  15   2  16   3  17   3  18   3
M  RAD  5  20   3  22   2  23   2  24   2  25   2
M  END
>  <REMARK>  (1) 
 SMILES O=C(Nc1n[nH]c(C2CCC2)n1)c1ccccc1OCc1ccc(F)cc1
 SMILES IDX 13 1 14 2 15 3 16 4 17 5 18 6 2 7 3 8 1 9 4 11 5 12 12 13
 SMILES IDX 6 14 7 15 8 17 9 18 11 19 10 20 19 21 20 22 21 23 22 24
 SMILES IDX 27 25 23 26 26 27 24 28 25 29
 H PARENT 3 10 6 16

>  <TORSDO>  (1) 
F 6

$$$$
