/home/pchatterjee/Documents/git/vs_workflow/DiffDock/diffdock_run/pdbqt_scrubbed/Z1677967961.pdbqt
     RDKit          3D

 27 30  0  0  0  0  0  0  0  0999 V2000
    5.4389   42.3113   49.4761 C   0  0  0  0  0  0  0  0  0  0  0  0
    5.8308   41.2495   48.6675 C   0  0  0  0  0  3  0  0  0  0  0  0
    4.9503   40.2630   48.2647 C   0  0  0  0  0  3  0  0  0  0  0  0
    3.6363   40.3425   48.6850 C   0  0  0  0  0  3  0  0  0  0  0  0
    3.2242   41.3845   49.4863 C   0  0  0  0  0  3  0  0  0  0  0  0
    4.1197   42.3743   49.8870 C   0  0  0  0  0  0  0  0  0  0  0  0
    6.3976   43.3506   49.8918 C   0  0  0  0  0  0  0  0  0  0  0  0
    7.6905   43.3326   49.3052 N   0  0  0  0  0  0  0  0  0  0  0  0
    6.1046   44.2352   50.7361 O   0  0  0  0  0  0  0  0  0  0  0  0
    8.7024   44.2106   49.7809 C   0  0  0  0  0  0  0  0  0  0  0  0
    9.9367   44.4088   49.2891 N   0  0  0  0  0  0  0  0  0  0  0  0
    8.6071   45.0299   50.8440 N   0  0  0  0  0  0  0  0  0  0  0  0
   10.5875   45.3236   50.0251 N   0  0  0  0  0  0  0  0  0  0  0  0
    9.7517   45.7193   51.0089 C   0  0  0  0  0  0  0  0  0  0  0  0
    9.9551   46.7004   52.0928 C   0  0  0  0  0  3  0  0  0  0  0  0
    9.2060   46.4842   53.3657 C   0  0  0  0  0  2  0  0  0  0  0  0
    9.1395   47.9464   51.8458 C   0  0  0  0  0  2  0  0  0  0  0  0
    8.2026   47.5262   52.9587 C   0  0  0  0  0  2  0  0  0  0  0  0
    3.6735   43.4273   50.7051 O   0  0  0  0  0  0  0  0  0  0  0  0
    2.6957   43.1926   51.7013 C   0  0  0  0  0  2  0  0  0  0  0  0
    2.7251   44.3379   52.6401 C   0  0  0  0  0  0  0  0  0  0  0  0
    2.3198   45.5670   52.1557 C   0  0  0  0  0  3  0  0  0  0  0  0
    3.1430   44.1891   53.9587 C   0  0  0  0  0  3  0  0  0  0  0  0
    2.3324   46.6630   53.0011 C   0  0  0  0  0  3  0  0  0  0  0  0
    3.1455   45.3010   54.7816 C   0  0  0  0  0  3  0  0  0  0  0  0
    2.7454   46.5355   54.3185 C   0  0  0  0  0  0  0  0  0  0  0  0
    2.7593   47.6062   55.1501 F   0  0  0  0  0  0  0  0  0  0  0  0
  1  2  2  0
  1  7  1  0
  3  2  1  0
  4  3  2  0
  5  4  1  0
  5  6  2  0
  6  1  1  0
  7  9  2  0
  8  7  1  0
  8 10  1  0
 10 11  2  0
 11 13  1  0
 12 10  1  0
 12 14  2  0
 14 13  1  0
 15 14  1  0
 16 15  1  0
 17 15  1  0
 18 16  1  0
 18 17  1  0
 19  6  1  0
 20 19  1  0
 21 20  1  0
 21 22  2  0
 23 21  1  0
 24 22  1  0
 25 23  2  0
 25 26  1  0
 26 24  2  0
 27 26  1  0
M  RAD  8   2   2   3   2   4   2   5   2  15   2  16   3  17   3  18   3
M  RAD  5  20   3  22   2  23   2  24   2  25   2
M  END
>  <REMARK>  (1) 
 SMILES O=C(Nc1n[nH]c(C2CCC2)n1)c1ccccc1OCc1ccc(F)cc1
 SMILES IDX 13 1 14 2 15 3 16 4 17 5 18 6 2 7 3 8 1 9 4 11 5 12 12 13
 SMILES IDX 6 14 7 15 8 17 9 18 11 19 10 20 19 21 20 22 21 23 22 24
 SMILES IDX 27 25 23 26 26 27 24 28 25 29
 H PARENT 3 10 6 16

>  <TORSDO>  (1) 
F 6

$$$$
