/home/pchatterjee/Documents/git/vs_workflow/DiffDock/diffdock_run/pdbqt_scrubbed/Z1677967961.pdbqt
     RDKit          3D

 27 30  0  0  0  0  0  0  0  0999 V2000
    6.4341   46.0983   52.2364 C   0  0  0  0  0  0  0  0  0  0  0  0
    5.3069   45.6796   51.5372 C   0  0  0  0  0  3  0  0  0  0  0  0
    4.0240   45.9791   51.9558 C   0  0  0  0  0  3  0  0  0  0  0  0
    3.8653   46.7211   53.1106 C   0  0  0  0  0  3  0  0  0  0  0  0
    4.9663   47.1473   53.8204 C   0  0  0  0  0  3  0  0  0  0  0  0
    6.2557   46.8401   53.3901 C   0  0  0  0  0  0  0  0  0  0  0  0
    7.7916   45.7656   51.7687 C   0  0  0  0  0  0  0  0  0  0  0  0
    8.0076   45.6789   50.3681 N   0  0  0  0  0  0  0  0  0  0  0  0
    8.7441   45.5608   52.5637 O   0  0  0  0  0  0  0  0  0  0  0  0
    7.7485   44.4622   49.6799 C   0  0  0  0  0  0  0  0  0  0  0  0
    8.4719   43.8800   48.7091 N   0  0  0  0  0  0  0  0  0  0  0  0
    6.6987   43.6448   49.8803 N   0  0  0  0  0  0  0  0  0  0  0  0
    7.8882   42.7357   48.3192 N   0  0  0  0  0  0  0  0  0  0  0  0
    6.7674   42.5825   49.0562 C   0  0  0  0  0  0  0  0  0  0  0  0
    5.7571   41.5065   49.0389 C   0  0  0  0  0  3  0  0  0  0  0  0
    5.1379   41.1656   47.7241 C   0  0  0  0  0  2  0  0  0  0  0  0
    4.4201   42.0210   49.5145 C   0  0  0  0  0  2  0  0  0  0  0  0
    3.9143   41.9581   48.0887 C   0  0  0  0  0  2  0  0  0  0  0  0
    7.3628   47.2873   54.1329 O   0  0  0  0  0  0  0  0  0  0  0  0
    7.6038   48.6730   54.2912 C   0  0  0  0  0  2  0  0  0  0  0  0
    8.8054   48.8268   55.1436 C   0  0  0  0  0  0  0  0  0  0  0  0
    8.8357   49.9023   56.0108 C   0  0  0  0  0  3  0  0  0  0  0  0
    9.8651   47.9278   55.0788 C   0  0  0  0  0  3  0  0  0  0  0  0
    9.9408   50.0818   56.8248 C   0  0  0  0  0  3  0  0  0  0  0  0
   10.9569   48.1311   55.9035 C   0  0  0  0  0  3  0  0  0  0  0  0
   11.0071   49.1970   56.7753 C   0  0  0  0  0  0  0  0  0  0  0  0
   12.0915   49.3688   57.5706 F   0  0  0  0  0  0  0  0  0  0  0  0
  1  2  2  0
  1  7  1  0
  3  2  1  0
  4  3  2  0
  5  4  1  0
  5  6  2  0
  6  1  1  0
  7  9  2  0
  8  7  1  0
  8 10  1  0
 10 11  2  0
 11 13  1  0
 12 10  1  0
 12 14  2  0
 14 13  1  0
 15 14  1  0
 16 15  1  0
 17 15  1  0
 18 16  1  0
 18 17  1  0
 19  6  1  0
 20 19  1  0
 21 20  1  0
 21 22  2  0
 23 21  1  0
 24 22  1  0
 25 23  2  0
 25 26  1  0
 26 24  2  0
 27 26  1  0
M  RAD  8   2   2   3   2   4   2   5   2  15   2  16   3  17   3  18   3
M  RAD  5  20   3  22   2  23   2  24   2  25   2
M  END
>  <REMARK>  (1) 
 SMILES O=C(Nc1n[nH]c(C2CCC2)n1)c1ccccc1OCc1ccc(F)cc1
 SMILES IDX 13 1 14 2 15 3 16 4 17 5 18 6 2 7 3 8 1 9 4 11 5 12 12 13
 SMILES IDX 6 14 7 15 8 17 9 18 11 19 10 20 19 21 20 22 21 23 22 24
 SMILES IDX 27 25 23 26 26 27 24 28 25 29
 H PARENT 3 10 6 16

>  <TORSDO>  (1) 
F 6

$$$$
