/home/pchatterjee/Documents/git/vs_workflow/DiffDock/diffdock_run/pdbqt_scrubbed/Z1677967961.pdbqt
     RDKit          3D

 27 30  0  0  0  0  0  0  0  0999 V2000
    3.8811   44.4444   51.9757 C   0  0  0  0  0  0  0  0  0  0  0  0
    3.1887   45.1976   52.9180 C   0  0  0  0  0  3  0  0  0  0  0  0
    1.8098   45.1771   53.0122 C   0  0  0  0  0  3  0  0  0  0  0  0
    1.1024   44.3772   52.1350 C   0  0  0  0  0  3  0  0  0  0  0  0
    1.7657   43.6221   51.1929 C   0  0  0  0  0  3  0  0  0  0  0  0
    3.1563   43.6497   51.1061 C   0  0  0  0  0  0  0  0  0  0  0  0
    5.3522   44.4840   51.8961 C   0  0  0  0  0  0  0  0  0  0  0  0
    5.9488   44.4102   50.6097 N   0  0  0  0  0  0  0  0  0  0  0  0
    6.0776   44.5796   52.9189 O   0  0  0  0  0  0  0  0  0  0  0  0
    7.3429   44.6421   50.4551 C   0  0  0  0  0  0  0  0  0  0  0  0
    8.2266   43.9592   49.7085 N   0  0  0  0  0  0  0  0  0  0  0  0
    8.0557   45.6183   51.0463 N   0  0  0  0  0  0  0  0  0  0  0  0
    9.4508   44.4958   49.8329 N   0  0  0  0  0  0  0  0  0  0  0  0
    9.3482   45.5444   50.6771 C   0  0  0  0  0  0  0  0  0  0  0  0
   10.3814   46.4813   51.1604 C   0  0  0  0  0  3  0  0  0  0  0  0
   11.0690   46.1455   52.4421 C   0  0  0  0  0  2  0  0  0  0  0  0
    9.7480   47.6744   51.8340 C   0  0  0  0  0  2  0  0  0  0  0  0
   10.1997   47.1298   53.1727 C   0  0  0  0  0  2  0  0  0  0  0  0
    3.8091   42.8694   50.1353 O   0  0  0  0  0  0  0  0  0  0  0  0
    3.3173   42.8213   48.8090 C   0  0  0  0  0  2  0  0  0  0  0  0
    4.1485   41.8544   48.0550 C   0  0  0  0  0  0  0  0  0  0  0  0
    3.4912   40.8497   47.3708 C   0  0  0  0  0  3  0  0  0  0  0  0
    5.5363   41.9483   48.0325 C   0  0  0  0  0  3  0  0  0  0  0  0
    4.2316   39.9257   46.6538 C   0  0  0  0  0  3  0  0  0  0  0  0
    6.2513   41.0116   47.3080 C   0  0  0  0  0  3  0  0  0  0  0  0
    5.6155   40.0020   46.6188 C   0  0  0  0  0  0  0  0  0  0  0  0
    6.3448   39.0992   45.9179 F   0  0  0  0  0  0  0  0  0  0  0  0
  1  2  2  0
  1  7  1  0
  3  2  1  0
  4  3  2  0
  5  4  1  0
  5  6  2  0
  6  1  1  0
  7  9  2  0
  8  7  1  0
  8 10  1  0
 10 11  2  0
 11 13  1  0
 12 10  1  0
 12 14  2  0
 14 13  1  0
 15 14  1  0
 16 15  1  0
 17 15  1  0
 18 16  1  0
 18 17  1  0
 19  6  1  0
 20 19  1  0
 21 20  1  0
 21 22  2  0
 23 21  1  0
 24 22  1  0
 25 23  2  0
 25 26  1  0
 26 24  2  0
 27 26  1  0
M  RAD  8   2   2   3   2   4   2   5   2  15   2  16   3  17   3  18   3
M  RAD  5  20   3  22   2  23   2  24   2  25   2
M  END
>  <REMARK>  (1) 
 SMILES O=C(Nc1n[nH]c(C2CCC2)n1)c1ccccc1OCc1ccc(F)cc1
 SMILES IDX 13 1 14 2 15 3 16 4 17 5 18 6 2 7 3 8 1 9 4 11 5 12 12 13
 SMILES IDX 6 14 7 15 8 17 9 18 11 19 10 20 19 21 20 22 21 23 22 24
 SMILES IDX 27 25 23 26 26 27 24 28 25 29
 H PARENT 3 10 6 16

>  <TORSDO>  (1) 
F 6

$$$$
