/home/pchatterjee/Documents/git/vs_workflow/DiffDock/diffdock_run/pdbqt_scrubbed/Z1677967961.pdbqt
     RDKit          3D

 27 30  0  0  0  0  0  0  0  0999 V2000
    4.2951   42.6480   50.8137 C   0  0  0  0  0  0  0  0  0  0  0  0
    3.7512   42.7062   52.0926 C   0  0  0  0  0  3  0  0  0  0  0  0
    2.7263   41.8721   52.4985 C   0  0  0  0  0  3  0  0  0  0  0  0
    2.2310   40.9511   51.5953 C   0  0  0  0  0  3  0  0  0  0  0  0
    2.7534   40.8743   50.3229 C   0  0  0  0  0  3  0  0  0  0  0  0
    3.7866   41.7198   49.9233 C   0  0  0  0  0  0  0  0  0  0  0  0
    5.3878   43.5489   50.4057 C   0  0  0  0  0  0  0  0  0  0  0  0
    6.5954   42.9605   49.9459 N   0  0  0  0  0  0  0  0  0  0  0  0
    5.2791   44.8008   50.4537 O   0  0  0  0  0  0  0  0  0  0  0  0
    7.8103   43.6976   49.9893 C   0  0  0  0  0  0  0  0  0  0  0  0
    8.8749   43.6043   49.1752 N   0  0  0  0  0  0  0  0  0  0  0  0
    8.1273   44.6538   50.8813 N   0  0  0  0  0  0  0  0  0  0  0  0
    9.8236   44.4764   49.5511 N   0  0  0  0  0  0  0  0  0  0  0  0
    9.3562   45.1421   50.6287 C   0  0  0  0  0  0  0  0  0  0  0  0
    9.9852   46.2051   51.4368 C   0  0  0  0  0  3  0  0  0  0  0  0
    9.4216   46.4610   52.7952 C   0  0  0  0  0  2  0  0  0  0  0  0
    9.5008   47.5663   50.9996 C   0  0  0  0  0  2  0  0  0  0  0  0
    8.6787   47.6561   52.2679 C   0  0  0  0  0  2  0  0  0  0  0  0
    4.3022   41.6210   48.6188 O   0  0  0  0  0  0  0  0  0  0  0  0
    3.9424   40.5319   47.7893 C   0  0  0  0  0  2  0  0  0  0  0  0
    4.1904   40.9337   46.3853 C   0  0  0  0  0  0  0  0  0  0  0  0
    3.1472   41.5277   45.7009 C   0  0  0  0  0  3  0  0  0  0  0  0
    5.4223   40.7243   45.7739 C   0  0  0  0  0  3  0  0  0  0  0  0
    3.3380   41.9180   44.3867 C   0  0  0  0  0  3  0  0  0  0  0  0
    5.5853   41.1240   44.4597 C   0  0  0  0  0  3  0  0  0  0  0  0
    4.5581   41.7181   43.7593 C   0  0  0  0  0  0  0  0  0  0  0  0
    4.7496   42.0987   42.4722 F   0  0  0  0  0  0  0  0  0  0  0  0
  1  2  2  0
  1  7  1  0
  3  2  1  0
  4  3  2  0
  5  4  1  0
  5  6  2  0
  6  1  1  0
  7  9  2  0
  8  7  1  0
  8 10  1  0
 10 11  2  0
 11 13  1  0
 12 10  1  0
 12 14  2  0
 14 13  1  0
 15 14  1  0
 16 15  1  0
 17 15  1  0
 18 16  1  0
 18 17  1  0
 19  6  1  0
 20 19  1  0
 21 20  1  0
 21 22  2  0
 23 21  1  0
 24 22  1  0
 25 23  2  0
 25 26  1  0
 26 24  2  0
 27 26  1  0
M  RAD  8   2   2   3   2   4   2   5   2  15   2  16   3  17   3  18   3
M  RAD  5  20   3  22   2  23   2  24   2  25   2
M  END
>  <REMARK>  (1) 
 SMILES O=C(Nc1n[nH]c(C2CCC2)n1)c1ccccc1OCc1ccc(F)cc1
 SMILES IDX 13 1 14 2 15 3 16 4 17 5 18 6 2 7 3 8 1 9 4 11 5 12 12 13
 SMILES IDX 6 14 7 15 8 17 9 18 11 19 10 20 19 21 20 22 21 23 22 24
 SMILES IDX 27 25 23 26 26 27 24 28 25 29
 H PARENT 3 10 6 16

>  <TORSDO>  (1) 
F 6

$$$$
