/home/pchatterjee/Documents/git/vs_workflow/DiffDock/diffdock_run/pdbqt_scrubbed/Z1677967961.pdbqt
     RDKit          3D

 27 30  0  0  0  0  0  0  0  0999 V2000
    9.3942   63.3846   82.7958 C   0  0  0  0  0  0  0  0  0  0  0  0
    8.4804   62.3944   83.1411 C   0  0  0  0  0  3  0  0  0  0  0  0
    7.1144   62.6015   83.0972 C   0  0  0  0  0  3  0  0  0  0  0  0
    6.6493   63.8390   82.6948 C   0  0  0  0  0  3  0  0  0  0  0  0
    7.5347   64.8357   82.3479 C   0  0  0  0  0  3  0  0  0  0  0  0
    8.9102   64.6169   82.3955 C   0  0  0  0  0  0  0  0  0  0  0  0
   10.8462   63.1383   82.8511 C   0  0  0  0  0  0  0  0  0  0  0  0
   11.3233   62.1977   83.8017 N   0  0  0  0  0  0  0  0  0  0  0  0
   11.6567   63.7288   82.0924 O   0  0  0  0  0  0  0  0  0  0  0  0
   12.6914   61.8112   83.7988 C   0  0  0  0  0  0  0  0  0  0  0  0
   13.5917   61.9292   82.8087 N   0  0  0  0  0  0  0  0  0  0  0  0
   13.3568   61.2385   84.8185 N   0  0  0  0  0  0  0  0  0  0  0  0
   14.7799   61.4442   83.2026 N   0  0  0  0  0  0  0  0  0  0  0  0
   14.6368   61.0065   84.4718 C   0  0  0  0  0  0  0  0  0  0  0  0
   15.6203   60.3855   85.3806 C   0  0  0  0  0  3  0  0  0  0  0  0
   16.7965   59.7066   84.7609 C   0  0  0  0  0  2  0  0  0  0  0  0
   15.1260   59.0448   85.8674 C   0  0  0  0  0  2  0  0  0  0  0  0
   16.1423   58.3700   84.9704 C   0  0  0  0  0  2  0  0  0  0  0  0
    9.7927   65.6511   82.0362 O   0  0  0  0  0  0  0  0  0  0  0  0
    9.3056   66.9622   81.8191 C   0  0  0  0  0  2  0  0  0  0  0  0
   10.4184   67.7711   81.2701 C   0  0  0  0  0  0  0  0  0  0  0  0
   10.1104   68.6882   80.2833 C   0  0  0  0  0  3  0  0  0  0  0  0
   11.7241   67.6186   81.7252 C   0  0  0  0  0  3  0  0  0  0  0  0
   11.1219   69.4640   79.7438 C   0  0  0  0  0  3  0  0  0  0  0  0
   12.7153   68.4068   81.1686 C   0  0  0  0  0  3  0  0  0  0  0  0
   12.4296   69.3272   80.1837 C   0  0  0  0  0  0  0  0  0  0  0  0
   13.4236   70.0848   79.6582 F   0  0  0  0  0  0  0  0  0  0  0  0
  1  2  2  0
  1  7  1  0
  3  2  1  0
  4  3  2  0
  5  4  1  0
  5  6  2  0
  6  1  1  0
  7  9  2  0
  8  7  1  0
  8 10  1  0
 10 11  2  0
 11 13  1  0
 12 10  1  0
 12 14  2  0
 14 13  1  0
 15 14  1  0
 16 15  1  0
 17 15  1  0
 18 16  1  0
 18 17  1  0
 19  6  1  0
 20 19  1  0
 21 20  1  0
 21 22  2  0
 23 21  1  0
 24 22  1  0
 25 23  2  0
 25 26  1  0
 26 24  2  0
 27 26  1  0
M  RAD  8   2   2   3   2   4   2   5   2  15   2  16   3  17   3  18   3
M  RAD  5  20   3  22   2  23   2  24   2  25   2
M  END
>  <REMARK>  (1) 
 SMILES O=C(Nc1n[nH]c(C2CCC2)n1)c1ccccc1OCc1ccc(F)cc1
 SMILES IDX 13 1 14 2 15 3 16 4 17 5 18 6 2 7 3 8 1 9 4 11 5 12 12 13
 SMILES IDX 6 14 7 15 8 17 9 18 11 19 10 20 19 21 20 22 21 23 22 24
 SMILES IDX 27 25 23 26 26 27 24 28 25 29
 H PARENT 3 10 6 16

>  <TORSDO>  (1) 
F 6

$$$$
