/home/pchatterjee/Documents/git/vs_workflow/DiffDock/diffdock_run/pdbqt_scrubbed/Z1677967961.pdbqt
     RDKit          3D

 27 30  0  0  0  0  0  0  0  0999 V2000
    3.8551   44.4279   51.8150 C   0  0  0  0  0  0  0  0  0  0  0  0
    2.9752   45.1479   52.6163 C   0  0  0  0  0  3  0  0  0  0  0  0
    1.6388   44.8138   52.7319 C   0  0  0  0  0  3  0  0  0  0  0  0
    1.1693   43.7247   52.0227 C   0  0  0  0  0  3  0  0  0  0  0  0
    2.0215   42.9960   51.2224 C   0  0  0  0  0  3  0  0  0  0  0  0
    3.3672   43.3409   51.1125 C   0  0  0  0  0  0  0  0  0  0  0  0
    5.2759   44.8049   51.7090 C   0  0  0  0  0  0  0  0  0  0  0  0
    6.0962   44.0566   50.8239 N   0  0  0  0  0  0  0  0  0  0  0  0
    5.7698   45.7540   52.3698 O   0  0  0  0  0  0  0  0  0  0  0  0
    7.4599   44.4138   50.6406 C   0  0  0  0  0  0  0  0  0  0  0  0
    8.4212   43.7383   49.9892 N   0  0  0  0  0  0  0  0  0  0  0  0
    8.0572   45.5286   51.0998 N   0  0  0  0  0  0  0  0  0  0  0  0
    9.5800   44.4139   50.0429 N   0  0  0  0  0  0  0  0  0  0  0  0
    9.3554   45.5459   50.7436 C   0  0  0  0  0  0  0  0  0  0  0  0
   10.2769   46.6422   51.1010 C   0  0  0  0  0  3  0  0  0  0  0  0
   10.8096   46.6659   52.4953 C   0  0  0  0  0  2  0  0  0  0  0  0
    9.5115   47.9105   51.3914 C   0  0  0  0  0  2  0  0  0  0  0  0
    9.8124   47.7279   52.8641 C   0  0  0  0  0  2  0  0  0  0  0  0
    4.2161   42.5805   50.2887 O   0  0  0  0  0  0  0  0  0  0  0  0
    3.8350   41.2811   49.8766 C   0  0  0  0  0  2  0  0  0  0  0  0
    4.3830   41.0604   48.5183 C   0  0  0  0  0  0  0  0  0  0  0  0
    3.5264   40.5466   47.5634 C   0  0  0  0  0  3  0  0  0  0  0  0
    5.7068   41.3565   48.2094 C   0  0  0  0  0  3  0  0  0  0  0  0
    3.9995   40.3255   46.2816 C   0  0  0  0  0  3  0  0  0  0  0  0
    6.1531   41.1258   46.9205 C   0  0  0  0  0  3  0  0  0  0  0  0
    5.3154   40.6140   45.9535 C   0  0  0  0  0  0  0  0  0  0  0  0
    5.7832   40.3992   44.6993 F   0  0  0  0  0  0  0  0  0  0  0  0
  1  2  2  0
  1  7  1  0
  3  2  1  0
  4  3  2  0
  5  4  1  0
  5  6  2  0
  6  1  1  0
  7  9  2  0
  8  7  1  0
  8 10  1  0
 10 11  2  0
 11 13  1  0
 12 10  1  0
 12 14  2  0
 14 13  1  0
 15 14  1  0
 16 15  1  0
 17 15  1  0
 18 16  1  0
 18 17  1  0
 19  6  1  0
 20 19  1  0
 21 20  1  0
 21 22  2  0
 23 21  1  0
 24 22  1  0
 25 23  2  0
 25 26  1  0
 26 24  2  0
 27 26  1  0
M  RAD  8   2   2   3   2   4   2   5   2  15   2  16   3  17   3  18   3
M  RAD  5  20   3  22   2  23   2  24   2  25   2
M  END
>  <REMARK>  (1) 
 SMILES O=C(Nc1n[nH]c(C2CCC2)n1)c1ccccc1OCc1ccc(F)cc1
 SMILES IDX 13 1 14 2 15 3 16 4 17 5 18 6 2 7 3 8 1 9 4 11 5 12 12 13
 SMILES IDX 6 14 7 15 8 17 9 18 11 19 10 20 19 21 20 22 21 23 22 24
 SMILES IDX 27 25 23 26 26 27 24 28 25 29
 H PARENT 3 10 6 16

>  <TORSDO>  (1) 
F 6

$$$$
