/home/pchatterjee/Documents/git/vs_workflow/DiffDock/diffdock_run/pdbqt_scrubbed/Z1677967961.pdbqt
     RDKit          3D

 27 30  0  0  0  0  0  0  0  0999 V2000
    4.2576   42.4797   50.6949 C   0  0  0  0  0  0  0  0  0  0  0  0
    3.7299   42.4291   51.9808 C   0  0  0  0  0  3  0  0  0  0  0  0
    2.8138   41.4686   52.3666 C   0  0  0  0  0  3  0  0  0  0  0  0
    2.4138   40.5295   51.4351 C   0  0  0  0  0  3  0  0  0  0  0  0
    2.9222   40.5590   50.1551 C   0  0  0  0  0  3  0  0  0  0  0  0
    3.8455   41.5316   49.7760 C   0  0  0  0  0  0  0  0  0  0  0  0
    5.2333   43.5145   50.3087 C   0  0  0  0  0  0  0  0  0  0  0  0
    6.4719   43.0868   49.7618 N   0  0  0  0  0  0  0  0  0  0  0  0
    5.0007   44.7424   50.4488 O   0  0  0  0  0  0  0  0  0  0  0  0
    7.6176   43.9239   49.8488 C   0  0  0  0  0  0  0  0  0  0  0  0
    8.7843   43.8157   49.1916 N   0  0  0  0  0  0  0  0  0  0  0  0
    7.7485   45.0121   50.6293 N   0  0  0  0  0  0  0  0  0  0  0  0
    9.6138   44.8072   49.5537 N   0  0  0  0  0  0  0  0  0  0  0  0
    8.9641   45.5659   50.4619 C   0  0  0  0  0  0  0  0  0  0  0  0
    9.4073   46.7752   51.1829 C   0  0  0  0  0  3  0  0  0  0  0  0
   10.3561   46.5889   52.3202 C   0  0  0  0  0  2  0  0  0  0  0  0
    8.3522   47.2307   52.1617 C   0  0  0  0  0  2  0  0  0  0  0  0
    9.2229   46.7340   53.2965 C   0  0  0  0  0  2  0  0  0  0  0  0
    4.3491   41.5396   48.4632 O   0  0  0  0  0  0  0  0  0  0  0  0
    4.0432   40.4812   47.5745 C   0  0  0  0  0  2  0  0  0  0  0  0
    4.4354   40.9094   46.2119 C   0  0  0  0  0  0  0  0  0  0  0  0
    3.4207   41.2256   45.3287 C   0  0  0  0  0  3  0  0  0  0  0  0
    5.7705   40.9921   45.8297 C   0  0  0  0  0  3  0  0  0  0  0  0
    3.7450   41.6303   44.0453 C   0  0  0  0  0  3  0  0  0  0  0  0
    6.0661   41.3993   44.5412 C   0  0  0  0  0  3  0  0  0  0  0  0
    5.0695   41.7192   43.6450 C   0  0  0  0  0  0  0  0  0  0  0  0
    5.3919   42.1150   42.3890 F   0  0  0  0  0  0  0  0  0  0  0  0
  1  2  2  0
  1  7  1  0
  3  2  1  0
  4  3  2  0
  5  4  1  0
  5  6  2  0
  6  1  1  0
  7  9  2  0
  8  7  1  0
  8 10  1  0
 10 11  2  0
 11 13  1  0
 12 10  1  0
 12 14  2  0
 14 13  1  0
 15 14  1  0
 16 15  1  0
 17 15  1  0
 18 16  1  0
 18 17  1  0
 19  6  1  0
 20 19  1  0
 21 20  1  0
 21 22  2  0
 23 21  1  0
 24 22  1  0
 25 23  2  0
 25 26  1  0
 26 24  2  0
 27 26  1  0
M  RAD  8   2   2   3   2   4   2   5   2  15   2  16   3  17   3  18   3
M  RAD  5  20   3  22   2  23   2  24   2  25   2
M  END
>  <REMARK>  (1) 
 SMILES O=C(Nc1n[nH]c(C2CCC2)n1)c1ccccc1OCc1ccc(F)cc1
 SMILES IDX 13 1 14 2 15 3 16 4 17 5 18 6 2 7 3 8 1 9 4 11 5 12 12 13
 SMILES IDX 6 14 7 15 8 17 9 18 11 19 10 20 19 21 20 22 21 23 22 24
 SMILES IDX 27 25 23 26 26 27 24 28 25 29
 H PARENT 3 10 6 16

>  <TORSDO>  (1) 
F 6

$$$$
