/home/pchatterjee/Documents/git/vs_workflow/DiffDock/diffdock_run/pdbqt_scrubbed/Z1677967961.pdbqt
     RDKit          3D

 27 30  0  0  0  0  0  0  0  0999 V2000
    4.2403   41.8697   49.9827 C   0  0  0  0  0  0  0  0  0  0  0  0
    3.7244   41.6287   51.2517 C   0  0  0  0  0  3  0  0  0  0  0  0
    2.8981   40.5539   51.5217 C   0  0  0  0  0  3  0  0  0  0  0  0
    2.5786   39.6939   50.4884 C   0  0  0  0  0  3  0  0  0  0  0  0
    3.0772   39.9118   49.2228 C   0  0  0  0  0  3  0  0  0  0  0  0
    3.9096   40.9983   48.9607 C   0  0  0  0  0  0  0  0  0  0  0  0
    5.1195   43.0232   49.7209 C   0  0  0  0  0  0  0  0  0  0  0  0
    6.4306   42.7624   49.2424 N   0  0  0  0  0  0  0  0  0  0  0  0
    4.7446   44.2090   49.9071 O   0  0  0  0  0  0  0  0  0  0  0  0
    7.5223   43.5604   49.6809 C   0  0  0  0  0  0  0  0  0  0  0  0
    8.6550   43.8617   49.0242 N   0  0  0  0  0  0  0  0  0  0  0  0
    7.6254   44.1799   50.8709 N   0  0  0  0  0  0  0  0  0  0  0  0
    9.4370   44.6446   49.7843 N   0  0  0  0  0  0  0  0  0  0  0  0
    8.7910   44.8486   50.9522 C   0  0  0  0  0  0  0  0  0  0  0  0
    9.1942   45.6286   52.1387 C   0  0  0  0  0  3  0  0  0  0  0  0
    8.1548   46.4823   52.7862 C   0  0  0  0  0  2  0  0  0  0  0  0
    9.9386   46.8766   51.7302 C   0  0  0  0  0  2  0  0  0  0  0  0
    8.7249   47.6979   52.1112 C   0  0  0  0  0  2  0  0  0  0  0  0
    4.4052   41.1981   47.6601 O   0  0  0  0  0  0  0  0  0  0  0  0
    4.1383   40.2526   46.6411 C   0  0  0  0  0  2  0  0  0  0  0  0
    4.4113   40.9040   45.3392 C   0  0  0  0  0  0  0  0  0  0  0  0
    5.7049   40.8425   44.8569 C   0  0  0  0  0  3  0  0  0  0  0  0
    3.4098   41.5539   44.6250 C   0  0  0  0  0  3  0  0  0  0  0  0
    6.0017   41.4388   43.6436 C   0  0  0  0  0  3  0  0  0  0  0  0
    3.7343   42.1412   43.4153 C   0  0  0  0  0  3  0  0  0  0  0  0
    5.0178   42.0913   42.9165 C   0  0  0  0  0  0  0  0  0  0  0  0
    5.3039   42.6769   41.7277 F   0  0  0  0  0  0  0  0  0  0  0  0
  1  2  2  0
  1  7  1  0
  3  2  1  0
  4  3  2  0
  5  4  1  0
  5  6  2  0
  6  1  1  0
  7  9  2  0
  8  7  1  0
  8 10  1  0
 10 11  2  0
 11 13  1  0
 12 10  1  0
 12 14  2  0
 14 13  1  0
 15 14  1  0
 16 15  1  0
 17 15  1  0
 18 16  1  0
 18 17  1  0
 19  6  1  0
 20 19  1  0
 21 20  1  0
 21 22  2  0
 23 21  1  0
 24 22  1  0
 25 23  2  0
 25 26  1  0
 26 24  2  0
 27 26  1  0
M  RAD  8   2   2   3   2   4   2   5   2  15   2  16   3  17   3  18   3
M  RAD  5  20   3  22   2  23   2  24   2  25   2
M  END
>  <REMARK>  (1) 
 SMILES O=C(Nc1n[nH]c(C2CCC2)n1)c1ccccc1OCc1ccc(F)cc1
 SMILES IDX 13 1 14 2 15 3 16 4 17 5 18 6 2 7 3 8 1 9 4 11 5 12 12 13
 SMILES IDX 6 14 7 15 8 17 9 18 11 19 10 20 19 21 20 22 21 23 22 24
 SMILES IDX 27 25 23 26 26 27 24 28 25 29
 H PARENT 3 10 6 16

>  <TORSDO>  (1) 
F 6

$$$$
