/home/pchatterjee/Documents/git/vs_workflow/DiffDock/diffdock_run/pdbqt_scrubbed/Z1366063550.pdbqt
     RDKit          3D

 27 30  0  0  1  0  0  0  0  0999 V2000
    6.3343   42.9095   49.7863 C   0  0  0  0  0  0  0  0  0  0  0  0
    6.6583   42.2294   48.6199 C   0  0  0  0  0  3  0  0  0  0  0  0
    5.7081   41.5089   47.9440 C   0  0  0  0  0  3  0  0  0  0  0  0
    4.4104   41.4396   48.4009 C   0  0  0  0  0  3  0  0  0  0  0  0
    4.0493   42.1083   49.5643 C   0  0  0  0  0  3  0  0  0  0  0  0
    5.0418   42.8300   50.2226 C   0  0  0  0  0  0  0  0  0  0  0  0
    7.4035   43.6390   50.4270 C   0  0  0  0  0  0  0  0  0  0  0  0
    8.5849   44.1084   49.8316 N   0  0  0  0  0  0  0  0  0  0  0  0
    7.2636   43.8901   51.6703 O   0  0  0  0  0  0  0  0  0  0  0  0
    9.6180   44.7609   50.6262 C   0  0  0  0  0  3  0  0  0  0  0  0
   10.3952   43.7510   51.4238 C   0  0  0  0  0  1  0  0  0  0  0  0
    8.9834   45.8102   51.4470 C   0  0  0  0  0  0  0  0  0  0  0  0
    7.7110   46.2774   51.3605 N   0  0  0  0  0  0  0  0  0  0  0  0
    9.6034   46.4498   52.4071 O   0  0  0  0  0  0  0  0  0  0  0  0
    7.6156   47.2170   52.3113 C   0  0  0  0  0  0  0  0  0  0  0  0
    8.8120   47.3035   52.9493 N   0  0  0  0  0  0  0  0  0  0  0  0
    6.4644   48.0715   52.6901 C   0  0  0  0  0  3  0  0  0  0  0  0
    5.2341   47.2285   52.9054 C   0  0  0  0  0  2  0  0  0  0  0  0
    6.7781   48.9701   53.8553 C   0  0  0  0  0  2  0  0  0  0  0  0
    5.2407   46.5244   54.2422 C   0  0  0  0  0  2  0  0  0  0  0  0
    6.5400   48.3542   55.1967 C   0  0  0  0  0  2  0  0  0  0  0  0
    5.2276   47.6104   55.2993 C   0  0  0  0  0  2  0  0  0  0  0  0
    4.6173   43.4861   51.3806 O   0  0  0  0  0  0  0  0  0  0  0  0
    3.2159   43.4591   51.6343 C   0  0  0  0  0  2  0  0  0  0  0  0
    2.9373   44.1865   52.9280 C   0  0  0  0  0  3  0  0  0  0  0  0
    1.6111   44.7975   53.1537 C   0  0  0  0  0  2  0  0  0  0  0  0
    2.7490   45.7190   52.8071 C   0  0  0  0  0  2  0  0  0  0  0  0
  1  7  1  0
  2  1  2  0
  3  2  1  0
  4  3  2  0
  4  5  1  0
  5  6  2  0
  6  1  1  0
  6 23  1  0
  7  9  2  0
  7  8  1  0
  8 10  1  0
 10 12  1  0
 10 11  1  0
 12 14  1  0
 13 12  2  0
 13 15  1  0
 14 16  1  0
 15 16  2  0
 17 15  1  0
 17 19  1  0
 18 20  1  0
 18 17  1  0
 20 22  1  0
 21 19  1  0
 22 21  1  0
 23 24  1  0
 24 25  1  0
 25 27  1  0
 25 26  1  0
 27 26  1  0
M  RAD  8   2   2   3   2   4   2   5   2  10   2  11   2  17   2  18   3
M  RAD  8  19   3  20   3  21   3  22   3  24   3  25   2  26   3  27   3
M  END
>  <REMARK>  (1) 
 SMILES CC(NC(=O)c1ccccc1OCC1CC1)c1nc(C2CCCCC2)no1
 SMILES IDX 6 1 7 2 8 3 9 4 10 5 11 6 4 7 3 8 5 10 2 11 1 12 17 13 18 14
 SMILES IDX 27 15 19 16 26 17 20 18 21 19 25 20 22 21 24 22 23 23 12 24
 SMILES IDX 13 25 14 26 15 27 16 28
 H PARENT 3 9

>  <TORSDO>  (1) 
F 7

$$$$
