/home/pchatterjee/Documents/git/vs_workflow/DiffDock/diffdock_run/pdbqt_scrubbed/Z1366063550.pdbqt
     RDKit          3D

 27 30  0  0  1  0  0  0  0  0999 V2000
    3.4800   43.2119   51.1493 C   0  0  0  0  0  0  0  0  0  0  0  0
    2.9841   41.9160   51.0966 C   0  0  0  0  0  3  0  0  0  0  0  0
    1.9137   41.5454   51.8684 C   0  0  0  0  0  3  0  0  0  0  0  0
    1.3023   42.4443   52.7144 C   0  0  0  0  0  3  0  0  0  0  0  0
    1.7707   43.7503   52.7928 C   0  0  0  0  0  3  0  0  0  0  0  0
    2.8593   44.0893   51.9931 C   0  0  0  0  0  0  0  0  0  0  0  0
    4.6108   43.5058   50.3004 C   0  0  0  0  0  0  0  0  0  0  0  0
    5.2890   42.6152   49.4534 N   0  0  0  0  0  0  0  0  0  0  0  0
    5.0441   44.7060   50.3152 O   0  0  0  0  0  0  0  0  0  0  0  0
    6.4546   43.0447   48.6911 C   0  0  0  0  0  3  0  0  0  0  0  0
    7.1280   41.8695   48.0385 C   0  0  0  0  0  1  0  0  0  0  0  0
    7.3379   43.8191   49.5841 C   0  0  0  0  0  0  0  0  0  0  0  0
    7.2183   43.9921   50.9260 N   0  0  0  0  0  0  0  0  0  0  0  0
    8.3980   44.4659   49.1681 O   0  0  0  0  0  0  0  0  0  0  0  0
    8.2541   44.7676   51.2747 C   0  0  0  0  0  0  0  0  0  0  0  0
    8.9740   45.0482   50.1572 N   0  0  0  0  0  0  0  0  0  0  0  0
    8.6447   45.2881   52.6071 C   0  0  0  0  0  3  0  0  0  0  0  0
    9.8157   46.2280   52.4801 C   0  0  0  0  0  2  0  0  0  0  0  0
    7.4820   45.8875   53.3504 C   0  0  0  0  0  2  0  0  0  0  0  0
    9.4091   47.5971   51.9872 C   0  0  0  0  0  2  0  0  0  0  0  0
    7.2313   47.3309   53.0518 C   0  0  0  0  0  2  0  0  0  0  0  0
    8.4854   48.1755   53.0403 C   0  0  0  0  0  2  0  0  0  0  0  0
    3.2798   45.4164   52.1098 O   0  0  0  0  0  0  0  0  0  0  0  0
    3.1008   46.0171   53.3889 C   0  0  0  0  0  2  0  0  0  0  0  0
    3.7380   47.3860   53.3817 C   0  0  0  0  0  3  0  0  0  0  0  0
    5.0504   47.5796   52.7310 C   0  0  0  0  0  2  0  0  0  0  0  0
    5.0225   47.5312   54.2347 C   0  0  0  0  0  2  0  0  0  0  0  0
  1  7  1  0
  2  1  2  0
  3  2  1  0
  4  3  2  0
  4  5  1  0
  5  6  2  0
  6  1  1  0
  6 23  1  0
  7  9  2  0
  7  8  1  0
  8 10  1  0
 10 12  1  0
 10 11  1  0
 12 14  1  0
 13 12  2  0
 13 15  1  0
 14 16  1  0
 15 16  2  0
 17 15  1  0
 17 19  1  0
 18 20  1  0
 18 17  1  0
 20 22  1  0
 21 19  1  0
 22 21  1  0
 23 24  1  0
 24 25  1  0
 25 27  1  0
 25 26  1  0
 27 26  1  0
M  RAD  8   2   2   3   2   4   2   5   2  10   2  11   2  17   2  18   3
M  RAD  8  19   3  20   3  21   3  22   3  24   3  25   2  26   3  27   3
M  END
>  <REMARK>  (1) 
 SMILES CC(NC(=O)c1ccccc1OCC1CC1)c1nc(C2CCCCC2)no1
 SMILES IDX 6 1 7 2 8 3 9 4 10 5 11 6 4 7 3 8 5 10 2 11 1 12 17 13 18 14
 SMILES IDX 27 15 19 16 26 17 20 18 21 19 25 20 22 21 24 22 23 23 12 24
 SMILES IDX 13 25 14 26 15 27 16 28
 H PARENT 3 9

>  <TORSDO>  (1) 
F 7

$$$$
