/home/pchatterjee/Documents/git/vs_workflow/DiffDock/diffdock_run/pdbqt_scrubbed/Z1366063550.pdbqt
     RDKit          3D

 27 30  0  0  1  0  0  0  0  0999 V2000
    3.7163   44.5440   51.3016 C   0  0  0  0  0  0  0  0  0  0  0  0
    3.3101   45.7521   51.8524 C   0  0  0  0  0  3  0  0  0  0  0  0
    2.2199   45.8110   52.6811 C   0  0  0  0  0  3  0  0  0  0  0  0
    1.4997   44.6781   52.9896 C   0  0  0  0  0  3  0  0  0  0  0  0
    1.8773   43.4511   52.4575 C   0  0  0  0  0  3  0  0  0  0  0  0
    2.9902   43.4313   51.6207 C   0  0  0  0  0  0  0  0  0  0  0  0
    4.8747   44.5838   50.4401 C   0  0  0  0  0  0  0  0  0  0  0  0
    5.3600   43.5499   49.6239 N   0  0  0  0  0  0  0  0  0  0  0  0
    5.5321   45.6772   50.4110 O   0  0  0  0  0  0  0  0  0  0  0  0
    6.6259   43.6852   48.9143 C   0  0  0  0  0  3  0  0  0  0  0  0
    7.0343   42.3763   48.2975 C   0  0  0  0  0  1  0  0  0  0  0  0
    7.6255   44.2451   49.8440 C   0  0  0  0  0  0  0  0  0  0  0  0
    7.5120   44.4074   51.1878 N   0  0  0  0  0  0  0  0  0  0  0  0
    8.8032   44.6751   49.4652 O   0  0  0  0  0  0  0  0  0  0  0  0
    8.6739   44.9504   51.5763 C   0  0  0  0  0  0  0  0  0  0  0  0
    9.4612   45.1065   50.4801 N   0  0  0  0  0  0  0  0  0  0  0  0
    9.1299   45.3507   52.9294 C   0  0  0  0  0  3  0  0  0  0  0  0
   10.3263   46.2615   52.8313 C   0  0  0  0  0  2  0  0  0  0  0  0
    8.0157   45.9239   53.7622 C   0  0  0  0  0  2  0  0  0  0  0  0
    9.9481   47.6774   52.4639 C   0  0  0  0  0  2  0  0  0  0  0  0
    7.8028   47.3935   53.5882 C   0  0  0  0  0  2  0  0  0  0  0  0
    9.0832   48.1977   53.5944 C   0  0  0  0  0  2  0  0  0  0  0  0
    3.3252   42.1697   51.1229 O   0  0  0  0  0  0  0  0  0  0  0  0
    2.4170   41.6108   50.1785 C   0  0  0  0  0  2  0  0  0  0  0  0
    2.9770   40.3022   49.6742 C   0  0  0  0  0  3  0  0  0  0  0  0
    2.1691   39.4608   48.7673 C   0  0  0  0  0  2  0  0  0  0  0  0
    2.2772   39.0261   50.2038 C   0  0  0  0  0  2  0  0  0  0  0  0
  1  7  1  0
  2  1  2  0
  3  2  1  0
  4  3  2  0
  4  5  1  0
  5  6  2  0
  6  1  1  0
  6 23  1  0
  7  9  2  0
  7  8  1  0
  8 10  1  0
 10 12  1  0
 10 11  1  0
 12 14  1  0
 13 12  2  0
 13 15  1  0
 14 16  1  0
 15 16  2  0
 17 15  1  0
 17 19  1  0
 18 20  1  0
 18 17  1  0
 20 22  1  0
 21 19  1  0
 22 21  1  0
 23 24  1  0
 24 25  1  0
 25 27  1  0
 25 26  1  0
 27 26  1  0
M  RAD  8   2   2   3   2   4   2   5   2  10   2  11   2  17   2  18   3
M  RAD  8  19   3  20   3  21   3  22   3  24   3  25   2  26   3  27   3
M  END
>  <REMARK>  (1) 
 SMILES CC(NC(=O)c1ccccc1OCC1CC1)c1nc(C2CCCCC2)no1
 SMILES IDX 6 1 7 2 8 3 9 4 10 5 11 6 4 7 3 8 5 10 2 11 1 12 17 13 18 14
 SMILES IDX 27 15 19 16 26 17 20 18 21 19 25 20 22 21 24 22 23 23 12 24
 SMILES IDX 13 25 14 26 15 27 16 28
 H PARENT 3 9

>  <TORSDO>  (1) 
F 7

$$$$
