/home/pchatterjee/Documents/git/vs_workflow/DiffDock/diffdock_run/pdbqt_scrubbed/Z1366063550.pdbqt
     RDKit          3D

 27 30  0  0  1  0  0  0  0  0999 V2000
    3.5849   43.4572   50.9981 C   0  0  0  0  0  0  0  0  0  0  0  0
    2.7874   42.3533   50.7269 C   0  0  0  0  0  3  0  0  0  0  0  0
    1.6718   42.0951   51.4803 C   0  0  0  0  0  3  0  0  0  0  0  0
    1.3119   42.9199   52.5232 C   0  0  0  0  0  3  0  0  0  0  0  0
    2.0857   44.0346   52.8233 C   0  0  0  0  0  3  0  0  0  0  0  0
    3.2107   44.2642   52.0353 C   0  0  0  0  0  0  0  0  0  0  0  0
    4.7391   43.6442   50.1503 C   0  0  0  0  0  0  0  0  0  0  0  0
    5.3354   42.6923   49.3083 N   0  0  0  0  0  0  0  0  0  0  0  0
    5.2789   44.8004   50.1611 O   0  0  0  0  0  0  0  0  0  0  0  0
    6.5573   42.9993   48.5753 C   0  0  0  0  0  3  0  0  0  0  0  0
    7.1362   41.7562   47.9588 C   0  0  0  0  0  1  0  0  0  0  0  0
    7.4833   43.7025   49.4837 C   0  0  0  0  0  0  0  0  0  0  0  0
    7.3027   43.9842   50.8001 N   0  0  0  0  0  0  0  0  0  0  0  0
    8.6510   44.1632   49.1100 O   0  0  0  0  0  0  0  0  0  0  0  0
    8.4151   44.6289   51.1781 C   0  0  0  0  0  0  0  0  0  0  0  0
    9.2396   44.7266   50.1026 N   0  0  0  0  0  0  0  0  0  0  0  0
    8.7892   45.1814   52.5023 C   0  0  0  0  0  3  0  0  0  0  0  0
    9.9656   46.1135   52.3681 C   0  0  0  0  0  2  0  0  0  0  0  0
    7.6187   45.8036   53.2139 C   0  0  0  0  0  2  0  0  0  0  0  0
    9.5714   47.4713   51.8353 C   0  0  0  0  0  2  0  0  0  0  0  0
    7.3779   47.2399   52.8757 C   0  0  0  0  0  2  0  0  0  0  0  0
    8.6354   48.0794   52.8605 C   0  0  0  0  0  2  0  0  0  0  0  0
    3.9437   45.4024   52.3800 O   0  0  0  0  0  0  0  0  0  0  0  0
    3.8544   45.8130   53.7411 C   0  0  0  0  0  2  0  0  0  0  0  0
    4.8623   46.9095   53.9900 C   0  0  0  0  0  3  0  0  0  0  0  0
    4.4713   48.0996   54.7735 C   0  0  0  0  0  2  0  0  0  0  0  0
    4.5756   48.2561   53.2806 C   0  0  0  0  0  2  0  0  0  0  0  0
  1  7  1  0
  2  1  2  0
  3  2  1  0
  4  3  2  0
  4  5  1  0
  5  6  2  0
  6  1  1  0
  6 23  1  0
  7  9  2  0
  7  8  1  0
  8 10  1  0
 10 12  1  0
 10 11  1  0
 12 14  1  0
 13 12  2  0
 13 15  1  0
 14 16  1  0
 15 16  2  0
 17 15  1  0
 17 19  1  0
 18 20  1  0
 18 17  1  0
 20 22  1  0
 21 19  1  0
 22 21  1  0
 23 24  1  0
 24 25  1  0
 25 27  1  0
 25 26  1  0
 27 26  1  0
M  RAD  8   2   2   3   2   4   2   5   2  10   2  11   2  17   2  18   3
M  RAD  8  19   3  20   3  21   3  22   3  24   3  25   2  26   3  27   3
M  END
>  <REMARK>  (1) 
 SMILES CC(NC(=O)c1ccccc1OCC1CC1)c1nc(C2CCCCC2)no1
 SMILES IDX 6 1 7 2 8 3 9 4 10 5 11 6 4 7 3 8 5 10 2 11 1 12 17 13 18 14
 SMILES IDX 27 15 19 16 26 17 20 18 21 19 25 20 22 21 24 22 23 23 12 24
 SMILES IDX 13 25 14 26 15 27 16 28
 H PARENT 3 9

>  <TORSDO>  (1) 
F 7

$$$$
