/home/pchatterjee/Documents/git/vs_workflow/DiffDock/diffdock_run/pdbqt_scrubbed/Z1366063550.pdbqt
     RDKit          3D

 27 30  0  0  1  0  0  0  0  0999 V2000
    4.4668   44.9038   52.0005 C   0  0  0  0  0  0  0  0  0  0  0  0
    4.2788   45.7314   53.0996 C   0  0  0  0  0  3  0  0  0  0  0  0
    3.2048   45.5539   53.9326 C   0  0  0  0  0  3  0  0  0  0  0  0
    2.2856   44.5537   53.7038 C   0  0  0  0  0  3  0  0  0  0  0  0
    2.4418   43.7057   52.6140 C   0  0  0  0  0  3  0  0  0  0  0  0
    3.5453   43.9168   51.7913 C   0  0  0  0  0  0  0  0  0  0  0  0
    5.6263   45.1705   51.1820 C   0  0  0  0  0  0  0  0  0  0  0  0
    6.2006   44.3210   50.2233 N   0  0  0  0  0  0  0  0  0  0  0  0
    6.1942   46.3022   51.3410 O   0  0  0  0  0  0  0  0  0  0  0  0
    7.4624   44.6616   49.5782 C   0  0  0  0  0  3  0  0  0  0  0  0
    8.0382   43.4678   48.8685 C   0  0  0  0  0  1  0  0  0  0  0  0
    8.3625   45.2459   50.5910 C   0  0  0  0  0  0  0  0  0  0  0  0
    8.1615   45.3311   51.9316 N   0  0  0  0  0  0  0  0  0  0  0  0
    9.5233   45.7800   50.3036 O   0  0  0  0  0  0  0  0  0  0  0  0
    9.2548   45.9378   52.4137 C   0  0  0  0  0  0  0  0  0  0  0  0
   10.0883   46.2067   51.3750 N   0  0  0  0  0  0  0  0  0  0  0  0
    9.6022   46.3016   53.8087 C   0  0  0  0  0  3  0  0  0  0  0  0
   10.8136   47.1974   53.8307 C   0  0  0  0  0  2  0  0  0  0  0  0
    8.4300   46.8719   54.5598 C   0  0  0  0  0  2  0  0  0  0  0  0
   10.4847   48.6262   53.4664 C   0  0  0  0  0  2  0  0  0  0  0  0
    8.2503   48.3479   54.4030 C   0  0  0  0  0  2  0  0  0  0  0  0
    9.5355   49.1336   54.5335 C   0  0  0  0  0  2  0  0  0  0  0  0
    3.6527   43.0293   50.7178 O   0  0  0  0  0  0  0  0  0  0  0  0
    2.5180   42.2028   50.4761 C   0  0  0  0  0  2  0  0  0  0  0  0
    2.6854   41.5174   49.1411 C   0  0  0  0  0  3  0  0  0  0  0  0
    3.0509   40.0866   49.0931 C   0  0  0  0  0  2  0  0  0  0  0  0
    4.1305   41.0885   48.7853 C   0  0  0  0  0  2  0  0  0  0  0  0
  1  7  1  0
  2  1  2  0
  3  2  1  0
  4  3  2  0
  4  5  1  0
  5  6  2  0
  6  1  1  0
  6 23  1  0
  7  9  2  0
  7  8  1  0
  8 10  1  0
 10 12  1  0
 10 11  1  0
 12 14  1  0
 13 12  2  0
 13 15  1  0
 14 16  1  0
 15 16  2  0
 17 15  1  0
 17 19  1  0
 18 20  1  0
 18 17  1  0
 20 22  1  0
 21 19  1  0
 22 21  1  0
 23 24  1  0
 24 25  1  0
 25 27  1  0
 25 26  1  0
 27 26  1  0
M  RAD  8   2   2   3   2   4   2   5   2  10   2  11   2  17   2  18   3
M  RAD  8  19   3  20   3  21   3  22   3  24   3  25   2  26   3  27   3
M  END
>  <REMARK>  (1) 
 SMILES CC(NC(=O)c1ccccc1OCC1CC1)c1nc(C2CCCCC2)no1
 SMILES IDX 6 1 7 2 8 3 9 4 10 5 11 6 4 7 3 8 5 10 2 11 1 12 17 13 18 14
 SMILES IDX 27 15 19 16 26 17 20 18 21 19 25 20 22 21 24 22 23 23 12 24
 SMILES IDX 13 25 14 26 15 27 16 28
 H PARENT 3 9

>  <TORSDO>  (1) 
F 7

$$$$
