/home/pchatterjee/Documents/git/vs_workflow/DiffDock/diffdock_run/pdbqt_scrubbed/Z1366063550.pdbqt
     RDKit          3D

 27 30  0  0  1  0  0  0  0  0999 V2000
   12.3398   56.8189   86.4472 C   0  0  0  0  0  0  0  0  0  0  0  0
   12.6015   55.5601   85.9228 C   0  0  0  0  0  3  0  0  0  0  0  0
   13.7535   54.8927   86.2489 C   0  0  0  0  0  3  0  0  0  0  0  0
   14.6801   55.4497   87.1026 C   0  0  0  0  0  3  0  0  0  0  0  0
   14.4516   56.7075   87.6474 C   0  0  0  0  0  3  0  0  0  0  0  0
   13.2700   57.3538   87.2932 C   0  0  0  0  0  0  0  0  0  0  0  0
   11.1011   57.4420   86.0436 C   0  0  0  0  0  0  0  0  0  0  0  0
   10.3558   57.1742   84.8845 N   0  0  0  0  0  0  0  0  0  0  0  0
   10.6250   58.3329   86.8234 O   0  0  0  0  0  0  0  0  0  0  0  0
    9.3806   58.1332   84.3809 C   0  0  0  0  0  3  0  0  0  0  0  0
    8.5487   57.5237   83.2868 C   0  0  0  0  0  1  0  0  0  0  0  0
   10.0960   59.3583   83.9753 C   0  0  0  0  0  0  0  0  0  0  0  0
   11.3685   59.7189   84.2846 N   0  0  0  0  0  0  0  0  0  0  0  0
    9.5620   60.2932   83.2296 O   0  0  0  0  0  0  0  0  0  0  0  0
   11.5536   60.9042   83.6874 C   0  0  0  0  0  0  0  0  0  0  0  0
   10.4093   61.2386   83.0358 N   0  0  0  0  0  0  0  0  0  0  0  0
   12.7476   61.7835   83.6711 C   0  0  0  0  0  3  0  0  0  0  0  0
   14.0010   60.9690   83.8609 C   0  0  0  0  0  2  0  0  0  0  0  0
   12.7926   62.6645   82.4524 C   0  0  0  0  0  2  0  0  0  0  0  0
   14.4242   60.2539   82.5990 C   0  0  0  0  0  2  0  0  0  0  0  0
   13.4478   62.0434   81.2606 C   0  0  0  0  0  2  0  0  0  0  0  0
   14.7423   61.3311   81.5815 C   0  0  0  0  0  2  0  0  0  0  0  0
   13.0929   58.6103   87.8775 O   0  0  0  0  0  0  0  0  0  0  0  0
   14.0773   59.5898   87.5603 C   0  0  0  0  0  2  0  0  0  0  0  0
   13.6964   60.8975   88.2124 C   0  0  0  0  0  3  0  0  0  0  0  0
   14.6432   61.5597   89.1334 C   0  0  0  0  0  2  0  0  0  0  0  0
   13.4703   60.8412   89.7435 C   0  0  0  0  0  2  0  0  0  0  0  0
  1  7  1  0
  2  1  2  0
  3  2  1  0
  4  3  2  0
  4  5  1  0
  5  6  2  0
  6  1  1  0
  6 23  1  0
  7  9  2  0
  7  8  1  0
  8 10  1  0
 10 12  1  0
 10 11  1  0
 12 14  1  0
 13 12  2  0
 13 15  1  0
 14 16  1  0
 15 16  2  0
 17 15  1  0
 17 19  1  0
 18 20  1  0
 18 17  1  0
 20 22  1  0
 21 19  1  0
 22 21  1  0
 23 24  1  0
 24 25  1  0
 25 27  1  0
 25 26  1  0
 27 26  1  0
M  RAD  8   2   2   3   2   4   2   5   2  10   2  11   2  17   2  18   3
M  RAD  8  19   3  20   3  21   3  22   3  24   3  25   2  26   3  27   3
M  END
>  <REMARK>  (1) 
 SMILES CC(NC(=O)c1ccccc1OCC1CC1)c1nc(C2CCCCC2)no1
 SMILES IDX 6 1 7 2 8 3 9 4 10 5 11 6 4 7 3 8 5 10 2 11 1 12 17 13 18 14
 SMILES IDX 27 15 19 16 26 17 20 18 21 19 25 20 22 21 24 22 23 23 12 24
 SMILES IDX 13 25 14 26 15 27 16 28
 H PARENT 3 9

>  <TORSDO>  (1) 
F 7

$$$$
