/home/pchatterjee/Documents/git/vs_workflow/DiffDock/diffdock_run/pdbqt_scrubbed/Z1366063550.pdbqt
     RDKit          3D

 27 30  0  0  1  0  0  0  0  0999 V2000
    3.7536   44.3591   51.2774 C   0  0  0  0  0  0  0  0  0  0  0  0
    3.5272   45.5617   51.9335 C   0  0  0  0  0  3  0  0  0  0  0  0
    2.2878   45.8607   52.4370 C   0  0  0  0  0  3  0  0  0  0  0  0
    1.2365   44.9801   52.3069 C   0  0  0  0  0  3  0  0  0  0  0  0
    1.4261   43.7665   51.6570 C   0  0  0  0  0  3  0  0  0  0  0  0
    2.6990   43.4982   51.1598 C   0  0  0  0  0  0  0  0  0  0  0  0
    5.0914   44.1359   50.7812 C   0  0  0  0  0  0  0  0  0  0  0  0
    5.4556   43.5209   49.5730 N   0  0  0  0  0  0  0  0  0  0  0  0
    6.0523   44.5426   51.5158 O   0  0  0  0  0  0  0  0  0  0  0  0
    6.8253   43.0816   49.3374 C   0  0  0  0  0  3  0  0  0  0  0  0
    7.0326   41.6833   49.8493 C   0  0  0  0  0  1  0  0  0  0  0  0
    7.7429   44.0756   49.9265 C   0  0  0  0  0  0  0  0  0  0  0  0
    7.4236   45.2658   50.4979 N   0  0  0  0  0  0  0  0  0  0  0  0
    9.0427   43.9213   49.9714 O   0  0  0  0  0  0  0  0  0  0  0  0
    8.5930   45.7989   50.8779 C   0  0  0  0  0  0  0  0  0  0  0  0
    9.5870   44.9379   50.5367 N   0  0  0  0  0  0  0  0  0  0  0  0
    8.8738   47.0875   51.5557 C   0  0  0  0  0  3  0  0  0  0  0  0
    7.8200   47.3743   52.5939 C   0  0  0  0  0  2  0  0  0  0  0  0
   10.2749   47.1542   52.0998 C   0  0  0  0  0  2  0  0  0  0  0  0
    8.0263   46.5817   53.8636 C   0  0  0  0  0  2  0  0  0  0  0  0
   10.4341   46.5937   53.4767 C   0  0  0  0  0  2  0  0  0  0  0  0
    9.3539   47.0320   54.4396 C   0  0  0  0  0  2  0  0  0  0  0  0
    2.8297   42.2612   50.5240 O   0  0  0  0  0  0  0  0  0  0  0  0
    1.7619   41.8896   49.6575 C   0  0  0  0  0  2  0  0  0  0  0  0
    2.0660   40.5386   49.0555 C   0  0  0  0  0  3  0  0  0  0  0  0
    1.9910   39.3274   49.8984 C   0  0  0  0  0  2  0  0  0  0  0  0
    3.3597   39.8552   49.5634 C   0  0  0  0  0  2  0  0  0  0  0  0
  1  7  1  0
  2  1  2  0
  3  2  1  0
  4  3  2  0
  4  5  1  0
  5  6  2  0
  6  1  1  0
  6 23  1  0
  7  9  2  0
  7  8  1  0
  8 10  1  0
 10 12  1  0
 10 11  1  0
 12 14  1  0
 13 12  2  0
 13 15  1  0
 14 16  1  0
 15 16  2  0
 17 15  1  0
 17 19  1  0
 18 20  1  0
 18 17  1  0
 20 22  1  0
 21 19  1  0
 22 21  1  0
 23 24  1  0
 24 25  1  0
 25 27  1  0
 25 26  1  0
 27 26  1  0
M  RAD  8   2   2   3   2   4   2   5   2  10   2  11   2  17   2  18   3
M  RAD  8  19   3  20   3  21   3  22   3  24   3  25   2  26   3  27   3
M  END
>  <REMARK>  (1) 
 SMILES CC(NC(=O)c1ccccc1OCC1CC1)c1nc(C2CCCCC2)no1
 SMILES IDX 6 1 7 2 8 3 9 4 10 5 11 6 4 7 3 8 5 10 2 11 1 12 17 13 18 14
 SMILES IDX 27 15 19 16 26 17 20 18 21 19 25 20 22 21 24 22 23 23 12 24
 SMILES IDX 13 25 14 26 15 27 16 28
 H PARENT 3 9

>  <TORSDO>  (1) 
F 7

$$$$
