/home/pchatterjee/Documents/git/vs_workflow/DiffDock/diffdock_run/pdbqt_scrubbed/Z1366063550.pdbqt
     RDKit          3D

 27 30  0  0  1  0  0  0  0  0999 V2000
    3.7506   43.1667   50.8002 C   0  0  0  0  0  0  0  0  0  0  0  0
    3.4166   43.7044   52.0361 C   0  0  0  0  0  3  0  0  0  0  0  0
    2.3464   43.2205   52.7428 C   0  0  0  0  0  3  0  0  0  0  0  0
    1.5753   42.1914   52.2488 C   0  0  0  0  0  3  0  0  0  0  0  0
    1.8801   41.6280   51.0156 C   0  0  0  0  0  3  0  0  0  0  0  0
    2.9749   42.1458   50.3280 C   0  0  0  0  0  0  0  0  0  0  0  0
    4.8933   43.7441   50.1320 C   0  0  0  0  0  0  0  0  0  0  0  0
    5.8325   43.0770   49.3299 N   0  0  0  0  0  0  0  0  0  0  0  0
    5.0728   44.9987   50.2810 O   0  0  0  0  0  0  0  0  0  0  0  0
    6.8880   43.8103   48.6424 C   0  0  0  0  0  3  0  0  0  0  0  0
    7.5745   42.9347   47.6313 C   0  0  0  0  0  1  0  0  0  0  0  0
    7.7977   44.3796   49.6552 C   0  0  0  0  0  0  0  0  0  0  0  0
    7.6170   44.4299   51.0004 N   0  0  0  0  0  0  0  0  0  0  0  0
    8.9481   44.9334   49.3630 O   0  0  0  0  0  0  0  0  0  0  0  0
    8.7113   45.0368   51.4802 C   0  0  0  0  0  0  0  0  0  0  0  0
    9.5254   45.3401   50.4356 N   0  0  0  0  0  0  0  0  0  0  0  0
    9.0767   45.3702   52.8781 C   0  0  0  0  0  3  0  0  0  0  0  0
   10.1732   46.4036   52.9012 C   0  0  0  0  0  2  0  0  0  0  0  0
    7.8809   45.7568   53.7053 C   0  0  0  0  0  2  0  0  0  0  0  0
    9.6607   47.7986   52.6288 C   0  0  0  0  0  2  0  0  0  0  0  0
    7.5204   47.2062   53.6367 C   0  0  0  0  0  2  0  0  0  0  0  0
    8.7081   48.1340   53.7589 C   0  0  0  0  0  2  0  0  0  0  0  0
    3.2359   41.5347   49.0991 O   0  0  0  0  0  0  0  0  0  0  0  0
    2.2097   40.6852   48.5947 C   0  0  0  0  0  2  0  0  0  0  0  0
    2.5672   40.2652   47.1890 C   0  0  0  0  0  3  0  0  0  0  0  0
    2.8427   38.8432   46.8972 C   0  0  0  0  0  2  0  0  0  0  0  0
    4.0219   39.7737   46.9866 C   0  0  0  0  0  2  0  0  0  0  0  0
  1  7  1  0
  2  1  2  0
  3  2  1  0
  4  3  2  0
  4  5  1  0
  5  6  2  0
  6  1  1  0
  6 23  1  0
  7  9  2  0
  7  8  1  0
  8 10  1  0
 10 12  1  0
 10 11  1  0
 12 14  1  0
 13 12  2  0
 13 15  1  0
 14 16  1  0
 15 16  2  0
 17 15  1  0
 17 19  1  0
 18 20  1  0
 18 17  1  0
 20 22  1  0
 21 19  1  0
 22 21  1  0
 23 24  1  0
 24 25  1  0
 25 27  1  0
 25 26  1  0
 27 26  1  0
M  RAD  8   2   2   3   2   4   2   5   2  10   2  11   2  17   2  18   3
M  RAD  8  19   3  20   3  21   3  22   3  24   3  25   2  26   3  27   3
M  END
>  <REMARK>  (1) 
 SMILES CC(NC(=O)c1ccccc1OCC1CC1)c1nc(C2CCCCC2)no1
 SMILES IDX 6 1 7 2 8 3 9 4 10 5 11 6 4 7 3 8 5 10 2 11 1 12 17 13 18 14
 SMILES IDX 27 15 19 16 26 17 20 18 21 19 25 20 22 21 24 22 23 23 12 24
 SMILES IDX 13 25 14 26 15 27 16 28
 H PARENT 3 9

>  <TORSDO>  (1) 
F 7

$$$$
