/home/pchatterjee/Documents/git/vs_workflow/DiffDock/diffdock_run/pdbqt_scrubbed/Z1366063550.pdbqt
     RDKit          3D

 27 30  0  0  1  0  0  0  0  0999 V2000
    3.6251   43.3951   51.0974 C   0  0  0  0  0  0  0  0  0  0  0  0
    3.2511   44.1891   52.1733 C   0  0  0  0  0  3  0  0  0  0  0  0
    2.1686   43.8555   52.9452 C   0  0  0  0  0  3  0  0  0  0  0  0
    1.4244   42.7279   52.6763 C   0  0  0  0  0  3  0  0  0  0  0  0
    1.7696   41.9089   51.6080 C   0  0  0  0  0  3  0  0  0  0  0  0
    2.8757   42.2801   50.8477 C   0  0  0  0  0  0  0  0  0  0  0  0
    4.7779   43.8297   50.3438 C   0  0  0  0  0  0  0  0  0  0  0  0
    5.6295   43.0328   49.5625 N   0  0  0  0  0  0  0  0  0  0  0  0
    5.0566   45.0743   50.3864 O   0  0  0  0  0  0  0  0  0  0  0  0
    6.6854   43.6306   48.7550 C   0  0  0  0  0  3  0  0  0  0  0  0
    7.2756   42.6176   47.8138 C   0  0  0  0  0  1  0  0  0  0  0  0
    7.6718   44.2509   49.6602 C   0  0  0  0  0  0  0  0  0  0  0  0
    7.5582   44.4572   50.9979 N   0  0  0  0  0  0  0  0  0  0  0  0
    8.8357   44.7002   49.2614 O   0  0  0  0  0  0  0  0  0  0  0  0
    8.7056   45.0460   51.3621 C   0  0  0  0  0  0  0  0  0  0  0  0
    9.4846   45.1854   50.2578 N   0  0  0  0  0  0  0  0  0  0  0  0
    9.1545   45.5064   52.6983 C   0  0  0  0  0  3  0  0  0  0  0  0
   10.2184   46.5643   52.5581 C   0  0  0  0  0  2  0  0  0  0  0  0
    8.0064   45.9331   53.5719 C   0  0  0  0  0  2  0  0  0  0  0  0
    9.6469   47.9180   52.2068 C   0  0  0  0  0  2  0  0  0  0  0  0
    7.5986   47.3621   53.4080 C   0  0  0  0  0  2  0  0  0  0  0  0
    8.7633   48.3255   53.3688 C   0  0  0  0  0  2  0  0  0  0  0  0
    3.1776   41.4148   49.7933 O   0  0  0  0  0  0  0  0  0  0  0  0
    2.1346   40.5305   49.3943 C   0  0  0  0  0  2  0  0  0  0  0  0
    2.5634   39.7979   48.1454 C   0  0  0  0  0  3  0  0  0  0  0  0
    3.0520   40.5624   46.9792 C   0  0  0  0  0  2  0  0  0  0  0  0
    1.6577   40.0015   46.9056 C   0  0  0  0  0  2  0  0  0  0  0  0
  1  7  1  0
  2  1  2  0
  3  2  1  0
  4  3  2  0
  4  5  1  0
  5  6  2  0
  6  1  1  0
  6 23  1  0
  7  9  2  0
  7  8  1  0
  8 10  1  0
 10 12  1  0
 10 11  1  0
 12 14  1  0
 13 12  2  0
 13 15  1  0
 14 16  1  0
 15 16  2  0
 17 15  1  0
 17 19  1  0
 18 20  1  0
 18 17  1  0
 20 22  1  0
 21 19  1  0
 22 21  1  0
 23 24  1  0
 24 25  1  0
 25 27  1  0
 25 26  1  0
 27 26  1  0
M  RAD  8   2   2   3   2   4   2   5   2  10   2  11   2  17   2  18   3
M  RAD  8  19   3  20   3  21   3  22   3  24   3  25   2  26   3  27   3
M  END
>  <REMARK>  (1) 
 SMILES CC(NC(=O)c1ccccc1OCC1CC1)c1nc(C2CCCCC2)no1
 SMILES IDX 6 1 7 2 8 3 9 4 10 5 11 6 4 7 3 8 5 10 2 11 1 12 17 13 18 14
 SMILES IDX 27 15 19 16 26 17 20 18 21 19 25 20 22 21 24 22 23 23 12 24
 SMILES IDX 13 25 14 26 15 27 16 28
 H PARENT 3 9

>  <TORSDO>  (1) 
F 7

$$$$
