/home/pchatterjee/Documents/git/vs_workflow/DiffDock/diffdock_run/pdbqt_scrubbed/Z1366063550.pdbqt
     RDKit          3D

 27 30  0  0  1  0  0  0  0  0999 V2000
    4.0027   44.3452   51.5223 C   0  0  0  0  0  0  0  0  0  0  0  0
    3.8546   45.5397   52.2146 C   0  0  0  0  0  3  0  0  0  0  0  0
    2.6539   45.8721   52.7862 C   0  0  0  0  0  3  0  0  0  0  0  0
    1.5650   45.0339   52.6904 C   0  0  0  0  0  3  0  0  0  0  0  0
    1.6761   43.8297   52.0059 C   0  0  0  0  0  3  0  0  0  0  0  0
    2.9117   43.5266   51.4396 C   0  0  0  0  0  0  0  0  0  0  0  0
    5.3048   44.0847   50.9547 C   0  0  0  0  0  0  0  0  0  0  0  0
    5.5965   43.3017   49.8267 N   0  0  0  0  0  0  0  0  0  0  0  0
    6.3039   44.6251   51.5362 O   0  0  0  0  0  0  0  0  0  0  0  0
    6.9731   42.9800   49.4718 C   0  0  0  0  0  3  0  0  0  0  0  0
    7.3482   41.6135   49.9741 C   0  0  0  0  0  1  0  0  0  0  0  0
    7.8482   44.0597   49.9675 C   0  0  0  0  0  0  0  0  0  0  0  0
    7.4780   45.2733   50.4522 N   0  0  0  0  0  0  0  0  0  0  0  0
    9.1545   43.9725   50.0013 O   0  0  0  0  0  0  0  0  0  0  0  0
    8.6245   45.8901   50.7701 C   0  0  0  0  0  0  0  0  0  0  0  0
    9.6553   45.0547   50.4781 N   0  0  0  0  0  0  0  0  0  0  0  0
    8.8502   47.2391   51.3430 C   0  0  0  0  0  3  0  0  0  0  0  0
    7.8756   47.5035   52.4615 C   0  0  0  0  0  2  0  0  0  0  0  0
   10.2840   47.4583   51.7426 C   0  0  0  0  0  2  0  0  0  0  0  0
    8.2688   46.8152   53.7477 C   0  0  0  0  0  2  0  0  0  0  0  0
   10.6196   47.0038   53.1269 C   0  0  0  0  0  2  0  0  0  0  0  0
    9.5983   47.4117   54.1645 C   0  0  0  0  0  2  0  0  0  0  0  0
    2.9640   42.3008   50.7715 O   0  0  0  0  0  0  0  0  0  0  0  0
    1.7709   41.9042   50.1020 C   0  0  0  0  0  2  0  0  0  0  0  0
    2.0362   40.6266   49.3419 C   0  0  0  0  0  3  0  0  0  0  0  0
    2.8374   40.6656   48.1011 C   0  0  0  0  0  2  0  0  0  0  0  0
    1.3469   40.5147   47.9595 C   0  0  0  0  0  2  0  0  0  0  0  0
  1  7  1  0
  2  1  2  0
  3  2  1  0
  4  3  2  0
  4  5  1  0
  5  6  2  0
  6  1  1  0
  6 23  1  0
  7  9  2  0
  7  8  1  0
  8 10  1  0
 10 12  1  0
 10 11  1  0
 12 14  1  0
 13 12  2  0
 13 15  1  0
 14 16  1  0
 15 16  2  0
 17 15  1  0
 17 19  1  0
 18 20  1  0
 18 17  1  0
 20 22  1  0
 21 19  1  0
 22 21  1  0
 23 24  1  0
 24 25  1  0
 25 27  1  0
 25 26  1  0
 27 26  1  0
M  RAD  8   2   2   3   2   4   2   5   2  10   2  11   2  17   2  18   3
M  RAD  8  19   3  20   3  21   3  22   3  24   3  25   2  26   3  27   3
M  END
>  <REMARK>  (1) 
 SMILES CC(NC(=O)c1ccccc1OCC1CC1)c1nc(C2CCCCC2)no1
 SMILES IDX 6 1 7 2 8 3 9 4 10 5 11 6 4 7 3 8 5 10 2 11 1 12 17 13 18 14
 SMILES IDX 27 15 19 16 26 17 20 18 21 19 25 20 22 21 24 22 23 23 12 24
 SMILES IDX 13 25 14 26 15 27 16 28
 H PARENT 3 9

>  <TORSDO>  (1) 
F 7

$$$$
