/home/pchatterjee/Documents/git/vs_workflow/DiffDock/diffdock_run/pdbqt_scrubbed/5329557.pdbqt
     RDKit          3D

 26 29  0  0  1  0  0  0  0  0999 V2000
    1.4059   58.5041   55.4424 C   0  0  0  0  0  0  0  0  0  0  0  0
    2.0451   59.7782   55.5068 N   0  0  0  0  0  0  0  0  0  0  0  0
    3.3509   59.8794   55.5877 C   0  0  0  0  0  0  0  0  0  0  0  0
    4.1616   58.7391   55.6087 C   0  0  0  0  0  3  0  0  0  0  0  0
    5.4924   58.6263   55.9531 N   0  0  0  0  0  0  0  0  0  0  0  0
    5.7619   57.1824   55.7620 C   0  0  0  0  0  2  0  0  0  0  0  0
    4.4609   56.5572   55.6577 N   0  0  0  0  0  0  0  0  0  0  0  0
    3.5051   57.4523   55.5676 C   0  0  0  0  0  0  0  0  0  0  0  0
    2.0886   57.3876   55.4678 N   0  0  0  0  0  0  0  0  0  0  0  0
   -0.0209   58.4257   55.3470 N   0  0  0  0  0  0  0  0  0  0  0  0
   -0.7900   59.6299   55.4083 C   0  0  0  0  0  0  0  0  0  0  0  0
   -1.5645   61.7136   54.4518 C   0  0  0  0  0  0  0  0  0  0  0  0
   -2.3197   61.9905   55.5705 C   0  0  0  0  0  3  0  0  0  0  0  0
   -0.8061   60.5453   54.3690 C   0  0  0  0  0  3  0  0  0  0  0  0
   -2.3017   61.0782   56.6026 C   0  0  0  0  0  3  0  0  0  0  0  0
   -1.5479   59.9059   56.5331 C   0  0  0  0  0  3  0  0  0  0  0  0
   -1.5962   62.9031   53.1223 S   0  0  0  0  0  0  0  0  0  0  0  0
   -0.3226   64.1444   53.4733 C   0  0  0  0  0  1  0  0  0  0  0  0
    3.8555   61.1715   55.6494 O   0  0  0  0  0  0  0  0  0  0  0  0
    3.0322   62.3212   55.5118 C   0  0  0  0  0  2  0  0  0  0  0  0
    3.8080   63.4971   56.0669 C   0  0  0  0  0  3  0  0  0  0  0  0
    3.0390   64.7572   55.7418 C   0  0  0  0  0  2  0  0  0  0  0  0
    5.1764   63.4735   55.4195 C   0  0  0  0  0  2  0  0  0  0  0  0
    3.7939   66.0152   56.0584 C   0  0  0  0  0  2  0  0  0  0  0  0
    5.5537   64.8051   54.8168 C   0  0  0  0  0  2  0  0  0  0  0  0
    5.2873   65.8829   55.8408 C   0  0  0  0  0  2  0  0  0  0  0  0
  1 10  1  0
  2  1  1  0
  3  2  2  0
  4  8  1  0
  4  3  1  0
  5  4  1  0
  6  5  1  0
  6  7  1  0
  7  8  2  0
  8  9  1  0
  9  1  2  0
 10 11  1  0
 11 14  2  0
 12 17  1  0
 13 12  2  0
 14 12  1  0
 15 13  1  0
 16 11  1  0
 16 15  2  0
 17 18  1  0
 19  3  1  0
 19 20  1  0
 21 20  1  0
 21 22  1  0
 22 24  1  0
 23 25  1  0
 23 21  1  0
 25 26  1  0
 26 24  1  0
M  RAD  8   4   2   6   3  13   2  14   2  15   2  16   2  18   2  20   3
M  RAD  6  21   2  22   3  23   3  24   3  25   3  26   3
M  END
>  <REMARK>  (1) 
 SMILES CSc1cccc(Nc2nc(OCC3CCCCC3)c3[nH]cnc3n2)c1
 SMILES IDX 9 1 10 2 11 3 20 4 21 5 22 6 23 7 24 8 25 9 8 11 7 13 3 14
 SMILES IDX 4 15 26 16 5 17 6 18 2 19 1 20 12 21 13 22 14 23 15 24 19 25
 SMILES IDX 16 26 18 27 17 28
 H PARENT 21 10 8 12

>  <TORSDO>  (1) 
F 6

$$$$
