/home/pchatterjee/Documents/git/vs_workflow/DiffDock/diffdock_run/pdbqt_scrubbed/5329557.pdbqt
     RDKit          3D

 26 29  0  0  1  0  0  0  0  0999 V2000
    7.6808   43.3081   49.5638 C   0  0  0  0  0  0  0  0  0  0  0  0
    6.6839   44.1147   50.1897 N   0  0  0  0  0  0  0  0  0  0  0  0
    7.0109   45.1653   50.9046 C   0  0  0  0  0  0  0  0  0  0  0  0
    8.3505   45.5330   51.0732 C   0  0  0  0  0  3  0  0  0  0  0  0
    8.9013   46.4139   51.9803 N   0  0  0  0  0  0  0  0  0  0  0  0
   10.3437   46.3738   51.6459 C   0  0  0  0  0  2  0  0  0  0  0  0
   10.5127   45.2086   50.8042 N   0  0  0  0  0  0  0  0  0  0  0  0
    9.3549   44.6971   50.4563 C   0  0  0  0  0  0  0  0  0  0  0  0
    8.9569   43.5748   49.6798 N   0  0  0  0  0  0  0  0  0  0  0  0
    7.2926   42.1718   48.7835 N   0  0  0  0  0  0  0  0  0  0  0  0
    5.9027   41.8657   48.6428 C   0  0  0  0  0  0  0  0  0  0  0  0
    3.6065   41.9941   49.3960 C   0  0  0  0  0  0  0  0  0  0  0  0
    3.1737   41.2396   48.3274 C   0  0  0  0  0  3  0  0  0  0  0  0
    4.9574   42.3055   49.5545 C   0  0  0  0  0  3  0  0  0  0  0  0
    4.1162   40.8035   47.4222 C   0  0  0  0  0  3  0  0  0  0  0  0
    5.4703   41.1076   47.5685 C   0  0  0  0  0  3  0  0  0  0  0  0
    2.3760   42.5527   50.5612 S   0  0  0  0  0  0  0  0  0  0  0  0
    2.7673   41.8042   52.1652 C   0  0  0  0  0  1  0  0  0  0  0  0
    5.9537   45.8677   51.4676 O   0  0  0  0  0  0  0  0  0  0  0  0
    4.6153   45.3923   51.4330 C   0  0  0  0  0  2  0  0  0  0  0  0
    3.9236   45.9097   52.6766 C   0  0  0  0  0  3  0  0  0  0  0  0
    3.9174   44.7991   53.7020 C   0  0  0  0  0  2  0  0  0  0  0  0
    2.5262   46.3258   52.2688 C   0  0  0  0  0  2  0  0  0  0  0  0
    3.0851   45.1088   54.9120 C   0  0  0  0  0  2  0  0  0  0  0  0
    1.4621   45.7225   53.1535 C   0  0  0  0  0  2  0  0  0  0  0  0
    1.8608   45.9422   54.5937 C   0  0  0  0  0  2  0  0  0  0  0  0
  1 10  1  0
  2  1  1  0
  3  2  2  0
  4  8  1  0
  4  3  1  0
  5  4  1  0
  6  5  1  0
  6  7  1  0
  7  8  2  0
  8  9  1  0
  9  1  2  0
 10 11  1  0
 11 14  2  0
 12 17  1  0
 13 12  2  0
 14 12  1  0
 15 13  1  0
 16 11  1  0
 16 15  2  0
 17 18  1  0
 19  3  1  0
 19 20  1  0
 21 20  1  0
 21 22  1  0
 22 24  1  0
 23 25  1  0
 23 21  1  0
 25 26  1  0
 26 24  1  0
M  RAD  8   4   2   6   3  13   2  14   2  15   2  16   2  18   2  20   3
M  RAD  6  21   2  22   3  23   3  24   3  25   3  26   3
M  END
>  <REMARK>  (1) 
 SMILES CSc1cccc(Nc2nc(OCC3CCCCC3)c3[nH]cnc3n2)c1
 SMILES IDX 9 1 10 2 11 3 20 4 21 5 22 6 23 7 24 8 25 9 8 11 7 13 3 14
 SMILES IDX 4 15 26 16 5 17 6 18 2 19 1 20 12 21 13 22 14 23 15 24 19 25
 SMILES IDX 16 26 18 27 17 28
 H PARENT 21 10 8 12

>  <TORSDO>  (1) 
F 6

$$$$
