/home/pchatterjee/Documents/git/vs_workflow/DiffDock/diffdock_run/pdbqt_scrubbed/5329557.pdbqt
     RDKit          3D

 26 29  0  0  1  0  0  0  0  0999 V2000
    7.7034   43.2380   49.4416 C   0  0  0  0  0  0  0  0  0  0  0  0
    6.6306   43.8502   50.1561 N   0  0  0  0  0  0  0  0  0  0  0  0
    6.8563   44.7794   51.0548 C   0  0  0  0  0  0  0  0  0  0  0  0
    8.1585   45.2048   51.3392 C   0  0  0  0  0  3  0  0  0  0  0  0
    8.6148   45.9494   52.4070 N   0  0  0  0  0  0  0  0  0  0  0  0
   10.0649   46.0699   52.1301 C   0  0  0  0  0  2  0  0  0  0  0  0
   10.3459   45.0853   51.1073 N   0  0  0  0  0  0  0  0  0  0  0  0
    9.2408   44.5629   50.6288 C   0  0  0  0  0  0  0  0  0  0  0  0
    8.9517   43.5692   49.6543 N   0  0  0  0  0  0  0  0  0  0  0  0
    7.4252   42.2319   48.4612 N   0  0  0  0  0  0  0  0  0  0  0  0
    6.0991   41.7058   48.3603 C   0  0  0  0  0  0  0  0  0  0  0  0
    3.8336   41.4691   49.1776 C   0  0  0  0  0  0  0  0  0  0  0  0
    3.4985   40.6477   48.1233 C   0  0  0  0  0  3  0  0  0  0  0  0
    5.1208   41.9943   49.2973 C   0  0  0  0  0  3  0  0  0  0  0  0
    4.4737   40.3625   47.1929 C   0  0  0  0  0  3  0  0  0  0  0  0
    5.7648   40.8809   47.3003 C   0  0  0  0  0  3  0  0  0  0  0  0
    2.5618   41.8307   50.3756 S   0  0  0  0  0  0  0  0  0  0  0  0
    2.8653   40.7828   51.8233 C   0  0  0  0  0  1  0  0  0  0  0  0
    5.7331   45.2961   51.6869 O   0  0  0  0  0  0  0  0  0  0  0  0
    4.4590   44.6717   51.6129 C   0  0  0  0  0  2  0  0  0  0  0  0
    3.5157   45.4733   52.4847 C   0  0  0  0  0  3  0  0  0  0  0  0
    4.0296   46.8937   52.5430 C   0  0  0  0  0  2  0  0  0  0  0  0
    3.4959   44.8110   53.8460 C   0  0  0  0  0  2  0  0  0  0  0  0
    3.3012   47.7515   53.5362 C   0  0  0  0  0  2  0  0  0  0  0  0
    3.7483   45.7887   54.9682 C   0  0  0  0  0  2  0  0  0  0  0  0
    2.8521   46.9874   54.7648 C   0  0  0  0  0  2  0  0  0  0  0  0
  1 10  1  0
  2  1  1  0
  3  2  2  0
  4  8  1  0
  4  3  1  0
  5  4  1  0
  6  5  1  0
  6  7  1  0
  7  8  2  0
  8  9  1  0
  9  1  2  0
 10 11  1  0
 11 14  2  0
 12 17  1  0
 13 12  2  0
 14 12  1  0
 15 13  1  0
 16 11  1  0
 16 15  2  0
 17 18  1  0
 19  3  1  0
 19 20  1  0
 21 20  1  0
 21 22  1  0
 22 24  1  0
 23 25  1  0
 23 21  1  0
 25 26  1  0
 26 24  1  0
M  RAD  8   4   2   6   3  13   2  14   2  15   2  16   2  18   2  20   3
M  RAD  6  21   2  22   3  23   3  24   3  25   3  26   3
M  END
>  <REMARK>  (1) 
 SMILES CSc1cccc(Nc2nc(OCC3CCCCC3)c3[nH]cnc3n2)c1
 SMILES IDX 9 1 10 2 11 3 20 4 21 5 22 6 23 7 24 8 25 9 8 11 7 13 3 14
 SMILES IDX 4 15 26 16 5 17 6 18 2 19 1 20 12 21 13 22 14 23 15 24 19 25
 SMILES IDX 16 26 18 27 17 28
 H PARENT 21 10 8 12

>  <TORSDO>  (1) 
F 6

$$$$
