/home/pchatterjee/Documents/git/vs_workflow/DiffDock/diffdock_run/pdbqt_scrubbed/5329557.pdbqt
     RDKit          3D

 26 29  0  0  1  0  0  0  0  0999 V2000
    7.7305   43.3724   49.4146 C   0  0  0  0  0  0  0  0  0  0  0  0
    6.6919   43.9217   50.2243 N   0  0  0  0  0  0  0  0  0  0  0  0
    6.9247   44.9227   51.0404 C   0  0  0  0  0  0  0  0  0  0  0  0
    8.2005   45.4886   51.1401 C   0  0  0  0  0  3  0  0  0  0  0  0
    8.7000   46.3388   52.1045 N   0  0  0  0  0  0  0  0  0  0  0  0
   10.0872   46.5809   51.6451 C   0  0  0  0  0  2  0  0  0  0  0  0
   10.3459   45.5661   50.6463 N   0  0  0  0  0  0  0  0  0  0  0  0
    9.2521   44.9107   50.3348 C   0  0  0  0  0  0  0  0  0  0  0  0
    8.9543   43.8349   49.4547 N   0  0  0  0  0  0  0  0  0  0  0  0
    7.4441   42.2848   48.5279 N   0  0  0  0  0  0  0  0  0  0  0  0
    6.1212   41.7426   48.4957 C   0  0  0  0  0  0  0  0  0  0  0  0
    4.3055   40.6225   47.3532 C   0  0  0  0  0  0  0  0  0  0  0  0
    3.5089   40.6869   48.4757 C   0  0  0  0  0  3  0  0  0  0  0  0
    5.5995   41.1446   47.3606 C   0  0  0  0  0  3  0  0  0  0  0  0
    4.0305   41.2823   49.6032 C   0  0  0  0  0  3  0  0  0  0  0  0
    5.3227   41.8085   49.6244 C   0  0  0  0  0  3  0  0  0  0  0  0
    3.6183   39.8491   45.8996 S   0  0  0  0  0  0  0  0  0  0  0  0
    2.3414   40.9577   45.2464 C   0  0  0  0  0  1  0  0  0  0  0  0
    5.8365   45.3672   51.7794 O   0  0  0  0  0  0  0  0  0  0  0  0
    4.6244   44.6319   51.8733 C   0  0  0  0  0  2  0  0  0  0  0  0
    3.6809   45.4328   52.7457 C   0  0  0  0  0  3  0  0  0  0  0  0
    4.1970   46.8521   52.8088 C   0  0  0  0  0  2  0  0  0  0  0  0
    3.6575   44.7668   54.1051 C   0  0  0  0  0  2  0  0  0  0  0  0
    3.4682   47.7083   53.8030 C   0  0  0  0  0  2  0  0  0  0  0  0
    3.9095   45.7409   55.2305 C   0  0  0  0  0  2  0  0  0  0  0  0
    3.0157   46.9417   55.0287 C   0  0  0  0  0  2  0  0  0  0  0  0
  1 10  1  0
  2  1  1  0
  3  2  2  0
  4  8  1  0
  4  3  1  0
  5  4  1  0
  6  5  1  0
  6  7  1  0
  7  8  2  0
  8  9  1  0
  9  1  2  0
 10 11  1  0
 11 14  2  0
 12 17  1  0
 13 12  2  0
 14 12  1  0
 15 13  1  0
 16 11  1  0
 16 15  2  0
 17 18  1  0
 19  3  1  0
 19 20  1  0
 21 20  1  0
 21 22  1  0
 22 24  1  0
 23 25  1  0
 23 21  1  0
 25 26  1  0
 26 24  1  0
M  RAD  8   4   2   6   3  13   2  14   2  15   2  16   2  18   2  20   3
M  RAD  6  21   2  22   3  23   3  24   3  25   3  26   3
M  END
>  <REMARK>  (1) 
 SMILES CSc1cccc(Nc2nc(OCC3CCCCC3)c3[nH]cnc3n2)c1
 SMILES IDX 9 1 10 2 11 3 20 4 21 5 22 6 23 7 24 8 25 9 8 11 7 13 3 14
 SMILES IDX 4 15 26 16 5 17 6 18 2 19 1 20 12 21 13 22 14 23 15 24 19 25
 SMILES IDX 16 26 18 27 17 28
 H PARENT 21 10 8 12

>  <TORSDO>  (1) 
F 6

$$$$
