/home/pchatterjee/Documents/git/vs_workflow/DiffDock/diffdock_run/pdbqt_scrubbed/5329557.pdbqt
     RDKit          3D

 26 29  0  0  1  0  0  0  0  0999 V2000
    7.8344   43.4784   49.4951 C   0  0  0  0  0  0  0  0  0  0  0  0
    6.8063   44.1490   50.2227 N   0  0  0  0  0  0  0  0  0  0  0  0
    7.0821   45.1613   51.0108 C   0  0  0  0  0  0  0  0  0  0  0  0
    8.3953   45.6205   51.1605 C   0  0  0  0  0  3  0  0  0  0  0  0
    8.9153   46.4666   52.1176 N   0  0  0  0  0  0  0  0  0  0  0  0
   10.3408   46.5695   51.7284 C   0  0  0  0  0  2  0  0  0  0  0  0
   10.5625   45.4935   50.7863 N   0  0  0  0  0  0  0  0  0  0  0  0
    9.4336   44.9205   50.4392 C   0  0  0  0  0  0  0  0  0  0  0  0
    9.0901   43.8364   49.5863 N   0  0  0  0  0  0  0  0  0  0  0  0
    7.5016   42.3813   48.6369 N   0  0  0  0  0  0  0  0  0  0  0  0
    6.1613   41.8824   48.6325 C   0  0  0  0  0  0  0  0  0  0  0  0
    4.2178   41.0078   47.4861 C   0  0  0  0  0  0  0  0  0  0  0  0
    3.5189   40.9050   48.6691 C   0  0  0  0  0  3  0  0  0  0  0  0
    5.5264   41.4916   47.4652 C   0  0  0  0  0  3  0  0  0  0  0  0
    4.1530   41.2945   49.8285 C   0  0  0  0  0  3  0  0  0  0  0  0
    5.4612   41.7800   49.8222 C   0  0  0  0  0  3  0  0  0  0  0  0
    3.3855   40.5002   45.9917 S   0  0  0  0  0  0  0  0  0  0  0  0
    4.4438   40.9656   44.5954 C   0  0  0  0  0  1  0  0  0  0  0  0
    5.9991   45.7288   51.6691 O   0  0  0  0  0  0  0  0  0  0  0  0
    4.7487   45.0663   51.7958 C   0  0  0  0  0  2  0  0  0  0  0  0
    4.0090   45.7209   52.9435 C   0  0  0  0  0  3  0  0  0  0  0  0
    3.8055   44.6797   54.0203 C   0  0  0  0  0  2  0  0  0  0  0  0
    2.6995   46.2417   52.3902 C   0  0  0  0  0  2  0  0  0  0  0  0
    2.9087   45.1391   55.1326 C   0  0  0  0  0  2  0  0  0  0  0  0
    1.5096   45.7961   53.2054 C   0  0  0  0  0  2  0  0  0  0  0  0
    1.8046   46.0637   54.6624 C   0  0  0  0  0  2  0  0  0  0  0  0
  1 10  1  0
  2  1  1  0
  3  2  2  0
  4  8  1  0
  4  3  1  0
  5  4  1  0
  6  5  1  0
  6  7  1  0
  7  8  2  0
  8  9  1  0
  9  1  2  0
 10 11  1  0
 11 14  2  0
 12 17  1  0
 13 12  2  0
 14 12  1  0
 15 13  1  0
 16 11  1  0
 16 15  2  0
 17 18  1  0
 19  3  1  0
 19 20  1  0
 21 20  1  0
 21 22  1  0
 22 24  1  0
 23 25  1  0
 23 21  1  0
 25 26  1  0
 26 24  1  0
M  RAD  8   4   2   6   3  13   2  14   2  15   2  16   2  18   2  20   3
M  RAD  6  21   2  22   3  23   3  24   3  25   3  26   3
M  END
>  <REMARK>  (1) 
 SMILES CSc1cccc(Nc2nc(OCC3CCCCC3)c3[nH]cnc3n2)c1
 SMILES IDX 9 1 10 2 11 3 20 4 21 5 22 6 23 7 24 8 25 9 8 11 7 13 3 14
 SMILES IDX 4 15 26 16 5 17 6 18 2 19 1 20 12 21 13 22 14 23 15 24 19 25
 SMILES IDX 16 26 18 27 17 28
 H PARENT 21 10 8 12

>  <TORSDO>  (1) 
F 6

$$$$
