/home/pchatterjee/Documents/git/vs_workflow/DiffDock/diffdock_run/pdbqt_scrubbed/5329557.pdbqt
     RDKit          3D

 26 29  0  0  1  0  0  0  0  0999 V2000
    7.6778   43.3667   49.3809 C   0  0  0  0  0  0  0  0  0  0  0  0
    6.6712   43.9674   50.1945 N   0  0  0  0  0  0  0  0  0  0  0  0
    6.9573   44.9544   51.0105 C   0  0  0  0  0  0  0  0  0  0  0  0
    8.2606   45.4546   51.1064 C   0  0  0  0  0  3  0  0  0  0  0  0
    8.8059   46.2774   52.0698 N   0  0  0  0  0  0  0  0  0  0  0  0
   10.2021   46.4492   51.6059 C   0  0  0  0  0  2  0  0  0  0  0  0
   10.4055   45.4234   50.6055 N   0  0  0  0  0  0  0  0  0  0  0  0
    9.2787   44.8248   50.2972 C   0  0  0  0  0  0  0  0  0  0  0  0
    8.9237   43.7663   49.4172 N   0  0  0  0  0  0  0  0  0  0  0  0
    7.3336   42.2959   48.4943 N   0  0  0  0  0  0  0  0  0  0  0  0
    5.9974   41.7863   48.5040 C   0  0  0  0  0  0  0  0  0  0  0  0
    3.8833   41.3728   49.6068 C   0  0  0  0  0  0  0  0  0  0  0  0
    3.3701   40.7686   48.4799 C   0  0  0  0  0  3  0  0  0  0  0  0
    5.1841   41.8776   49.6214 C   0  0  0  0  0  3  0  0  0  0  0  0
    4.1814   40.6791   47.3700 C   0  0  0  0  0  3  0  0  0  0  0  0
    5.4840   41.1796   47.3707 C   0  0  0  0  0  3  0  0  0  0  0  0
    2.8227   41.4823   51.0374 S   0  0  0  0  0  0  0  0  0  0  0  0
    3.6107   40.5410   52.3713 C   0  0  0  0  0  1  0  0  0  0  0  0
    5.8956   45.4531   51.7535 O   0  0  0  0  0  0  0  0  0  0  0  0
    4.7088   44.7075   51.9867 C   0  0  0  0  0  2  0  0  0  0  0  0
    3.8517   45.5154   52.9383 C   0  0  0  0  0  3  0  0  0  0  0  0
    2.9389   44.5579   53.6696 C   0  0  0  0  0  2  0  0  0  0  0  0
    3.0849   46.5195   52.1040 C   0  0  0  0  0  2  0  0  0  0  0  0
    1.8949   45.2457   54.5001 C   0  0  0  0  0  2  0  0  0  0  0  0
    1.6028   46.4967   52.3900 C   0  0  0  0  0  2  0  0  0  0  0  0
    1.4069   46.5421   53.8870 C   0  0  0  0  0  2  0  0  0  0  0  0
  1 10  1  0
  2  1  1  0
  3  2  2  0
  4  8  1  0
  4  3  1  0
  5  4  1  0
  6  5  1  0
  6  7  1  0
  7  8  2  0
  8  9  1  0
  9  1  2  0
 10 11  1  0
 11 14  2  0
 12 17  1  0
 13 12  2  0
 14 12  1  0
 15 13  1  0
 16 11  1  0
 16 15  2  0
 17 18  1  0
 19  3  1  0
 19 20  1  0
 21 20  1  0
 21 22  1  0
 22 24  1  0
 23 25  1  0
 23 21  1  0
 25 26  1  0
 26 24  1  0
M  RAD  8   4   2   6   3  13   2  14   2  15   2  16   2  18   2  20   3
M  RAD  6  21   2  22   3  23   3  24   3  25   3  26   3
M  END
>  <REMARK>  (1) 
 SMILES CSc1cccc(Nc2nc(OCC3CCCCC3)c3[nH]cnc3n2)c1
 SMILES IDX 9 1 10 2 11 3 20 4 21 5 22 6 23 7 24 8 25 9 8 11 7 13 3 14
 SMILES IDX 4 15 26 16 5 17 6 18 2 19 1 20 12 21 13 22 14 23 15 24 19 25
 SMILES IDX 16 26 18 27 17 28
 H PARENT 21 10 8 12

>  <TORSDO>  (1) 
F 6

$$$$
