/home/pchatterjee/Documents/git/vs_workflow/DiffDock/diffdock_run/pdbqt_scrubbed/5329557.pdbqt
     RDKit          3D

 26 29  0  0  1  0  0  0  0  0999 V2000
    7.6600   43.4263   49.5686 C   0  0  0  0  0  0  0  0  0  0  0  0
    6.6343   44.1885   50.2035 N   0  0  0  0  0  0  0  0  0  0  0  0
    6.9164   45.2801   50.8749 C   0  0  0  0  0  0  0  0  0  0  0  0
    8.2345   45.7363   50.9866 C   0  0  0  0  0  3  0  0  0  0  0  0
    8.7569   46.6788   51.8475 N   0  0  0  0  0  0  0  0  0  0  0  0
   10.1875   46.7184   51.4655 C   0  0  0  0  0  2  0  0  0  0  0  0
   10.4033   45.5396   50.6541 N   0  0  0  0  0  0  0  0  0  0  0  0
    9.2699   44.9456   50.3613 C   0  0  0  0  0  0  0  0  0  0  0  0
    8.9196   43.7761   49.6330 N   0  0  0  0  0  0  0  0  0  0  0  0
    7.3202   42.2433   48.8365 N   0  0  0  0  0  0  0  0  0  0  0  0
    5.9415   41.9202   48.6366 C   0  0  0  0  0  0  0  0  0  0  0  0
    3.6804   41.6363   49.4512 C   0  0  0  0  0  0  0  0  0  0  0  0
    3.2338   41.2757   48.1986 C   0  0  0  0  0  3  0  0  0  0  0  0
    5.0209   41.9559   49.6707 C   0  0  0  0  0  3  0  0  0  0  0  0
    4.1517   41.2411   47.1720 C   0  0  0  0  0  3  0  0  0  0  0  0
    5.4951   41.5582   47.3774 C   0  0  0  0  0  3  0  0  0  0  0  0
    2.4817   41.6773   50.7722 S   0  0  0  0  0  0  0  0  0  0  0  0
    3.2247   42.5887   52.1519 C   0  0  0  0  0  1  0  0  0  0  0  0
    5.8352   45.9326   51.4521 O   0  0  0  0  0  0  0  0  0  0  0  0
    4.5316   45.3687   51.4866 C   0  0  0  0  0  2  0  0  0  0  0  0
    3.8004   46.0014   52.6519 C   0  0  0  0  0  3  0  0  0  0  0  0
    4.1542   45.2254   53.9000 C   0  0  0  0  0  2  0  0  0  0  0  0
    2.3211   45.9410   52.3354 C   0  0  0  0  0  2  0  0  0  0  0  0
    3.3420   45.6207   55.0986 C   0  0  0  0  0  2  0  0  0  0  0  0
    1.5131   45.3423   53.4613 C   0  0  0  0  0  2  0  0  0  0  0  0
    1.9217   46.0160   54.7500 C   0  0  0  0  0  2  0  0  0  0  0  0
  1 10  1  0
  2  1  1  0
  3  2  2  0
  4  8  1  0
  4  3  1  0
  5  4  1  0
  6  5  1  0
  6  7  1  0
  7  8  2  0
  8  9  1  0
  9  1  2  0
 10 11  1  0
 11 14  2  0
 12 17  1  0
 13 12  2  0
 14 12  1  0
 15 13  1  0
 16 11  1  0
 16 15  2  0
 17 18  1  0
 19  3  1  0
 19 20  1  0
 21 20  1  0
 21 22  1  0
 22 24  1  0
 23 25  1  0
 23 21  1  0
 25 26  1  0
 26 24  1  0
M  RAD  8   4   2   6   3  13   2  14   2  15   2  16   2  18   2  20   3
M  RAD  6  21   2  22   3  23   3  24   3  25   3  26   3
M  END
>  <REMARK>  (1) 
 SMILES CSc1cccc(Nc2nc(OCC3CCCCC3)c3[nH]cnc3n2)c1
 SMILES IDX 9 1 10 2 11 3 20 4 21 5 22 6 23 7 24 8 25 9 8 11 7 13 3 14
 SMILES IDX 4 15 26 16 5 17 6 18 2 19 1 20 12 21 13 22 14 23 15 24 19 25
 SMILES IDX 16 26 18 27 17 28
 H PARENT 21 10 8 12

>  <TORSDO>  (1) 
F 6

$$$$
