/home/pchatterjee/Documents/git/vs_workflow/DiffDock/diffdock_run/pdbqt_scrubbed/5329557.pdbqt
     RDKit          3D

 26 29  0  0  1  0  0  0  0  0999 V2000
    7.6879   43.2079   49.5497 C   0  0  0  0  0  0  0  0  0  0  0  0
    6.7142   44.0002   50.2281 N   0  0  0  0  0  0  0  0  0  0  0  0
    7.0671   45.0338   50.9555 C   0  0  0  0  0  0  0  0  0  0  0  0
    8.4121   45.3967   51.0863 C   0  0  0  0  0  3  0  0  0  0  0  0
    8.9950   46.2561   51.9942 N   0  0  0  0  0  0  0  0  0  0  0  0
   10.4250   46.2229   51.6094 C   0  0  0  0  0  2  0  0  0  0  0  0
   10.5633   45.0774   50.7357 N   0  0  0  0  0  0  0  0  0  0  0  0
    9.3936   44.5748   50.4160 C   0  0  0  0  0  0  0  0  0  0  0  0
    8.9677   43.4711   49.6279 N   0  0  0  0  0  0  0  0  0  0  0  0
    7.2716   42.0901   48.7571 N   0  0  0  0  0  0  0  0  0  0  0  0
    5.8742   41.8294   48.6008 C   0  0  0  0  0  0  0  0  0  0  0  0
    3.5769   42.0162   49.3386 C   0  0  0  0  0  0  0  0  0  0  0  0
    3.1299   41.2929   48.2543 C   0  0  0  0  0  3  0  0  0  0  0  0
    4.9354   42.2832   49.5124 C   0  0  0  0  0  3  0  0  0  0  0  0
    4.0659   40.8428   47.3493 C   0  0  0  0  0  3  0  0  0  0  0  0
    5.4274   41.1026   47.5108 C   0  0  0  0  0  3  0  0  0  0  0  0
    2.3548   42.5933   50.5034 S   0  0  0  0  0  0  0  0  0  0  0  0
    2.5701   41.6433   52.0322 C   0  0  0  0  0  1  0  0  0  0  0  0
    6.0308   45.7236   51.5706 O   0  0  0  0  0  0  0  0  0  0  0  0
    4.6732   45.3185   51.4635 C   0  0  0  0  0  2  0  0  0  0  0  0
    3.9566   45.8218   52.6988 C   0  0  0  0  0  3  0  0  0  0  0  0
    3.9728   44.7160   53.7293 C   0  0  0  0  0  2  0  0  0  0  0  0
    2.5516   46.1965   52.2772 C   0  0  0  0  0  2  0  0  0  0  0  0
    3.1218   45.0075   54.9307 C   0  0  0  0  0  2  0  0  0  0  0  0
    1.4974   45.5674   53.1557 C   0  0  0  0  0  2  0  0  0  0  0  0
    1.8773   45.8047   54.5981 C   0  0  0  0  0  2  0  0  0  0  0  0
  1 10  1  0
  2  1  1  0
  3  2  2  0
  4  8  1  0
  4  3  1  0
  5  4  1  0
  6  5  1  0
  6  7  1  0
  7  8  2  0
  8  9  1  0
  9  1  2  0
 10 11  1  0
 11 14  2  0
 12 17  1  0
 13 12  2  0
 14 12  1  0
 15 13  1  0
 16 11  1  0
 16 15  2  0
 17 18  1  0
 19  3  1  0
 19 20  1  0
 21 20  1  0
 21 22  1  0
 22 24  1  0
 23 25  1  0
 23 21  1  0
 25 26  1  0
 26 24  1  0
M  RAD  8   4   2   6   3  13   2  14   2  15   2  16   2  18   2  20   3
M  RAD  6  21   2  22   3  23   3  24   3  25   3  26   3
M  END
>  <REMARK>  (1) 
 SMILES CSc1cccc(Nc2nc(OCC3CCCCC3)c3[nH]cnc3n2)c1
 SMILES IDX 9 1 10 2 11 3 20 4 21 5 22 6 23 7 24 8 25 9 8 11 7 13 3 14
 SMILES IDX 4 15 26 16 5 17 6 18 2 19 1 20 12 21 13 22 14 23 15 24 19 25
 SMILES IDX 16 26 18 27 17 28
 H PARENT 21 10 8 12

>  <TORSDO>  (1) 
F 6

$$$$
