/home/pchatterjee/Documents/git/vs_workflow/DiffDock/diffdock_run/pdbqt_scrubbed/5329557.pdbqt
     RDKit          3D

 26 29  0  0  1  0  0  0  0  0999 V2000
    7.7609   43.2076   49.5397 C   0  0  0  0  0  0  0  0  0  0  0  0
    6.7536   43.8032   50.3562 N   0  0  0  0  0  0  0  0  0  0  0  0
    7.0189   44.8426   51.1119 C   0  0  0  0  0  0  0  0  0  0  0  0
    8.2997   45.4054   51.1385 C   0  0  0  0  0  3  0  0  0  0  0  0
    8.8362   46.3002   52.0407 N   0  0  0  0  0  0  0  0  0  0  0  0
   10.2074   46.5107   51.5217 C   0  0  0  0  0  2  0  0  0  0  0  0
   10.4269   45.4453   50.5672 N   0  0  0  0  0  0  0  0  0  0  0  0
    9.3201   44.7815   50.3275 C   0  0  0  0  0  0  0  0  0  0  0  0
    8.9873   43.6643   49.5138 N   0  0  0  0  0  0  0  0  0  0  0  0
    7.4393   42.0784   48.7197 N   0  0  0  0  0  0  0  0  0  0  0  0
    6.0666   41.7264   48.5269 C   0  0  0  0  0  0  0  0  0  0  0  0
    3.7220   41.9009   49.1006 C   0  0  0  0  0  0  0  0  0  0  0  0
    3.3745   41.0053   48.1128 C   0  0  0  0  0  3  0  0  0  0  0  0
    5.0545   42.2596   49.3077 C   0  0  0  0  0  3  0  0  0  0  0  0
    4.3833   40.4767   47.3378 C   0  0  0  0  0  3  0  0  0  0  0  0
    5.7198   40.8266   47.5339 C   0  0  0  0  0  3  0  0  0  0  0  0
    2.4064   42.5782   50.0975 S   0  0  0  0  0  0  0  0  0  0  0  0
    2.5367   41.8362   51.7463 C   0  0  0  0  0  1  0  0  0  0  0  0
    5.9591   45.3303   51.8649 O   0  0  0  0  0  0  0  0  0  0  0  0
    4.9303   44.4908   52.3703 C   0  0  0  0  0  2  0  0  0  0  0  0
    3.6113   45.1788   52.0880 C   0  0  0  0  0  3  0  0  0  0  0  0
    3.6918   46.5838   52.6399 C   0  0  0  0  0  2  0  0  0  0  0  0
    2.5287   44.3581   52.7562 C   0  0  0  0  0  2  0  0  0  0  0  0
    2.3808   47.3137   52.6071 C   0  0  0  0  0  2  0  0  0  0  0  0
    1.6234   45.1951   53.6273 C   0  0  0  0  0  2  0  0  0  0  0  0
    1.1895   46.4063   52.8361 C   0  0  0  0  0  2  0  0  0  0  0  0
  1 10  1  0
  2  1  1  0
  3  2  2  0
  4  8  1  0
  4  3  1  0
  5  4  1  0
  6  5  1  0
  6  7  1  0
  7  8  2  0
  8  9  1  0
  9  1  2  0
 10 11  1  0
 11 14  2  0
 12 17  1  0
 13 12  2  0
 14 12  1  0
 15 13  1  0
 16 11  1  0
 16 15  2  0
 17 18  1  0
 19  3  1  0
 19 20  1  0
 21 20  1  0
 21 22  1  0
 22 24  1  0
 23 25  1  0
 23 21  1  0
 25 26  1  0
 26 24  1  0
M  RAD  8   4   2   6   3  13   2  14   2  15   2  16   2  18   2  20   3
M  RAD  6  21   2  22   3  23   3  24   3  25   3  26   3
M  END
>  <REMARK>  (1) 
 SMILES CSc1cccc(Nc2nc(OCC3CCCCC3)c3[nH]cnc3n2)c1
 SMILES IDX 9 1 10 2 11 3 20 4 21 5 22 6 23 7 24 8 25 9 8 11 7 13 3 14
 SMILES IDX 4 15 26 16 5 17 6 18 2 19 1 20 12 21 13 22 14 23 15 24 19 25
 SMILES IDX 16 26 18 27 17 28
 H PARENT 21 10 8 12

>  <TORSDO>  (1) 
F 6

$$$$
