/home/pchatterjee/Documents/git/vs_workflow/DiffDock/diffdock_run/pdbqt_scrubbed/Z48858335.pdbqt
     RDKit          3D

 22 24  0  0  0  0  0  0  0  0999 V2000
   10.4962   45.4734   50.8912 C   0  0  0  0  0  1  0  0  0  0  0  0
    9.1082   44.8891   50.6228 C   0  0  0  0  0  0  0  0  0  0  0  0
    8.9386   43.8950   49.7937 N   0  0  0  0  0  0  0  0  0  0  0  0
    7.8290   43.3750   49.5286 C   0  0  0  0  0  0  0  0  0  0  0  0
    6.6856   44.4062   50.6188 S   0  0  0  0  0  0  0  0  0  0  0  0
    8.0217   45.3918   51.2422 C   0  0  0  0  0  0  0  0  0  0  0  0
    7.7449   46.4255   52.1786 C   0  0  0  0  0  0  0  0  0  0  0  0
    6.4318   46.8287   52.5861 N   0  0  0  0  0  0  0  0  0  0  0  0
    8.7210   47.0542   52.7110 O   0  0  0  0  0  0  0  0  0  0  0  0
    6.3636   47.8612   53.5527 C   0  0  0  0  0  0  0  0  0  0  0  0
    7.0555   49.0414   53.5073 C   0  0  0  0  0  3  0  0  0  0  0  0
    5.5129   47.6717   54.6416 C   0  0  0  0  0  3  0  0  0  0  0  0
    6.9370   50.0122   54.4766 C   0  0  0  0  0  3  0  0  0  0  0  0
    5.3776   48.6410   55.6351 C   0  0  0  0  0  3  0  0  0  0  0  0
    6.0976   49.8084   55.5404 C   0  0  0  0  0  3  0  0  0  0  0  0
    7.2966   42.3445   48.7156 N   0  0  0  0  0  0  0  0  0  0  0  0
    6.2434   41.4405   49.0678 C   0  0  0  0  0  3  0  0  0  0  0  0
    5.7128   40.7969   47.8124 C   0  0  0  0  0  2  0  0  0  0  0  0
    5.1071   42.3125   49.6271 C   0  0  0  0  0  2  0  0  0  0  0  0
    4.3181   41.2370   47.4389 C   0  0  0  0  0  2  0  0  0  0  0  0
    3.9480   41.3877   49.9026 C   0  0  0  0  0  2  0  0  0  0  0  0
    3.3433   40.9489   48.5759 C   0  0  0  0  0  2  0  0  0  0  0  0
  2  6  2  0
  2  1  1  0
  3  2  1  0
  4  5  1  0
  4  3  2  0
  5  6  1  0
  6  7  1  0
  7  9  2  0
  8  7  1  0
  8 10  1  0
 10 12  1  0
 11 10  2  0
 11 13  1  0
 12 14  2  0
 13 15  2  0
 15 14  1  0
 16  4  1  0
 17 16  1  0
 17 19  1  0
 18 20  1  0
 18 17  1  0
 19 21  1  0
 20 22  1  0
 22 21  1  0
M  RAD  8   1   2  11   2  12   2  13   2  14   2  15   2  17   2  18   3
M  RAD  4  19   3  20   3  21   3  22   3
M  END
>  <REMARK>  (1) 
 SMILES Cc1nc(NC2CCCCC2)sc1C(=O)Nc1ccccc1
 SMILES IDX 1 1 2 2 3 3 4 4 12 5 13 6 14 7 16 8 15 9 17 11 18 12 22 13
 SMILES IDX 19 14 21 15 20 16 5 17 6 19 7 20 11 21 8 22 10 23 9 24
 H PARENT 16 10 5 18

>  <TORSDO>  (1) 
F 4

$$$$
