/home/pchatterjee/Documents/git/vs_workflow/DiffDock/diffdock_run/pdbqt_scrubbed/Z48858335.pdbqt
     RDKit          3D

 22 24  0  0  0  0  0  0  0  0999 V2000
   11.0997   45.4428   50.6787 C   0  0  0  0  0  1  0  0  0  0  0  0
    9.6106   45.1000   50.6060 C   0  0  0  0  0  0  0  0  0  0  0  0
    9.1499   44.2589   49.7202 N   0  0  0  0  0  0  0  0  0  0  0  0
    7.9427   43.9396   49.6071 C   0  0  0  0  0  0  0  0  0  0  0  0
    7.1741   44.9664   50.9905 S   0  0  0  0  0  0  0  0  0  0  0  0
    8.7353   45.6631   51.4625 C   0  0  0  0  0  0  0  0  0  0  0  0
    8.7854   46.5912   52.5386 C   0  0  0  0  0  0  0  0  0  0  0  0
    7.7246   46.8141   53.4755 N   0  0  0  0  0  0  0  0  0  0  0  0
    9.8431   47.2879   52.7045 O   0  0  0  0  0  0  0  0  0  0  0  0
    7.9522   47.8093   54.4567 C   0  0  0  0  0  0  0  0  0  0  0  0
    9.0763   47.9235   55.2292 C   0  0  0  0  0  3  0  0  0  0  0  0
    6.9551   48.7650   54.6509 C   0  0  0  0  0  3  0  0  0  0  0  0
    9.2412   48.9234   56.1615 C   0  0  0  0  0  3  0  0  0  0  0  0
    7.1005   49.7860   55.5897 C   0  0  0  0  0  3  0  0  0  0  0  0
    8.2503   49.8530   56.3402 C   0  0  0  0  0  3  0  0  0  0  0  0
    7.1257   43.1115   48.7990 N   0  0  0  0  0  0  0  0  0  0  0  0
    6.1164   42.2046   49.2565 C   0  0  0  0  0  3  0  0  0  0  0  0
    5.5203   41.4974   48.0663 C   0  0  0  0  0  2  0  0  0  0  0  0
    5.0002   43.0791   49.8510 C   0  0  0  0  0  2  0  0  0  0  0  0
    4.0955   41.8953   47.7658 C   0  0  0  0  0  2  0  0  0  0  0  0
    3.8807   42.1461   50.2397 C   0  0  0  0  0  2  0  0  0  0  0  0
    3.2018   41.6391   48.9748 C   0  0  0  0  0  2  0  0  0  0  0  0
  2  6  2  0
  2  1  1  0
  3  2  1  0
  4  5  1  0
  4  3  2  0
  5  6  1  0
  6  7  1  0
  7  9  2  0
  8  7  1  0
  8 10  1  0
 10 12  1  0
 11 10  2  0
 11 13  1  0
 12 14  2  0
 13 15  2  0
 15 14  1  0
 16  4  1  0
 17 16  1  0
 17 19  1  0
 18 20  1  0
 18 17  1  0
 19 21  1  0
 20 22  1  0
 22 21  1  0
M  RAD  8   1   2  11   2  12   2  13   2  14   2  15   2  17   2  18   3
M  RAD  4  19   3  20   3  21   3  22   3
M  END
>  <REMARK>  (1) 
 SMILES Cc1nc(NC2CCCCC2)sc1C(=O)Nc1ccccc1
 SMILES IDX 1 1 2 2 3 3 4 4 12 5 13 6 14 7 16 8 15 9 17 11 18 12 22 13
 SMILES IDX 19 14 21 15 20 16 5 17 6 19 7 20 11 21 8 22 10 23 9 24
 H PARENT 16 10 5 18

>  <TORSDO>  (1) 
F 4

$$$$
