/home/pchatterjee/Documents/git/vs_workflow/DiffDock/diffdock_run/pdbqt_scrubbed/Z48858335.pdbqt
     RDKit          3D

 22 24  0  0  0  0  0  0  0  0999 V2000
   11.3183   68.3289   81.3435 C   0  0  0  0  0  1  0  0  0  0  0  0
   10.1426   67.7603   82.1401 C   0  0  0  0  0  0  0  0  0  0  0  0
    9.0302   68.4291   82.2796 N   0  0  0  0  0  0  0  0  0  0  0  0
    8.0337   68.0207   82.9217 C   0  0  0  0  0  0  0  0  0  0  0  0
    8.6546   66.3374   83.5051 S   0  0  0  0  0  0  0  0  0  0  0  0
   10.2306   66.5463   82.7192 C   0  0  0  0  0  0  0  0  0  0  0  0
   11.2033   65.5147   82.8270 C   0  0  0  0  0  0  0  0  0  0  0  0
   10.9193   64.1590   83.1931 N   0  0  0  0  0  0  0  0  0  0  0  0
   12.4263   65.7910   82.5828 O   0  0  0  0  0  0  0  0  0  0  0  0
   12.0386   63.3284   83.4431 C   0  0  0  0  0  0  0  0  0  0  0  0
   13.3156   63.5612   83.0091 C   0  0  0  0  0  3  0  0  0  0  0  0
   11.8325   62.1786   84.2052 C   0  0  0  0  0  3  0  0  0  0  0  0
   14.3653   62.7174   83.2956 C   0  0  0  0  0  3  0  0  0  0  0  0
   12.8806   61.3097   84.5071 C   0  0  0  0  0  3  0  0  0  0  0  0
   14.1442   61.5912   84.0444 C   0  0  0  0  0  3  0  0  0  0  0  0
    6.7332   68.4588   83.2724 N   0  0  0  0  0  0  0  0  0  0  0  0
    5.6526   67.6378   83.7293 C   0  0  0  0  0  3  0  0  0  0  0  0
    4.4686   68.5178   84.0388 C   0  0  0  0  0  2  0  0  0  0  0  0
    6.1141   67.0375   85.0675 C   0  0  0  0  0  2  0  0  0  0  0  0
    4.1454   68.6173   85.5099 C   0  0  0  0  0  2  0  0  0  0  0  0
    4.9467   66.2561   85.6163 C   0  0  0  0  0  2  0  0  0  0  0  0
    3.8823   67.2337   86.0950 C   0  0  0  0  0  2  0  0  0  0  0  0
  2  6  2  0
  2  1  1  0
  3  2  1  0
  4  5  1  0
  4  3  2  0
  5  6  1  0
  6  7  1  0
  7  9  2  0
  8  7  1  0
  8 10  1  0
 10 12  1  0
 11 10  2  0
 11 13  1  0
 12 14  2  0
 13 15  2  0
 15 14  1  0
 16  4  1  0
 17 16  1  0
 17 19  1  0
 18 20  1  0
 18 17  1  0
 19 21  1  0
 20 22  1  0
 22 21  1  0
M  RAD  8   1   2  11   2  12   2  13   2  14   2  15   2  17   2  18   3
M  RAD  4  19   3  20   3  21   3  22   3
M  END
>  <REMARK>  (1) 
 SMILES Cc1nc(NC2CCCCC2)sc1C(=O)Nc1ccccc1
 SMILES IDX 1 1 2 2 3 3 4 4 12 5 13 6 14 7 16 8 15 9 17 11 18 12 22 13
 SMILES IDX 19 14 21 15 20 16 5 17 6 19 7 20 11 21 8 22 10 23 9 24
 H PARENT 16 10 5 18

>  <TORSDO>  (1) 
F 4

$$$$
