/home/pchatterjee/Documents/git/vs_workflow/DiffDock/diffdock_run/pdbqt_scrubbed/Z48858335.pdbqt
     RDKit          3D

 22 24  0  0  0  0  0  0  0  0999 V2000
   10.6767   45.2536   51.2151 C   0  0  0  0  0  1  0  0  0  0  0  0
    9.2567   44.7922   50.8822 C   0  0  0  0  0  0  0  0  0  0  0  0
    9.0383   43.8283   50.0293 N   0  0  0  0  0  0  0  0  0  0  0  0
    7.9008   43.4074   49.7118 C   0  0  0  0  0  0  0  0  0  0  0  0
    6.8044   44.5148   50.7751 S   0  0  0  0  0  0  0  0  0  0  0  0
    8.1918   45.3753   51.4678 C   0  0  0  0  0  0  0  0  0  0  0  0
    7.9648   46.4146   52.4113 C   0  0  0  0  0  0  0  0  0  0  0  0
    6.6845   46.9879   52.7031 N   0  0  0  0  0  0  0  0  0  0  0  0
    8.9581   46.8873   53.0606 O   0  0  0  0  0  0  0  0  0  0  0  0
    6.6419   47.9202   53.7680 C   0  0  0  0  0  0  0  0  0  0  0  0
    7.4935   48.9789   53.9338 C   0  0  0  0  0  3  0  0  0  0  0  0
    5.6431   47.7594   54.7280 C   0  0  0  0  0  3  0  0  0  0  0  0
    7.3924   49.8581   54.9888 C   0  0  0  0  0  3  0  0  0  0  0  0
    5.5223   48.6373   55.8048 C   0  0  0  0  0  3  0  0  0  0  0  0
    6.4058   49.6838   55.9237 C   0  0  0  0  0  3  0  0  0  0  0  0
    7.3175   42.4374   48.8601 N   0  0  0  0  0  0  0  0  0  0  0  0
    5.9760   42.4405   48.3595 C   0  0  0  0  0  3  0  0  0  0  0  0
    5.0225   42.5663   49.5201 C   0  0  0  0  0  2  0  0  0  0  0  0
    5.7474   41.0458   47.7538 C   0  0  0  0  0  2  0  0  0  0  0  0
    4.2178   41.3184   49.7918 C   0  0  0  0  0  2  0  0  0  0  0  0
    4.3043   40.9946   47.3186 C   0  0  0  0  0  2  0  0  0  0  0  0
    3.4203   40.9159   48.5557 C   0  0  0  0  0  2  0  0  0  0  0  0
  2  6  2  0
  2  1  1  0
  3  2  1  0
  4  5  1  0
  4  3  2  0
  5  6  1  0
  6  7  1  0
  7  9  2  0
  8  7  1  0
  8 10  1  0
 10 12  1  0
 11 10  2  0
 11 13  1  0
 12 14  2  0
 13 15  2  0
 15 14  1  0
 16  4  1  0
 17 16  1  0
 17 19  1  0
 18 20  1  0
 18 17  1  0
 19 21  1  0
 20 22  1  0
 22 21  1  0
M  RAD  8   1   2  11   2  12   2  13   2  14   2  15   2  17   2  18   3
M  RAD  4  19   3  20   3  21   3  22   3
M  END
>  <REMARK>  (1) 
 SMILES Cc1nc(NC2CCCCC2)sc1C(=O)Nc1ccccc1
 SMILES IDX 1 1 2 2 3 3 4 4 12 5 13 6 14 7 16 8 15 9 17 11 18 12 22 13
 SMILES IDX 19 14 21 15 20 16 5 17 6 19 7 20 11 21 8 22 10 23 9 24
 H PARENT 16 10 5 18

>  <TORSDO>  (1) 
F 4

$$$$
