/home/pchatterjee/Documents/git/vs_workflow/DiffDock/diffdock_run/pdbqt_scrubbed/Z48858335.pdbqt
     RDKit          3D

 22 24  0  0  0  0  0  0  0  0999 V2000
   10.6539   45.4067   51.1896 C   0  0  0  0  0  1  0  0  0  0  0  0
    9.2457   44.9630   50.7892 C   0  0  0  0  0  0  0  0  0  0  0  0
    9.0560   44.0281   49.8979 N   0  0  0  0  0  0  0  0  0  0  0  0
    7.9296   43.6232   49.5247 C   0  0  0  0  0  0  0  0  0  0  0  0
    6.7982   44.7011   50.5816 S   0  0  0  0  0  0  0  0  0  0  0  0
    8.1618   45.5321   51.3531 C   0  0  0  0  0  0  0  0  0  0  0  0
    7.9032   46.5416   52.3206 C   0  0  0  0  0  0  0  0  0  0  0  0
    6.6084   47.0812   52.6124 N   0  0  0  0  0  0  0  0  0  0  0  0
    8.8795   47.0171   52.9931 O   0  0  0  0  0  0  0  0  0  0  0  0
    6.5179   47.9140   53.7540 C   0  0  0  0  0  0  0  0  0  0  0  0
    7.3740   48.9360   54.0639 C   0  0  0  0  0  3  0  0  0  0  0  0
    5.4628   47.6869   54.6375 C   0  0  0  0  0  3  0  0  0  0  0  0
    7.2249   49.7180   55.1875 C   0  0  0  0  0  3  0  0  0  0  0  0
    5.2927   48.4659   55.7816 C   0  0  0  0  0  3  0  0  0  0  0  0
    6.1832   49.4795   56.0454 C   0  0  0  0  0  3  0  0  0  0  0  0
    7.3752   42.6839   48.6210 N   0  0  0  0  0  0  0  0  0  0  0  0
    6.3382   41.7384   48.9055 C   0  0  0  0  0  3  0  0  0  0  0  0
    5.8247   41.1720   47.6064 C   0  0  0  0  0  2  0  0  0  0  0  0
    5.1833   42.5487   49.5171 C   0  0  0  0  0  2  0  0  0  0  0  0
    4.4232   41.6102   47.2568 C   0  0  0  0  0  2  0  0  0  0  0  0
    4.0411   41.5856   49.7231 C   0  0  0  0  0  2  0  0  0  0  0  0
    3.4499   41.2269   48.3667 C   0  0  0  0  0  2  0  0  0  0  0  0
  2  6  2  0
  2  1  1  0
  3  2  1  0
  4  5  1  0
  4  3  2  0
  5  6  1  0
  6  7  1  0
  7  9  2  0
  8  7  1  0
  8 10  1  0
 10 12  1  0
 11 10  2  0
 11 13  1  0
 12 14  2  0
 13 15  2  0
 15 14  1  0
 16  4  1  0
 17 16  1  0
 17 19  1  0
 18 20  1  0
 18 17  1  0
 19 21  1  0
 20 22  1  0
 22 21  1  0
M  RAD  8   1   2  11   2  12   2  13   2  14   2  15   2  17   2  18   3
M  RAD  4  19   3  20   3  21   3  22   3
M  END
>  <REMARK>  (1) 
 SMILES Cc1nc(NC2CCCCC2)sc1C(=O)Nc1ccccc1
 SMILES IDX 1 1 2 2 3 3 4 4 12 5 13 6 14 7 16 8 15 9 17 11 18 12 22 13
 SMILES IDX 19 14 21 15 20 16 5 17 6 19 7 20 11 21 8 22 10 23 9 24
 H PARENT 16 10 5 18

>  <TORSDO>  (1) 
F 4

$$$$
