/home/pchatterjee/Documents/git/vs_workflow/DiffDock/diffdock_run/pdbqt_scrubbed/Z48858335.pdbqt
     RDKit          3D

 22 24  0  0  0  0  0  0  0  0999 V2000
   10.5741   45.4980   50.9075 C   0  0  0  0  0  1  0  0  0  0  0  0
    9.1821   44.9157   50.6564 C   0  0  0  0  0  0  0  0  0  0  0  0
    9.0044   43.9037   49.8510 N   0  0  0  0  0  0  0  0  0  0  0  0
    7.8911   43.3842   49.6010 C   0  0  0  0  0  0  0  0  0  0  0  0
    6.7568   44.4468   50.6702 S   0  0  0  0  0  0  0  0  0  0  0  0
    8.1002   45.4388   51.2670 C   0  0  0  0  0  0  0  0  0  0  0  0
    7.8320   46.4953   52.1801 C   0  0  0  0  0  0  0  0  0  0  0  0
    6.5300   46.8458   52.6645 N   0  0  0  0  0  0  0  0  0  0  0  0
    8.8062   47.1967   52.6165 O   0  0  0  0  0  0  0  0  0  0  0  0
    6.4739   47.8995   53.6089 C   0  0  0  0  0  0  0  0  0  0  0  0
    7.1230   49.0997   53.5020 C   0  0  0  0  0  3  0  0  0  0  0  0
    5.6831   47.7101   54.7421 C   0  0  0  0  0  3  0  0  0  0  0  0
    7.0189   50.0902   54.4529 C   0  0  0  0  0  3  0  0  0  0  0  0
    5.5635   48.6991   55.7180 C   0  0  0  0  0  3  0  0  0  0  0  0
    6.2388   49.8862   55.5609 C   0  0  0  0  0  3  0  0  0  0  0  0
    7.3506   42.3382   48.8134 N   0  0  0  0  0  0  0  0  0  0  0  0
    6.2456   41.4958   49.1595 C   0  0  0  0  0  3  0  0  0  0  0  0
    5.7579   40.7960   47.9167 C   0  0  0  0  0  2  0  0  0  0  0  0
    5.1160   42.4405   49.6022 C   0  0  0  0  0  2  0  0  0  0  0  0
    4.4033   41.2620   47.4410 C   0  0  0  0  0  2  0  0  0  0  0  0
    3.9086   41.5764   49.8671 C   0  0  0  0  0  2  0  0  0  0  0  0
    3.3588   41.0791   48.5372 C   0  0  0  0  0  2  0  0  0  0  0  0
  2  6  2  0
  2  1  1  0
  3  2  1  0
  4  5  1  0
  4  3  2  0
  5  6  1  0
  6  7  1  0
  7  9  2  0
  8  7  1  0
  8 10  1  0
 10 12  1  0
 11 10  2  0
 11 13  1  0
 12 14  2  0
 13 15  2  0
 15 14  1  0
 16  4  1  0
 17 16  1  0
 17 19  1  0
 18 20  1  0
 18 17  1  0
 19 21  1  0
 20 22  1  0
 22 21  1  0
M  RAD  8   1   2  11   2  12   2  13   2  14   2  15   2  17   2  18   3
M  RAD  4  19   3  20   3  21   3  22   3
M  END
>  <REMARK>  (1) 
 SMILES Cc1nc(NC2CCCCC2)sc1C(=O)Nc1ccccc1
 SMILES IDX 1 1 2 2 3 3 4 4 12 5 13 6 14 7 16 8 15 9 17 11 18 12 22 13
 SMILES IDX 19 14 21 15 20 16 5 17 6 19 7 20 11 21 8 22 10 23 9 24
 H PARENT 16 10 5 18

>  <TORSDO>  (1) 
F 4

$$$$
