/home/pchatterjee/Documents/git/vs_workflow/DiffDock/diffdock_run/pdbqt_scrubbed/Z48858335.pdbqt
     RDKit          3D

 22 24  0  0  0  0  0  0  0  0999 V2000
    7.9665   42.3639   47.5781 C   0  0  0  0  0  1  0  0  0  0  0  0
    7.8471   43.2377   48.8280 C   0  0  0  0  0  0  0  0  0  0  0  0
    8.8389   43.9844   49.2318 N   0  0  0  0  0  0  0  0  0  0  0  0
    8.8052   44.7184   50.2477 C   0  0  0  0  0  0  0  0  0  0  0  0
    7.0521   44.3908   50.8628 S   0  0  0  0  0  0  0  0  0  0  0  0
    6.7057   43.2561   49.5446 C   0  0  0  0  0  0  0  0  0  0  0  0
    5.4295   42.6319   49.4821 C   0  0  0  0  0  0  0  0  0  0  0  0
    4.3089   42.9792   50.3046 N   0  0  0  0  0  0  0  0  0  0  0  0
    5.2426   41.6916   48.6381 O   0  0  0  0  0  0  0  0  0  0  0  0
    3.1824   42.1251   50.2242 C   0  0  0  0  0  0  0  0  0  0  0  0
    2.9639   41.1846   49.2542 C   0  0  0  0  0  3  0  0  0  0  0  0
    2.2134   42.2383   51.2210 C   0  0  0  0  0  3  0  0  0  0  0  0
    1.8495   40.3759   49.2381 C   0  0  0  0  0  3  0  0  0  0  0  0
    1.0769   41.4301   51.2244 C   0  0  0  0  0  3  0  0  0  0  0  0
    0.9068   40.5020   50.2247 C   0  0  0  0  0  3  0  0  0  0  0  0
    9.6509   45.6092   50.9532 N   0  0  0  0  0  0  0  0  0  0  0  0
    9.2614   46.8365   51.5796 C   0  0  0  0  0  3  0  0  0  0  0  0
   10.4239   47.3662   52.3797 C   0  0  0  0  0  2  0  0  0  0  0  0
    8.1654   46.4655   52.5921 C   0  0  0  0  0  2  0  0  0  0  0  0
   10.2197   47.3044   53.8740 C   0  0  0  0  0  2  0  0  0  0  0  0
    7.8196   47.7300   53.3378 C   0  0  0  0  0  2  0  0  0  0  0  0
    8.9677   48.0771   54.2757 C   0  0  0  0  0  2  0  0  0  0  0  0
  2  6  2  0
  2  1  1  0
  3  2  1  0
  4  5  1  0
  4  3  2  0
  5  6  1  0
  6  7  1  0
  7  9  2  0
  8  7  1  0
  8 10  1  0
 10 12  1  0
 11 10  2  0
 11 13  1  0
 12 14  2  0
 13 15  2  0
 15 14  1  0
 16  4  1  0
 17 16  1  0
 17 19  1  0
 18 20  1  0
 18 17  1  0
 19 21  1  0
 20 22  1  0
 22 21  1  0
M  RAD  8   1   2  11   2  12   2  13   2  14   2  15   2  17   2  18   3
M  RAD  4  19   3  20   3  21   3  22   3
M  END
>  <REMARK>  (1) 
 SMILES Cc1nc(NC2CCCCC2)sc1C(=O)Nc1ccccc1
 SMILES IDX 1 1 2 2 3 3 4 4 12 5 13 6 14 7 16 8 15 9 17 11 18 12 22 13
 SMILES IDX 19 14 21 15 20 16 5 17 6 19 7 20 11 21 8 22 10 23 9 24
 H PARENT 16 10 5 18

>  <TORSDO>  (1) 
F 4

$$$$
