/home/pchatterjee/Documents/git/vs_workflow/DiffDock/diffdock_run/pdbqt_scrubbed/Z48858335.pdbqt
     RDKit          3D

 22 24  0  0  0  0  0  0  0  0999 V2000
    7.8655   42.1889   47.4551 C   0  0  0  0  0  1  0  0  0  0  0  0
    7.7525   43.0920   48.6845 C   0  0  0  0  0  0  0  0  0  0  0  0
    8.7759   43.7741   49.1225 N   0  0  0  0  0  0  0  0  0  0  0  0
    8.7488   44.5274   50.1244 C   0  0  0  0  0  0  0  0  0  0  0  0
    6.9508   44.3361   50.6623 S   0  0  0  0  0  0  0  0  0  0  0  0
    6.5840   43.2044   49.3470 C   0  0  0  0  0  0  0  0  0  0  0  0
    5.2707   42.6711   49.2349 C   0  0  0  0  0  0  0  0  0  0  0  0
    4.1991   42.9394   50.1474 N   0  0  0  0  0  0  0  0  0  0  0  0
    5.0006   41.8950   48.2570 O   0  0  0  0  0  0  0  0  0  0  0  0
    3.0129   42.1890   49.9611 C   0  0  0  0  0  0  0  0  0  0  0  0
    2.2680   42.1491   48.8135 C   0  0  0  0  0  3  0  0  0  0  0  0
    2.5647   41.4131   51.0299 C   0  0  0  0  0  3  0  0  0  0  0  0
    1.1262   41.3888   48.6925 C   0  0  0  0  0  3  0  0  0  0  0  0
    1.4110   40.6360   50.9299 C   0  0  0  0  0  3  0  0  0  0  0  0
    0.6996   40.6338   49.7535 C   0  0  0  0  0  3  0  0  0  0  0  0
    9.6232   45.3690   50.8548 N   0  0  0  0  0  0  0  0  0  0  0  0
    9.4694   45.7783   52.2183 C   0  0  0  0  0  3  0  0  0  0  0  0
    8.0239   46.1290   52.4622 C   0  0  0  0  0  2  0  0  0  0  0  0
   10.2672   47.0851   52.3601 C   0  0  0  0  0  2  0  0  0  0  0  0
    7.7779   47.6020   52.6814 C   0  0  0  0  0  2  0  0  0  0  0  0
   10.0277   47.5879   53.7617 C   0  0  0  0  0  2  0  0  0  0  0  0
    8.6019   48.1131   53.8586 C   0  0  0  0  0  2  0  0  0  0  0  0
  2  6  2  0
  2  1  1  0
  3  2  1  0
  4  5  1  0
  4  3  2  0
  5  6  1  0
  6  7  1  0
  7  9  2  0
  8  7  1  0
  8 10  1  0
 10 12  1  0
 11 10  2  0
 11 13  1  0
 12 14  2  0
 13 15  2  0
 15 14  1  0
 16  4  1  0
 17 16  1  0
 17 19  1  0
 18 20  1  0
 18 17  1  0
 19 21  1  0
 20 22  1  0
 22 21  1  0
M  RAD  8   1   2  11   2  12   2  13   2  14   2  15   2  17   2  18   3
M  RAD  4  19   3  20   3  21   3  22   3
M  END
>  <REMARK>  (1) 
 SMILES Cc1nc(NC2CCCCC2)sc1C(=O)Nc1ccccc1
 SMILES IDX 1 1 2 2 3 3 4 4 12 5 13 6 14 7 16 8 15 9 17 11 18 12 22 13
 SMILES IDX 19 14 21 15 20 16 5 17 6 19 7 20 11 21 8 22 10 23 9 24
 H PARENT 16 10 5 18

>  <TORSDO>  (1) 
F 4

$$$$
