/home/pchatterjee/Documents/git/vs_workflow/DiffDock/diffdock_run/pdbqt_scrubbed/Z48858335.pdbqt
     RDKit          3D

 22 24  0  0  0  0  0  0  0  0999 V2000
   10.7312   45.4517   51.0714 C   0  0  0  0  0  1  0  0  0  0  0  0
    9.3172   44.9623   50.7532 C   0  0  0  0  0  0  0  0  0  0  0  0
    9.1097   43.9859   49.9119 N   0  0  0  0  0  0  0  0  0  0  0  0
    7.9775   43.5422   49.6067 C   0  0  0  0  0  0  0  0  0  0  0  0
    6.8694   44.6417   50.6661 S   0  0  0  0  0  0  0  0  0  0  0  0
    8.2464   45.5331   51.3401 C   0  0  0  0  0  0  0  0  0  0  0  0
    8.0078   46.5782   52.2744 C   0  0  0  0  0  0  0  0  0  0  0  0
    6.7229   47.1478   52.5527 N   0  0  0  0  0  0  0  0  0  0  0  0
    8.9942   47.0601   52.9273 O   0  0  0  0  0  0  0  0  0  0  0  0
    6.6629   48.0666   53.6284 C   0  0  0  0  0  0  0  0  0  0  0  0
    7.5026   49.1315   53.8137 C   0  0  0  0  0  3  0  0  0  0  0  0
    5.6584   47.8842   54.5787 C   0  0  0  0  0  3  0  0  0  0  0  0
    7.3848   49.9967   54.8784 C   0  0  0  0  0  3  0  0  0  0  0  0
    5.5208   48.7476   55.6651 C   0  0  0  0  0  3  0  0  0  0  0  0
    6.3929   49.8012   55.8035 C   0  0  0  0  0  3  0  0  0  0  0  0
    7.4053   42.5534   48.7693 N   0  0  0  0  0  0  0  0  0  0  0  0
    6.0536   42.5148   48.2985 C   0  0  0  0  0  3  0  0  0  0  0  0
    5.1227   42.6270   49.4787 C   0  0  0  0  0  2  0  0  0  0  0  0
    5.8500   41.1081   47.7120 C   0  0  0  0  0  2  0  0  0  0  0  0
    4.3585   41.3607   49.7806 C   0  0  0  0  0  2  0  0  0  0  0  0
    4.3996   41.0132   47.3095 C   0  0  0  0  0  2  0  0  0  0  0  0
    3.5454   40.9237   48.5666 C   0  0  0  0  0  2  0  0  0  0  0  0
  2  6  2  0
  2  1  1  0
  3  2  1  0
  4  5  1  0
  4  3  2  0
  5  6  1  0
  6  7  1  0
  7  9  2  0
  8  7  1  0
  8 10  1  0
 10 12  1  0
 11 10  2  0
 11 13  1  0
 12 14  2  0
 13 15  2  0
 15 14  1  0
 16  4  1  0
 17 16  1  0
 17 19  1  0
 18 20  1  0
 18 17  1  0
 19 21  1  0
 20 22  1  0
 22 21  1  0
M  RAD  8   1   2  11   2  12   2  13   2  14   2  15   2  17   2  18   3
M  RAD  4  19   3  20   3  21   3  22   3
M  END
>  <REMARK>  (1) 
 SMILES Cc1nc(NC2CCCCC2)sc1C(=O)Nc1ccccc1
 SMILES IDX 1 1 2 2 3 3 4 4 12 5 13 6 14 7 16 8 15 9 17 11 18 12 22 13
 SMILES IDX 19 14 21 15 20 16 5 17 6 19 7 20 11 21 8 22 10 23 9 24
 H PARENT 16 10 5 18

>  <TORSDO>  (1) 
F 4

$$$$
