/home/pchatterjee/Documents/git/vs_workflow/DiffDock/diffdock_run/pdbqt_scrubbed/Z48858335.pdbqt
     RDKit          3D

 22 24  0  0  0  0  0  0  0  0999 V2000
    7.6968   42.5619   47.5035 C   0  0  0  0  0  1  0  0  0  0  0  0
    7.6637   43.2923   48.8472 C   0  0  0  0  0  0  0  0  0  0  0  0
    8.6986   43.9573   49.2844 N   0  0  0  0  0  0  0  0  0  0  0  0
    8.7357   44.5726   50.3761 C   0  0  0  0  0  0  0  0  0  0  0  0
    7.0002   44.2326   51.0330 S   0  0  0  0  0  0  0  0  0  0  0  0
    6.5558   43.2653   49.6146 C   0  0  0  0  0  0  0  0  0  0  0  0
    5.2563   42.6924   49.5433 C   0  0  0  0  0  0  0  0  0  0  0  0
    4.3563   42.5681   50.6511 N   0  0  0  0  0  0  0  0  0  0  0  0
    4.8367   42.2508   48.4205 O   0  0  0  0  0  0  0  0  0  0  0  0
    3.1244   41.9207   50.3898 C   0  0  0  0  0  0  0  0  0  0  0  0
    1.8828   42.4510   50.6145 C   0  0  0  0  0  3  0  0  0  0  0  0
    3.1717   40.6369   49.8467 C   0  0  0  0  0  3  0  0  0  0  0  0
    0.7196   41.7719   50.3283 C   0  0  0  0  0  3  0  0  0  0  0  0
    2.0066   39.9305   49.5495 C   0  0  0  0  0  3  0  0  0  0  0  0
    0.7850   40.5106   49.7966 C   0  0  0  0  0  3  0  0  0  0  0  0
    9.6430   45.3512   51.1358 N   0  0  0  0  0  0  0  0  0  0  0  0
    9.4853   45.7511   52.5016 C   0  0  0  0  0  3  0  0  0  0  0  0
    8.0334   46.0697   52.7521 C   0  0  0  0  0  2  0  0  0  0  0  0
   10.2554   47.0740   52.6465 C   0  0  0  0  0  2  0  0  0  0  0  0
    7.7567   47.5362   52.9786 C   0  0  0  0  0  2  0  0  0  0  0  0
   10.0102   47.5656   54.0511 C   0  0  0  0  0  2  0  0  0  0  0  0
    8.5738   48.0596   54.1552 C   0  0  0  0  0  2  0  0  0  0  0  0
  2  6  2  0
  2  1  1  0
  3  2  1  0
  4  5  1  0
  4  3  2  0
  5  6  1  0
  6  7  1  0
  7  9  2  0
  8  7  1  0
  8 10  1  0
 10 12  1  0
 11 10  2  0
 11 13  1  0
 12 14  2  0
 13 15  2  0
 15 14  1  0
 16  4  1  0
 17 16  1  0
 17 19  1  0
 18 20  1  0
 18 17  1  0
 19 21  1  0
 20 22  1  0
 22 21  1  0
M  RAD  8   1   2  11   2  12   2  13   2  14   2  15   2  17   2  18   3
M  RAD  4  19   3  20   3  21   3  22   3
M  END
>  <REMARK>  (1) 
 SMILES Cc1nc(NC2CCCCC2)sc1C(=O)Nc1ccccc1
 SMILES IDX 1 1 2 2 3 3 4 4 12 5 13 6 14 7 16 8 15 9 17 11 18 12 22 13
 SMILES IDX 19 14 21 15 20 16 5 17 6 19 7 20 11 21 8 22 10 23 9 24
 H PARENT 16 10 5 18

>  <TORSDO>  (1) 
F 4

$$$$
