/home/pchatterjee/Documents/git/vs_workflow/DiffDock/diffdock_run/pdbqt_scrubbed/Z811081058.pdbqt
     RDKit          3D

 25 28  0  0  1  0  0  0  0  0999 V2000
    6.9025   48.2729   51.5364 O   0  0  0  0  0  0  0  0  0  0  0  0
    7.4107   47.2757   52.1071 C   0  0  0  0  0  0  0  0  0  0  0  0
    8.3602   46.4323   51.3893 C   0  0  0  0  0  0  0  0  0  0  0  0
    9.7394   46.6311   51.4469 C   0  0  0  0  0  3  0  0  0  0  0  0
    8.1275   45.3495   50.5690 C   0  0  0  0  0  0  0  0  0  0  0  0
   10.2942   45.6870   50.6789 N   0  0  0  0  0  0  0  0  0  0  0  0
    6.9734   44.7345   50.1743 C   0  0  0  0  0  3  0  0  0  0  0  0
    9.3542   44.8948   50.1324 C   0  0  0  0  0  0  0  0  0  0  0  0
    7.0545   43.6336   49.3181 C   0  0  0  0  0  3  0  0  0  0  0  0
    9.4267   43.8495   49.3198 N   0  0  0  0  0  0  0  0  0  0  0  0
    8.3072   43.2239   48.9145 C   0  0  0  0  0  3  0  0  0  0  0  0
    7.0629   46.9560   53.4700 N   0  0  0  0  0  0  0  0  0  0  0  0
    8.1054   46.5109   54.3657 C   0  0  0  0  0  2  0  0  0  0  0  0
    8.7738   47.6355   55.0670 C   0  0  0  0  0  0  0  0  0  0  0  0
    9.7498   47.4433   56.0256 C   0  0  0  0  0  3  0  0  0  0  0  0
    8.4380   48.9467   54.7818 C   0  0  0  0  0  3  0  0  0  0  0  0
   10.3646   48.4756   56.6706 C   0  0  0  0  0  3  0  0  0  0  0  0
    9.0639   50.0058   55.4388 C   0  0  0  0  0  3  0  0  0  0  0  0
   10.0358   49.7864   56.3922 C   0  0  0  0  0  3  0  0  0  0  0  0
    5.7081   47.0821   53.9114 C   0  0  0  0  0  2  0  0  0  0  0  0
    4.9066   45.7947   53.8275 C   0  0  0  0  0  3  0  0  0  0  0  0
    4.8302   45.3473   52.3749 C   0  0  0  0  0  2  0  0  0  0  0  0
    3.6330   46.1197   54.2285 O   0  0  0  0  0  0  0  0  0  0  0  0
    3.4754   45.9189   51.9451 C   0  0  0  0  0  2  0  0  0  0  0  0
    2.7278   45.7755   53.2563 C   0  0  0  0  0  2  0  0  0  0  0  0
  1  2  2  0
  2  3  1  0
  3  5  1  0
  3  4  2  0
  4  6  1  0
  5  8  2  0
  7  5  1  0
  7  9  2  0
  8  6  1  0
  8 10  1  0
  9 11  1  0
 11 10  2  0
 12 13  1  0
 12  2  1  0
 14 13  1  0
 14 15  2  0
 16 14  1  0
 17 15  1  0
 18 16  2  0
 18 19  1  0
 19 17  2  0
 20 12  1  0
 21 23  1  0
 21 20  1  0
 21 22  1  0
 23 25  1  0
 24 25  1  0
 24 22  1  0
M  RAD  8   4   2   7   2   9   2  11   2  13   3  15   2  16   2  17   2
M  RAD  7  18   2  19   2  20   3  21   2  22   3  24   3  25   3
M  END
>  <REMARK>  (1) 
 SMILES O=C(c1c[nH]c2ncccc12)N(Cc1ccccc1)CC1CCCO1
 SMILES IDX 1 1 2 2 3 3 4 4 11 5 5 6 10 7 6 8 9 9 7 10 8 11 12 13 13 14
 SMILES IDX 14 15 15 16 19 17 16 18 18 19 17 20 20 21 21 22 22 23 25 24
 SMILES IDX 23 25 24 26
 H PARENT 5 12

>  <TORSDO>  (1) 
F 6

$$$$
