/home/pchatterjee/Documents/git/vs_workflow/DiffDock/diffdock_run/pdbqt_scrubbed/Z811081058.pdbqt
     RDKit          3D

 25 28  0  0  1  0  0  0  0  0999 V2000
    8.5902   47.8737   54.2124 O   0  0  0  0  0  0  0  0  0  0  0  0
    7.9856   47.1409   53.3905 C   0  0  0  0  0  0  0  0  0  0  0  0
    8.7145   46.5376   52.2802 C   0  0  0  0  0  0  0  0  0  0  0  0
   10.0726   46.7636   52.0578 C   0  0  0  0  0  3  0  0  0  0  0  0
    8.2648   45.6871   51.2933 C   0  0  0  0  0  0  0  0  0  0  0  0
   10.4037   46.0617   50.9684 N   0  0  0  0  0  0  0  0  0  0  0  0
    7.0341   45.1506   51.0413 C   0  0  0  0  0  3  0  0  0  0  0  0
    9.3401   45.3993   50.4788 C   0  0  0  0  0  0  0  0  0  0  0  0
    6.8802   44.3026   49.9419 C   0  0  0  0  0  3  0  0  0  0  0  0
    9.1896   44.5939   49.4364 N   0  0  0  0  0  0  0  0  0  0  0  0
    7.9896   44.0510   49.1636 C   0  0  0  0  0  3  0  0  0  0  0  0
    6.5725   46.8895   53.5349 N   0  0  0  0  0  0  0  0  0  0  0  0
    6.0062   45.7248   52.8946 C   0  0  0  0  0  2  0  0  0  0  0  0
    4.5272   45.6728   53.0099 C   0  0  0  0  0  0  0  0  0  0  0  0
    3.6864   46.3396   52.1399 C   0  0  0  0  0  3  0  0  0  0  0  0
    3.9212   44.9392   54.0139 C   0  0  0  0  0  3  0  0  0  0  0  0
    2.3275   46.2926   52.2448 C   0  0  0  0  0  3  0  0  0  0  0  0
    2.5320   44.8880   54.1253 C   0  0  0  0  0  3  0  0  0  0  0  0
    1.7150   45.5633   53.2431 C   0  0  0  0  0  3  0  0  0  0  0  0
    5.7608   47.7849   54.3003 C   0  0  0  0  0  2  0  0  0  0  0  0
    6.1700   49.2431   54.1866 C   0  0  0  0  0  3  0  0  0  0  0  0
    5.3658   50.0668   55.1821 C   0  0  0  0  0  2  0  0  0  0  0  0
    5.7976   49.6392   52.9246 O   0  0  0  0  0  0  0  0  0  0  0  0
    4.2218   50.5841   54.3041 C   0  0  0  0  0  2  0  0  0  0  0  0
    4.9727   50.7335   52.9954 C   0  0  0  0  0  2  0  0  0  0  0  0
  1  2  2  0
  2  3  1  0
  3  5  1  0
  3  4  2  0
  4  6  1  0
  5  8  2  0
  7  5  1  0
  7  9  2  0
  8  6  1  0
  8 10  1  0
  9 11  1  0
 11 10  2  0
 12 13  1  0
 12  2  1  0
 14 13  1  0
 14 15  2  0
 16 14  1  0
 17 15  1  0
 18 16  2  0
 18 19  1  0
 19 17  2  0
 20 12  1  0
 21 23  1  0
 21 20  1  0
 21 22  1  0
 23 25  1  0
 24 25  1  0
 24 22  1  0
M  RAD  8   4   2   7   2   9   2  11   2  13   3  15   2  16   2  17   2
M  RAD  7  18   2  19   2  20   3  21   2  22   3  24   3  25   3
M  END
>  <REMARK>  (1) 
 SMILES O=C(c1c[nH]c2ncccc12)N(Cc1ccccc1)CC1CCCO1
 SMILES IDX 1 1 2 2 3 3 4 4 11 5 5 6 10 7 6 8 9 9 7 10 8 11 12 13 13 14
 SMILES IDX 14 15 15 16 19 17 16 18 18 19 17 20 20 21 21 22 22 23 25 24
 SMILES IDX 23 25 24 26
 H PARENT 5 12

>  <TORSDO>  (1) 
F 6

$$$$
