/home/pchatterjee/Documents/git/vs_workflow/DiffDock/diffdock_run/pdbqt_scrubbed/Z811081058.pdbqt
     RDKit          3D

 25 28  0  0  1  0  0  0  0  0999 V2000
    8.1425   47.2138   53.8993 O   0  0  0  0  0  0  0  0  0  0  0  0
    7.6547   46.6353   52.8965 C   0  0  0  0  0  0  0  0  0  0  0  0
    8.5373   46.0759   51.8785 C   0  0  0  0  0  0  0  0  0  0  0  0
    9.9082   46.3300   51.8463 C   0  0  0  0  0  3  0  0  0  0  0  0
    8.2404   45.2471   50.8181 C   0  0  0  0  0  0  0  0  0  0  0  0
   10.3957   45.6651   50.7931 N   0  0  0  0  0  0  0  0  0  0  0  0
    7.0652   44.6984   50.3894 C   0  0  0  0  0  3  0  0  0  0  0  0
    9.4203   45.0000   50.1480 C   0  0  0  0  0  0  0  0  0  0  0  0
    7.0763   43.8800   49.2573 C   0  0  0  0  0  3  0  0  0  0  0  0
    9.4264   44.2226   49.0739 N   0  0  0  0  0  0  0  0  0  0  0  0
    8.2846   43.6686   48.6285 C   0  0  0  0  0  3  0  0  0  0  0  0
    6.2253   46.5187   52.7418 N   0  0  0  0  0  0  0  0  0  0  0  0
    5.3791   47.5310   53.3302 C   0  0  0  0  0  2  0  0  0  0  0  0
    4.1775   46.9588   53.9875 C   0  0  0  0  0  0  0  0  0  0  0  0
    4.2322   46.3002   55.2007 C   0  0  0  0  0  3  0  0  0  0  0  0
    2.9305   47.0651   53.3982 C   0  0  0  0  0  3  0  0  0  0  0  0
    3.1290   45.7741   55.8055 C   0  0  0  0  0  3  0  0  0  0  0  0
    1.7994   46.5287   54.0129 C   0  0  0  0  0  3  0  0  0  0  0  0
    1.8816   45.8757   55.2247 C   0  0  0  0  0  3  0  0  0  0  0  0
    5.6714   45.4167   52.0172 C   0  0  0  0  0  2  0  0  0  0  0  0
    4.6791   44.5874   52.8135 C   0  0  0  0  0  3  0  0  0  0  0  0
    4.8196   43.1244   52.4181 C   0  0  0  0  0  2  0  0  0  0  0  0
    3.4335   45.0071   52.4126 O   0  0  0  0  0  0  0  0  0  0  0  0
    3.7116   42.9785   51.3702 C   0  0  0  0  0  2  0  0  0  0  0  0
    2.6984   43.9418   51.9569 C   0  0  0  0  0  2  0  0  0  0  0  0
  1  2  2  0
  2  3  1  0
  3  5  1  0
  3  4  2  0
  4  6  1  0
  5  8  2  0
  7  5  1  0
  7  9  2  0
  8  6  1  0
  8 10  1  0
  9 11  1  0
 11 10  2  0
 12 13  1  0
 12  2  1  0
 14 13  1  0
 14 15  2  0
 16 14  1  0
 17 15  1  0
 18 16  2  0
 18 19  1  0
 19 17  2  0
 20 12  1  0
 21 23  1  0
 21 20  1  0
 21 22  1  0
 23 25  1  0
 24 25  1  0
 24 22  1  0
M  RAD  8   4   2   7   2   9   2  11   2  13   3  15   2  16   2  17   2
M  RAD  7  18   2  19   2  20   3  21   2  22   3  24   3  25   3
M  END
>  <REMARK>  (1) 
 SMILES O=C(c1c[nH]c2ncccc12)N(Cc1ccccc1)CC1CCCO1
 SMILES IDX 1 1 2 2 3 3 4 4 11 5 5 6 10 7 6 8 9 9 7 10 8 11 12 13 13 14
 SMILES IDX 14 15 15 16 19 17 16 18 18 19 17 20 20 21 21 22 22 23 25 24
 SMILES IDX 23 25 24 26
 H PARENT 5 12

>  <TORSDO>  (1) 
F 6

$$$$
