/home/pchatterjee/Documents/git/vs_workflow/DiffDock/diffdock_run/pdbqt_scrubbed/Z811081058.pdbqt
     RDKit          3D

 25 28  0  0  1  0  0  0  0  0999 V2000
    8.0380   45.4609   54.2931 O   0  0  0  0  0  0  0  0  0  0  0  0
    7.9839   46.0754   53.1988 C   0  0  0  0  0  0  0  0  0  0  0  0
    8.6264   45.5129   52.0160 C   0  0  0  0  0  0  0  0  0  0  0  0
    9.9784   45.7012   51.7303 C   0  0  0  0  0  3  0  0  0  0  0  0
    8.0896   44.7403   51.0087 C   0  0  0  0  0  0  0  0  0  0  0  0
   10.2211   45.0540   50.5853 N   0  0  0  0  0  0  0  0  0  0  0  0
    6.8263   44.2660   50.7964 C   0  0  0  0  0  3  0  0  0  0  0  0
    9.1065   44.4620   50.1194 C   0  0  0  0  0  0  0  0  0  0  0  0
    6.5787   43.4916   49.6604 C   0  0  0  0  0  3  0  0  0  0  0  0
    8.8671   43.7266   49.0425 N   0  0  0  0  0  0  0  0  0  0  0  0
    7.6331   43.2459   48.8073 C   0  0  0  0  0  3  0  0  0  0  0  0
    7.2900   47.3362   53.1005 N   0  0  0  0  0  0  0  0  0  0  0  0
    8.0664   48.5455   52.9527 C   0  0  0  0  0  2  0  0  0  0  0  0
    8.8602   48.8659   54.1653 C   0  0  0  0  0  0  0  0  0  0  0  0
    8.5494   49.9180   55.0049 C   0  0  0  0  0  3  0  0  0  0  0  0
    9.9649   48.1074   54.5086 C   0  0  0  0  0  3  0  0  0  0  0  0
    9.2778   50.2133   56.1193 C   0  0  0  0  0  3  0  0  0  0  0  0
   10.7130   48.4055   55.6472 C   0  0  0  0  0  3  0  0  0  0  0  0
   10.3810   49.4620   56.4690 C   0  0  0  0  0  3  0  0  0  0  0  0
    5.8608   47.3723   53.1502 C   0  0  0  0  0  2  0  0  0  0  0  0
    5.1990   46.0216   52.9397 C   0  0  0  0  0  3  0  0  0  0  0  0
    3.9593   46.2018   52.0755 C   0  0  0  0  0  2  0  0  0  0  0  0
    4.7813   45.6115   54.1829 O   0  0  0  0  0  0  0  0  0  0  0  0
    2.8545   46.2925   53.1329 C   0  0  0  0  0  2  0  0  0  0  0  0
    3.4347   45.3482   54.1675 C   0  0  0  0  0  2  0  0  0  0  0  0
  1  2  2  0
  2  3  1  0
  3  5  1  0
  3  4  2  0
  4  6  1  0
  5  8  2  0
  7  5  1  0
  7  9  2  0
  8  6  1  0
  8 10  1  0
  9 11  1  0
 11 10  2  0
 12 13  1  0
 12  2  1  0
 14 13  1  0
 14 15  2  0
 16 14  1  0
 17 15  1  0
 18 16  2  0
 18 19  1  0
 19 17  2  0
 20 12  1  0
 21 23  1  0
 21 20  1  0
 21 22  1  0
 23 25  1  0
 24 25  1  0
 24 22  1  0
M  RAD  8   4   2   7   2   9   2  11   2  13   3  15   2  16   2  17   2
M  RAD  7  18   2  19   2  20   3  21   2  22   3  24   3  25   3
M  END
>  <REMARK>  (1) 
 SMILES O=C(c1c[nH]c2ncccc12)N(Cc1ccccc1)CC1CCCO1
 SMILES IDX 1 1 2 2 3 3 4 4 11 5 5 6 10 7 6 8 9 9 7 10 8 11 12 13 13 14
 SMILES IDX 14 15 15 16 19 17 16 18 18 19 17 20 20 21 21 22 22 23 25 24
 SMILES IDX 23 25 24 26
 H PARENT 5 12

>  <TORSDO>  (1) 
F 6

$$$$
