/home/pchatterjee/Documents/git/vs_workflow/DiffDock/diffdock_run/pdbqt_scrubbed/Z811081058.pdbqt
     RDKit          3D

 25 28  0  0  1  0  0  0  0  0999 V2000
    8.5279   47.7159   54.2674 O   0  0  0  0  0  0  0  0  0  0  0  0
    7.9151   47.1000   53.3601 C   0  0  0  0  0  0  0  0  0  0  0  0
    8.6563   46.5233   52.2437 C   0  0  0  0  0  0  0  0  0  0  0  0
    9.9757   46.8703   51.9545 C   0  0  0  0  0  3  0  0  0  0  0  0
    8.2546   45.5916   51.3108 C   0  0  0  0  0  0  0  0  0  0  0  0
   10.3318   46.1578   50.8801 N   0  0  0  0  0  0  0  0  0  0  0  0
    7.0740   44.9280   51.1330 C   0  0  0  0  0  3  0  0  0  0  0  0
    9.3205   45.3749   50.4628 C   0  0  0  0  0  0  0  0  0  0  0  0
    6.9618   44.0226   50.0750 C   0  0  0  0  0  3  0  0  0  0  0  0
    9.2098   44.5147   49.4598 N   0  0  0  0  0  0  0  0  0  0  0  0
    8.0596   43.8467   49.2602 C   0  0  0  0  0  3  0  0  0  0  0  0
    6.4807   46.9574   53.4119 N   0  0  0  0  0  0  0  0  0  0  0  0
    5.8528   45.9559   52.5813 C   0  0  0  0  0  2  0  0  0  0  0  0
    4.4138   45.7735   52.8965 C   0  0  0  0  0  0  0  0  0  0  0  0
    3.9746   45.0732   54.0034 C   0  0  0  0  0  3  0  0  0  0  0  0
    3.4365   46.3089   52.0768 C   0  0  0  0  0  3  0  0  0  0  0  0
    2.6530   44.9049   54.2941 C   0  0  0  0  0  3  0  0  0  0  0  0
    2.0836   46.1395   52.3699 C   0  0  0  0  0  3  0  0  0  0  0  0
    1.6718   45.4355   53.4819 C   0  0  0  0  0  3  0  0  0  0  0  0
    5.7085   47.7983   54.2738 C   0  0  0  0  0  2  0  0  0  0  0  0
    6.1037   49.2640   54.2266 C   0  0  0  0  0  3  0  0  0  0  0  0
    5.3175   50.0278   55.2823 C   0  0  0  0  0  2  0  0  0  0  0  0
    5.6980   49.7217   52.9961 O   0  0  0  0  0  0  0  0  0  0  0  0
    4.1488   50.5798   54.4598 C   0  0  0  0  0  2  0  0  0  0  0  0
    4.8668   50.8035   53.1433 C   0  0  0  0  0  2  0  0  0  0  0  0
  1  2  2  0
  2  3  1  0
  3  5  1  0
  3  4  2  0
  4  6  1  0
  5  8  2  0
  7  5  1  0
  7  9  2  0
  8  6  1  0
  8 10  1  0
  9 11  1  0
 11 10  2  0
 12 13  1  0
 12  2  1  0
 14 13  1  0
 14 15  2  0
 16 14  1  0
 17 15  1  0
 18 16  2  0
 18 19  1  0
 19 17  2  0
 20 12  1  0
 21 23  1  0
 21 20  1  0
 21 22  1  0
 23 25  1  0
 24 25  1  0
 24 22  1  0
M  RAD  8   4   2   7   2   9   2  11   2  13   3  15   2  16   2  17   2
M  RAD  7  18   2  19   2  20   3  21   2  22   3  24   3  25   3
M  END
>  <REMARK>  (1) 
 SMILES O=C(c1c[nH]c2ncccc12)N(Cc1ccccc1)CC1CCCO1
 SMILES IDX 1 1 2 2 3 3 4 4 11 5 5 6 10 7 6 8 9 9 7 10 8 11 12 13 13 14
 SMILES IDX 14 15 15 16 19 17 16 18 18 19 17 20 20 21 21 22 22 23 25 24
 SMILES IDX 23 25 24 26
 H PARENT 5 12

>  <TORSDO>  (1) 
F 6

$$$$
