/home/pchatterjee/Documents/git/vs_workflow/DiffDock/diffdock_run/pdbqt_scrubbed/Z811081058.pdbqt
     RDKit          3D

 25 28  0  0  1  0  0  0  0  0999 V2000
    8.4352   48.1744   54.0626 O   0  0  0  0  0  0  0  0  0  0  0  0
    7.8483   47.2763   53.4091 C   0  0  0  0  0  0  0  0  0  0  0  0
    8.5591   46.5614   52.3547 C   0  0  0  0  0  0  0  0  0  0  0  0
    9.9187   46.7444   52.1033 C   0  0  0  0  0  3  0  0  0  0  0  0
    8.0888   45.6303   51.4538 C   0  0  0  0  0  0  0  0  0  0  0  0
   10.2304   45.9395   51.0816 N   0  0  0  0  0  0  0  0  0  0  0  0
    6.8481   45.0923   51.2609 C   0  0  0  0  0  3  0  0  0  0  0  0
    9.1530   45.2514   50.6626 C   0  0  0  0  0  0  0  0  0  0  0  0
    6.6726   44.1486   50.2459 C   0  0  0  0  0  3  0  0  0  0  0  0
    8.9820   44.3553   49.7003 N   0  0  0  0  0  0  0  0  0  0  0  0
    7.7718   43.8085   49.4870 C   0  0  0  0  0  3  0  0  0  0  0  0
    6.4735   46.9443   53.6925 N   0  0  0  0  0  0  0  0  0  0  0  0
    6.0325   45.5836   53.4895 C   0  0  0  0  0  2  0  0  0  0  0  0
    4.5749   45.4895   53.2249 C   0  0  0  0  0  0  0  0  0  0  0  0
    3.8029   44.4316   53.6644 C   0  0  0  0  0  3  0  0  0  0  0  0
    3.9198   46.4783   52.5132 C   0  0  0  0  0  3  0  0  0  0  0  0
    2.4638   44.3440   53.4221 C   0  0  0  0  0  3  0  0  0  0  0  0
    2.5505   46.3933   52.2628 C   0  0  0  0  0  3  0  0  0  0  0  0
    1.8025   45.3258   52.7131 C   0  0  0  0  0  3  0  0  0  0  0  0
    5.5762   47.9533   54.1647 C   0  0  0  0  0  2  0  0  0  0  0  0
    5.3821   49.1106   53.2005 C   0  0  0  0  0  3  0  0  0  0  0  0
    6.4706   50.1472   53.4384 C   0  0  0  0  0  2  0  0  0  0  0  0
    4.1813   49.6850   53.5418 O   0  0  0  0  0  0  0  0  0  0  0  0
    5.7596   51.1360   54.3679 C   0  0  0  0  0  2  0  0  0  0  0  0
    4.3539   51.0192   53.8119 C   0  0  0  0  0  2  0  0  0  0  0  0
  1  2  2  0
  2  3  1  0
  3  5  1  0
  3  4  2  0
  4  6  1  0
  5  8  2  0
  7  5  1  0
  7  9  2  0
  8  6  1  0
  8 10  1  0
  9 11  1  0
 11 10  2  0
 12 13  1  0
 12  2  1  0
 14 13  1  0
 14 15  2  0
 16 14  1  0
 17 15  1  0
 18 16  2  0
 18 19  1  0
 19 17  2  0
 20 12  1  0
 21 23  1  0
 21 20  1  0
 21 22  1  0
 23 25  1  0
 24 25  1  0
 24 22  1  0
M  RAD  8   4   2   7   2   9   2  11   2  13   3  15   2  16   2  17   2
M  RAD  7  18   2  19   2  20   3  21   2  22   3  24   3  25   3
M  END
>  <REMARK>  (1) 
 SMILES O=C(c1c[nH]c2ncccc12)N(Cc1ccccc1)CC1CCCO1
 SMILES IDX 1 1 2 2 3 3 4 4 11 5 5 6 10 7 6 8 9 9 7 10 8 11 12 13 13 14
 SMILES IDX 14 15 15 16 19 17 16 18 18 19 17 20 20 21 21 22 22 23 25 24
 SMILES IDX 23 25 24 26
 H PARENT 5 12

>  <TORSDO>  (1) 
F 6

$$$$
