/home/pchatterjee/Documents/git/vs_workflow/DiffDock/diffdock_run/pdbqt_scrubbed/Z811081058.pdbqt
     RDKit          3D

 25 28  0  0  1  0  0  0  0  0999 V2000
    8.0838   48.7206   52.0490 O   0  0  0  0  0  0  0  0  0  0  0  0
    7.8611   47.5179   52.3356 C   0  0  0  0  0  0  0  0  0  0  0  0
    8.5199   46.4565   51.5822 C   0  0  0  0  0  0  0  0  0  0  0  0
    9.8943   46.2285   51.6443 C   0  0  0  0  0  3  0  0  0  0  0  0
    7.9802   45.5267   50.7197 C   0  0  0  0  0  0  0  0  0  0  0  0
   10.1469   45.1920   50.8376 N   0  0  0  0  0  0  0  0  0  0  0  0
    6.6984   45.3035   50.3034 C   0  0  0  0  0  3  0  0  0  0  0  0
    9.0175   44.7414   50.2621 C   0  0  0  0  0  0  0  0  0  0  0  0
    6.4530   44.2635   49.4036 C   0  0  0  0  0  3  0  0  0  0  0  0
    8.7801   43.7553   49.4081 N   0  0  0  0  0  0  0  0  0  0  0  0
    7.5282   43.5119   48.9807 C   0  0  0  0  0  3  0  0  0  0  0  0
    6.9570   47.1755   53.4062 N   0  0  0  0  0  0  0  0  0  0  0  0
    6.7809   48.1125   54.4916 C   0  0  0  0  0  2  0  0  0  0  0  0
    8.0619   48.4678   55.1522 C   0  0  0  0  0  0  0  0  0  0  0  0
    9.0979   47.5671   55.3058 C   0  0  0  0  0  3  0  0  0  0  0  0
    8.2719   49.7413   55.6498 C   0  0  0  0  0  3  0  0  0  0  0  0
   10.2752   47.8922   55.9125 C   0  0  0  0  0  3  0  0  0  0  0  0
    9.4741   50.0787   56.2710 C   0  0  0  0  0  3  0  0  0  0  0  0
   10.4929   49.1600   56.4116 C   0  0  0  0  0  3  0  0  0  0  0  0
    6.2556   45.9291   53.3796 C   0  0  0  0  0  2  0  0  0  0  0  0
    4.7883   46.0354   53.7568 C   0  0  0  0  0  3  0  0  0  0  0  0
    4.1188   44.6851   53.5453 C   0  0  0  0  0  2  0  0  0  0  0  0
    4.2342   46.9174   52.8604 O   0  0  0  0  0  0  0  0  0  0  0  0
    3.5095   44.8560   52.1501 C   0  0  0  0  0  2  0  0  0  0  0  0
    3.1739   46.3332   52.2144 C   0  0  0  0  0  2  0  0  0  0  0  0
  1  2  2  0
  2  3  1  0
  3  5  1  0
  3  4  2  0
  4  6  1  0
  5  8  2  0
  7  5  1  0
  7  9  2  0
  8  6  1  0
  8 10  1  0
  9 11  1  0
 11 10  2  0
 12 13  1  0
 12  2  1  0
 14 13  1  0
 14 15  2  0
 16 14  1  0
 17 15  1  0
 18 16  2  0
 18 19  1  0
 19 17  2  0
 20 12  1  0
 21 23  1  0
 21 20  1  0
 21 22  1  0
 23 25  1  0
 24 25  1  0
 24 22  1  0
M  RAD  8   4   2   7   2   9   2  11   2  13   3  15   2  16   2  17   2
M  RAD  7  18   2  19   2  20   3  21   2  22   3  24   3  25   3
M  END
>  <REMARK>  (1) 
 SMILES O=C(c1c[nH]c2ncccc12)N(Cc1ccccc1)CC1CCCO1
 SMILES IDX 1 1 2 2 3 3 4 4 11 5 5 6 10 7 6 8 9 9 7 10 8 11 12 13 13 14
 SMILES IDX 14 15 15 16 19 17 16 18 18 19 17 20 20 21 21 22 22 23 25 24
 SMILES IDX 23 25 24 26
 H PARENT 5 12

>  <TORSDO>  (1) 
F 6

$$$$
