/home/pchatterjee/Documents/git/vs_workflow/DiffDock/diffdock_run/pdbqt_scrubbed/Z811081058.pdbqt
     RDKit          3D

 25 28  0  0  1  0  0  0  0  0999 V2000
    8.3221   47.9407   53.6808 O   0  0  0  0  0  0  0  0  0  0  0  0
    7.8551   46.9200   53.1167 C   0  0  0  0  0  0  0  0  0  0  0  0
    8.6849   46.1563   52.1913 C   0  0  0  0  0  0  0  0  0  0  0  0
   10.0784   46.2080   52.2088 C   0  0  0  0  0  3  0  0  0  0  0  0
    8.3109   45.2921   51.1848 C   0  0  0  0  0  0  0  0  0  0  0  0
   10.5036   45.3939   51.2365 N   0  0  0  0  0  0  0  0  0  0  0  0
    7.0855   44.8832   50.7410 C   0  0  0  0  0  3  0  0  0  0  0  0
    9.4669   44.8233   50.5965 C   0  0  0  0  0  0  0  0  0  0  0  0
    7.0203   43.9791   49.6779 C   0  0  0  0  0  3  0  0  0  0  0  0
    9.4006   43.9653   49.5878 N   0  0  0  0  0  0  0  0  0  0  0  0
    8.2080   43.5448   49.1295 C   0  0  0  0  0  3  0  0  0  0  0  0
    6.5015   46.4946   53.3764 N   0  0  0  0  0  0  0  0  0  0  0  0
    6.1460   45.1178   53.1211 C   0  0  0  0  0  2  0  0  0  0  0  0
    4.7030   44.9479   52.8173 C   0  0  0  0  0  0  0  0  0  0  0  0
    3.9246   45.9640   52.2976 C   0  0  0  0  0  3  0  0  0  0  0  0
    4.0689   43.7403   53.0477 C   0  0  0  0  0  3  0  0  0  0  0  0
    2.5988   45.8092   52.0181 C   0  0  0  0  0  3  0  0  0  0  0  0
    2.7133   43.5771   52.7635 C   0  0  0  0  0  3  0  0  0  0  0  0
    1.9586   44.6081   52.2449 C   0  0  0  0  0  3  0  0  0  0  0  0
    5.5411   47.4292   53.8769 C   0  0  0  0  0  2  0  0  0  0  0  0
    6.1423   48.5536   54.7022 C   0  0  0  0  0  3  0  0  0  0  0  0
    5.0561   49.1720   55.5705 C   0  0  0  0  0  2  0  0  0  0  0  0
    6.5437   49.5079   53.7986 O   0  0  0  0  0  0  0  0  0  0  0  0
    4.6239   50.3707   54.7200 C   0  0  0  0  0  2  0  0  0  0  0  0
    5.9610   50.7148   54.0936 C   0  0  0  0  0  2  0  0  0  0  0  0
  1  2  2  0
  2  3  1  0
  3  5  1  0
  3  4  2  0
  4  6  1  0
  5  8  2  0
  7  5  1  0
  7  9  2  0
  8  6  1  0
  8 10  1  0
  9 11  1  0
 11 10  2  0
 12 13  1  0
 12  2  1  0
 14 13  1  0
 14 15  2  0
 16 14  1  0
 17 15  1  0
 18 16  2  0
 18 19  1  0
 19 17  2  0
 20 12  1  0
 21 23  1  0
 21 20  1  0
 21 22  1  0
 23 25  1  0
 24 25  1  0
 24 22  1  0
M  RAD  8   4   2   7   2   9   2  11   2  13   3  15   2  16   2  17   2
M  RAD  7  18   2  19   2  20   3  21   2  22   3  24   3  25   3
M  END
>  <REMARK>  (1) 
 SMILES O=C(c1c[nH]c2ncccc12)N(Cc1ccccc1)CC1CCCO1
 SMILES IDX 1 1 2 2 3 3 4 4 11 5 5 6 10 7 6 8 9 9 7 10 8 11 12 13 13 14
 SMILES IDX 14 15 15 16 19 17 16 18 18 19 17 20 20 21 21 22 22 23 25 24
 SMILES IDX 23 25 24 26
 H PARENT 5 12

>  <TORSDO>  (1) 
F 6

$$$$
