/home/pchatterjee/Documents/git/vs_workflow/DiffDock/diffdock_run/pdbqt_scrubbed/Z811081058.pdbqt
     RDKit          3D

 25 28  0  0  1  0  0  0  0  0999 V2000
    8.0632   47.8925   53.4228 O   0  0  0  0  0  0  0  0  0  0  0  0
    7.6035   46.9788   52.6934 C   0  0  0  0  0  0  0  0  0  0  0  0
    8.4833   46.2767   51.7654 C   0  0  0  0  0  0  0  0  0  0  0  0
    9.8568   46.5106   51.7045 C   0  0  0  0  0  3  0  0  0  0  0  0
    8.1810   45.3132   50.8274 C   0  0  0  0  0  0  0  0  0  0  0  0
   10.3406   45.7029   50.7546 N   0  0  0  0  0  0  0  0  0  0  0  0
    7.0016   44.7223   50.4728 C   0  0  0  0  0  3  0  0  0  0  0  0
    9.3603   44.9652   50.2025 C   0  0  0  0  0  0  0  0  0  0  0  0
    7.0077   43.7563   49.4637 C   0  0  0  0  0  3  0  0  0  0  0  0
    9.3617   44.0478   49.2452 N   0  0  0  0  0  0  0  0  0  0  0  0
    8.2156   43.4490   48.8750 C   0  0  0  0  0  3  0  0  0  0  0  0
    6.2091   46.6164   52.7650 N   0  0  0  0  0  0  0  0  0  0  0  0
    5.2641   47.3275   51.9352 C   0  0  0  0  0  2  0  0  0  0  0  0
    3.9432   46.6537   51.8687 C   0  0  0  0  0  0  0  0  0  0  0  0
    2.7859   47.2291   52.3567 C   0  0  0  0  0  3  0  0  0  0  0  0
    3.8174   45.3974   51.3036 C   0  0  0  0  0  3  0  0  0  0  0  0
    1.5718   46.6112   52.2962 C   0  0  0  0  0  3  0  0  0  0  0  0
    2.5779   44.7614   51.2393 C   0  0  0  0  0  3  0  0  0  0  0  0
    1.4375   45.3582   51.7343 C   0  0  0  0  0  3  0  0  0  0  0  0
    5.7855   45.5713   53.6451 C   0  0  0  0  0  2  0  0  0  0  0  0
    5.7352   45.9756   55.1082 C   0  0  0  0  0  3  0  0  0  0  0  0
    5.0117   44.8960   55.9003 C   0  0  0  0  0  2  0  0  0  0  0  0
    4.9639   47.1118   55.1564 O   0  0  0  0  0  0  0  0  0  0  0  0
    3.5874   45.4570   55.9602 C   0  0  0  0  0  2  0  0  0  0  0  0
    3.9148   46.9361   56.0233 C   0  0  0  0  0  2  0  0  0  0  0  0
  1  2  2  0
  2  3  1  0
  3  5  1  0
  3  4  2  0
  4  6  1  0
  5  8  2  0
  7  5  1  0
  7  9  2  0
  8  6  1  0
  8 10  1  0
  9 11  1  0
 11 10  2  0
 12 13  1  0
 12  2  1  0
 14 13  1  0
 14 15  2  0
 16 14  1  0
 17 15  1  0
 18 16  2  0
 18 19  1  0
 19 17  2  0
 20 12  1  0
 21 23  1  0
 21 20  1  0
 21 22  1  0
 23 25  1  0
 24 25  1  0
 24 22  1  0
M  RAD  8   4   2   7   2   9   2  11   2  13   3  15   2  16   2  17   2
M  RAD  7  18   2  19   2  20   3  21   2  22   3  24   3  25   3
M  END
>  <REMARK>  (1) 
 SMILES O=C(c1c[nH]c2ncccc12)N(Cc1ccccc1)CC1CCCO1
 SMILES IDX 1 1 2 2 3 3 4 4 11 5 5 6 10 7 6 8 9 9 7 10 8 11 12 13 13 14
 SMILES IDX 14 15 15 16 19 17 16 18 18 19 17 20 20 21 21 22 22 23 25 24
 SMILES IDX 23 25 24 26
 H PARENT 5 12

>  <TORSDO>  (1) 
F 6

$$$$
