/home/pchatterjee/Documents/git/vs_workflow/DiffDock/diffdock_run/pdbqt_scrubbed/Z811081058.pdbqt
     RDKit          3D

 25 28  0  0  1  0  0  0  0  0999 V2000
    9.3570   48.1067   52.9060 O   0  0  0  0  0  0  0  0  0  0  0  0
    8.5981   47.1828   52.5207 C   0  0  0  0  0  0  0  0  0  0  0  0
    9.1081   46.1463   51.6298 C   0  0  0  0  0  0  0  0  0  0  0  0
   10.4690   45.8773   51.4864 C   0  0  0  0  0  3  0  0  0  0  0  0
    8.4215   45.2804   50.8061 C   0  0  0  0  0  0  0  0  0  0  0  0
   10.5705   44.8797   50.6013 N   0  0  0  0  0  0  0  0  0  0  0  0
    7.0873   45.1158   50.5636 C   0  0  0  0  0  3  0  0  0  0  0  0
    9.3569   44.4927   50.1684 C   0  0  0  0  0  0  0  0  0  0  0  0
    6.6828   44.1337   49.6561 C   0  0  0  0  0  3  0  0  0  0  0  0
    8.9687   43.5617   49.3078 N   0  0  0  0  0  0  0  0  0  0  0  0
    7.6618   43.3768   49.0490 C   0  0  0  0  0  3  0  0  0  0  0  0
    7.2225   47.1371   52.9523 N   0  0  0  0  0  0  0  0  0  0  0  0
    6.2771   46.3685   52.1760 C   0  0  0  0  0  2  0  0  0  0  0  0
    4.9893   46.1635   52.8852 C   0  0  0  0  0  0  0  0  0  0  0  0
    4.8894   45.4394   54.0574 C   0  0  0  0  0  3  0  0  0  0  0  0
    3.8151   46.7009   52.3893 C   0  0  0  0  0  3  0  0  0  0  0  0
    3.7070   45.2503   54.7099 C   0  0  0  0  0  3  0  0  0  0  0  0
    2.6034   46.5102   53.0529 C   0  0  0  0  0  3  0  0  0  0  0  0
    2.5312   45.7827   54.2222 C   0  0  0  0  0  3  0  0  0  0  0  0
    6.8174   47.8440   54.1281 C   0  0  0  0  0  2  0  0  0  0  0  0
    7.8477   47.8324   55.2440 C   0  0  0  0  0  3  0  0  0  0  0  0
    7.6393   49.0527   56.1292 C   0  0  0  0  0  2  0  0  0  0  0  0
    9.0683   47.9708   54.6282 O   0  0  0  0  0  0  0  0  0  0  0  0
    8.6576   50.0371   55.5453 C   0  0  0  0  0  2  0  0  0  0  0  0
    9.7380   49.0530   55.1414 C   0  0  0  0  0  2  0  0  0  0  0  0
  1  2  2  0
  2  3  1  0
  3  5  1  0
  3  4  2  0
  4  6  1  0
  5  8  2  0
  7  5  1  0
  7  9  2  0
  8  6  1  0
  8 10  1  0
  9 11  1  0
 11 10  2  0
 12 13  1  0
 12  2  1  0
 14 13  1  0
 14 15  2  0
 16 14  1  0
 17 15  1  0
 18 16  2  0
 18 19  1  0
 19 17  2  0
 20 12  1  0
 21 23  1  0
 21 20  1  0
 21 22  1  0
 23 25  1  0
 24 25  1  0
 24 22  1  0
M  RAD  8   4   2   7   2   9   2  11   2  13   3  15   2  16   2  17   2
M  RAD  7  18   2  19   2  20   3  21   2  22   3  24   3  25   3
M  END
>  <REMARK>  (1) 
 SMILES O=C(c1c[nH]c2ncccc12)N(Cc1ccccc1)CC1CCCO1
 SMILES IDX 1 1 2 2 3 3 4 4 11 5 5 6 10 7 6 8 9 9 7 10 8 11 12 13 13 14
 SMILES IDX 14 15 15 16 19 17 16 18 18 19 17 20 20 21 21 22 22 23 25 24
 SMILES IDX 23 25 24 26
 H PARENT 5 12

>  <TORSDO>  (1) 
F 6

$$$$
