/home/pchatterjee/Documents/git/vs_workflow/DiffDock/diffdock_run/pdbqt_scrubbed/Z991906088.pdbqt
     RDKit          3D

 24 27  0  0  1  0  0  0  0  0999 V2000
    9.1295   46.0106   50.9815 N   0  0  0  0  0  0  0  0  0  0  0  0
    8.6077   44.8725   50.2972 C   0  0  0  0  0  0  0  0  0  0  0  0
    7.3066   43.3050   49.5209 C   0  0  0  0  0  0  0  0  0  0  0  0
    8.5343   43.1210   49.0359 N   0  0  0  0  0  0  0  0  0  0  0  0
    7.3266   44.4020   50.3183 N   0  0  0  0  0  0  0  0  0  0  0  0
    9.2944   44.0591   49.5058 O   0  0  0  0  0  0  0  0  0  0  0  0
    6.1728   42.4341   49.2068 C   0  0  0  0  0  0  0  0  0  0  0  0
    4.0228   40.8477   48.7027 C   0  0  0  0  0  3  0  0  0  0  0  0
    4.0130   41.6401   49.8258 C   0  0  0  0  0  3  0  0  0  0  0  0
    5.0934   40.8385   47.8291 C   0  0  0  0  0  3  0  0  0  0  0  0
    5.1068   42.4421   50.0751 C   0  0  0  0  0  3  0  0  0  0  0  0
    6.1787   41.6366   48.0797 C   0  0  0  0  0  3  0  0  0  0  0  0
    8.2513   47.1095   51.3302 C   0  0  0  0  0  2  0  0  0  0  0  0
    8.8380   47.7525   52.5935 C   0  0  0  0  0  3  0  0  0  0  0  0
    9.2521   46.6085   53.4893 C   0  0  0  0  0  2  0  0  0  0  0  0
    7.7301   48.4830   53.3338 C   0  0  0  0  0  2  0  0  0  0  0  0
    8.2271   46.6227   54.6030 C   0  0  0  0  0  2  0  0  0  0  0  0
    7.1099   47.3911   54.0912 N   0  0  0  0  0  0  0  0  0  0  0  0
    5.7137   47.1843   54.2521 C   0  0  0  0  0  0  0  0  0  0  0  0
    4.7559   48.1198   53.9926 C   0  0  0  0  0  3  0  0  0  0  0  0
    5.2823   45.9428   54.7062 C   0  0  0  0  0  3  0  0  0  0  0  0
    3.4105   47.8660   54.1664 C   0  0  0  0  0  3  0  0  0  0  0  0
    3.9520   45.6466   54.8936 C   0  0  0  0  0  3  0  0  0  0  0  0
    3.0147   46.6208   54.6194 C   0  0  0  0  0  3  0  0  0  0  0  0
  1  2  1  0
  2  5  2  0
  2  6  1  0
  3  4  2  0
  3  7  1  0
  5  3  1  0
  6  4  1  0
  7 11  2  0
  8  9  2  0
 10  8  1  0
 11  9  1  0
 12  7  1  0
 12 10  2  0
 13  1  1  0
 14 13  1  0
 15 14  1  0
 16 14  1  0
 17 15  1  0
 18 17  1  0
 18 16  1  0
 19 18  1  0
 20 19  2  0
 21 19  1  0
 22 20  1  0
 23 21  2  0
 24 22  2  0
 24 23  1  0
M  RAD  8   8   2   9   2  10   2  11   2  12   2  13   3  14   2  15   3
M  RAD  7  16   3  17   3  20   2  21   2  22   2  23   2  24   2
M  END
>  <REMARK>  (1) 
 SMILES c1ccc(-c2noc(NCC3CCN(c4ccccc4)C3)n2)cc1
 SMILES IDX 9 1 8 3 5 4 6 5 22 6 7 7 4 8 1 9 2 10 24 11 3 12 23 13 10 14
 SMILES IDX 11 15 12 16 21 17 13 18 14 19 15 20 16 21 20 22 17 23 19 24
 SMILES IDX 18 25
 H PARENT 9 2

>  <TORSDO>  (1) 
F 5

$$$$
