/home/pchatterjee/Documents/git/vs_workflow/DiffDock/diffdock_run/pdbqt_scrubbed/Z991906088.pdbqt
     RDKit          3D

 24 27  0  0  1  0  0  0  0  0999 V2000
    8.8223   46.7323   51.1650 N   0  0  0  0  0  0  0  0  0  0  0  0
    8.3847   45.5038   50.5863 C   0  0  0  0  0  0  0  0  0  0  0  0
    7.1910   43.8048   49.9221 C   0  0  0  0  0  0  0  0  0  0  0  0
    8.4514   43.6217   49.5291 N   0  0  0  0  0  0  0  0  0  0  0  0
    7.1229   44.9832   50.5901 N   0  0  0  0  0  0  0  0  0  0  0  0
    9.1468   44.6383   49.9309 O   0  0  0  0  0  0  0  0  0  0  0  0
    6.1110   42.8559   49.6468 C   0  0  0  0  0  0  0  0  0  0  0  0
    4.0636   41.1187   49.2183 C   0  0  0  0  0  3  0  0  0  0  0  0
    4.0627   41.8739   50.3668 C   0  0  0  0  0  3  0  0  0  0  0  0
    5.0747   41.2210   48.2821 C   0  0  0  0  0  3  0  0  0  0  0  0
    5.1042   42.7528   50.5774 C   0  0  0  0  0  3  0  0  0  0  0  0
    6.1082   42.0954   48.4944 C   0  0  0  0  0  3  0  0  0  0  0  0
    8.6951   46.9440   52.5932 C   0  0  0  0  0  2  0  0  0  0  0  0
   10.0761   47.3881   53.0927 C   0  0  0  0  0  3  0  0  0  0  0  0
   10.2949   46.6709   54.4044 C   0  0  0  0  0  2  0  0  0  0  0  0
   10.0247   48.8689   53.4296 C   0  0  0  0  0  2  0  0  0  0  0  0
   10.1577   47.7595   55.4471 C   0  0  0  0  0  2  0  0  0  0  0  0
    9.4633   48.8452   54.7841 N   0  0  0  0  0  0  0  0  0  0  0  0
    8.4602   49.7207   55.2797 C   0  0  0  0  0  0  0  0  0  0  0  0
    7.6382   49.4422   56.3317 C   0  0  0  0  0  3  0  0  0  0  0  0
    8.2966   50.9520   54.6547 C   0  0  0  0  0  3  0  0  0  0  0  0
    6.6785   50.3302   56.7733 C   0  0  0  0  0  3  0  0  0  0  0  0
    7.3532   51.8669   55.0614 C   0  0  0  0  0  3  0  0  0  0  0  0
    6.5415   51.5464   56.1296 C   0  0  0  0  0  3  0  0  0  0  0  0
  1  2  1  0
  2  5  2  0
  2  6  1  0
  3  4  2  0
  3  7  1  0
  5  3  1  0
  6  4  1  0
  7 11  2  0
  8  9  2  0
 10  8  1  0
 11  9  1  0
 12  7  1  0
 12 10  2  0
 13  1  1  0
 14 13  1  0
 15 14  1  0
 16 14  1  0
 17 15  1  0
 18 17  1  0
 18 16  1  0
 19 18  1  0
 20 19  2  0
 21 19  1  0
 22 20  1  0
 23 21  2  0
 24 22  2  0
 24 23  1  0
M  RAD  8   8   2   9   2  10   2  11   2  12   2  13   3  14   2  15   3
M  RAD  7  16   3  17   3  20   2  21   2  22   2  23   2  24   2
M  END
>  <REMARK>  (1) 
 SMILES c1ccc(-c2noc(NCC3CCN(c4ccccc4)C3)n2)cc1
 SMILES IDX 9 1 8 3 5 4 6 5 22 6 7 7 4 8 1 9 2 10 24 11 3 12 23 13 10 14
 SMILES IDX 11 15 12 16 21 17 13 18 14 19 15 20 16 21 20 22 17 23 19 24
 SMILES IDX 18 25
 H PARENT 9 2

>  <TORSDO>  (1) 
F 5

$$$$
