/home/pchatterjee/Documents/git/vs_workflow/DiffDock/diffdock_run/pdbqt_scrubbed/Z991906088.pdbqt
     RDKit          3D

 24 27  0  0  1  0  0  0  0  0999 V2000
    9.0668   46.1149   51.6121 N   0  0  0  0  0  0  0  0  0  0  0  0
    8.5503   45.0666   50.7934 C   0  0  0  0  0  0  0  0  0  0  0  0
    7.2767   43.5518   49.8794 C   0  0  0  0  0  0  0  0  0  0  0  0
    8.4599   43.5426   49.2658 N   0  0  0  0  0  0  0  0  0  0  0  0
    7.3083   44.5030   50.8456 N   0  0  0  0  0  0  0  0  0  0  0  0
    9.2041   44.4470   49.8197 O   0  0  0  0  0  0  0  0  0  0  0  0
    6.1724   42.6598   49.5222 C   0  0  0  0  0  0  0  0  0  0  0  0
    4.0780   41.0259   48.9414 C   0  0  0  0  0  3  0  0  0  0  0  0
    4.0645   41.7257   50.1243 C   0  0  0  0  0  3  0  0  0  0  0  0
    5.1248   41.1328   48.0457 C   0  0  0  0  0  3  0  0  0  0  0  0
    5.1300   42.5524   50.4123 C   0  0  0  0  0  3  0  0  0  0  0  0
    6.1821   41.9551   48.3349 C   0  0  0  0  0  3  0  0  0  0  0  0
    8.1651   46.9124   52.4191 C   0  0  0  0  0  2  0  0  0  0  0  0
    9.0369   47.6644   53.4331 C   0  0  0  0  0  3  0  0  0  0  0  0
    8.6764   47.1039   54.7890 C   0  0  0  0  0  2  0  0  0  0  0  0
    8.6146   49.1238   53.4584 C   0  0  0  0  0  2  0  0  0  0  0  0
    7.8865   48.2139   55.4485 C   0  0  0  0  0  2  0  0  0  0  0  0
    7.4655   49.0839   54.3685 N   0  0  0  0  0  0  0  0  0  0  0  0
    6.2356   49.7692   54.1792 C   0  0  0  0  0  0  0  0  0  0  0  0
    5.0544   49.1685   53.8567 C   0  0  0  0  0  3  0  0  0  0  0  0
    6.2243   51.1513   54.3313 C   0  0  0  0  0  3  0  0  0  0  0  0
    3.8864   49.8830   53.6840 C   0  0  0  0  0  3  0  0  0  0  0  0
    5.0835   51.9028   54.1687 C   0  0  0  0  0  3  0  0  0  0  0  0
    3.9093   51.2566   53.8426 C   0  0  0  0  0  3  0  0  0  0  0  0
  1  2  1  0
  2  5  2  0
  2  6  1  0
  3  4  2  0
  3  7  1  0
  5  3  1  0
  6  4  1  0
  7 11  2  0
  8  9  2  0
 10  8  1  0
 11  9  1  0
 12  7  1  0
 12 10  2  0
 13  1  1  0
 14 13  1  0
 15 14  1  0
 16 14  1  0
 17 15  1  0
 18 17  1  0
 18 16  1  0
 19 18  1  0
 20 19  2  0
 21 19  1  0
 22 20  1  0
 23 21  2  0
 24 22  2  0
 24 23  1  0
M  RAD  8   8   2   9   2  10   2  11   2  12   2  13   3  14   2  15   3
M  RAD  7  16   3  17   3  20   2  21   2  22   2  23   2  24   2
M  END
>  <REMARK>  (1) 
 SMILES c1ccc(-c2noc(NCC3CCN(c4ccccc4)C3)n2)cc1
 SMILES IDX 9 1 8 3 5 4 6 5 22 6 7 7 4 8 1 9 2 10 24 11 3 12 23 13 10 14
 SMILES IDX 11 15 12 16 21 17 13 18 14 19 15 20 16 21 20 22 17 23 19 24
 SMILES IDX 18 25
 H PARENT 9 2

>  <TORSDO>  (1) 
F 5

$$$$
