/home/pchatterjee/Documents/git/vs_workflow/DiffDock/diffdock_run/pdbqt_scrubbed/Z991906088.pdbqt
     RDKit          3D

 24 27  0  0  1  0  0  0  0  0999 V2000
    9.3515   45.6757   51.8942 N   0  0  0  0  0  0  0  0  0  0  0  0
    8.7515   44.7739   50.9655 C   0  0  0  0  0  0  0  0  0  0  0  0
    7.4013   43.3916   49.9562 C   0  0  0  0  0  0  0  0  0  0  0  0
    8.4843   43.5618   49.1982 N   0  0  0  0  0  0  0  0  0  0  0  0
    7.5453   44.1445   51.0751 N   0  0  0  0  0  0  0  0  0  0  0  0
    9.2756   44.3846   49.8108 O   0  0  0  0  0  0  0  0  0  0  0  0
    6.2816   42.5246   49.5859 C   0  0  0  0  0  0  0  0  0  0  0  0
    4.2473   40.8929   48.8163 C   0  0  0  0  0  3  0  0  0  0  0  0
    5.3323   41.0367   47.9848 C   0  0  0  0  0  3  0  0  0  0  0  0
    4.1666   41.5541   50.0269 C   0  0  0  0  0  3  0  0  0  0  0  0
    6.3602   41.8659   48.3816 C   0  0  0  0  0  3  0  0  0  0  0  0
    5.1898   42.3773   50.4182 C   0  0  0  0  0  3  0  0  0  0  0  0
    8.6900   45.9648   53.1509 C   0  0  0  0  0  2  0  0  0  0  0  0
    8.4615   47.4816   53.1844 C   0  0  0  0  0  3  0  0  0  0  0  0
    8.3859   47.8592   54.6453 C   0  0  0  0  0  2  0  0  0  0  0  0
    7.0910   47.7856   52.6026 C   0  0  0  0  0  2  0  0  0  0  0  0
    6.9217   48.1709   54.8702 C   0  0  0  0  0  2  0  0  0  0  0  0
    6.2204   47.5570   53.7603 N   0  0  0  0  0  0  0  0  0  0  0  0
    4.9739   46.8759   53.7367 C   0  0  0  0  0  0  0  0  0  0  0  0
    4.0014   47.0700   52.8005 C   0  0  0  0  0  3  0  0  0  0  0  0
    4.7170   45.9426   54.7350 C   0  0  0  0  0  3  0  0  0  0  0  0
    2.8063   46.3803   52.8244 C   0  0  0  0  0  3  0  0  0  0  0  0
    3.5402   45.2329   54.7972 C   0  0  0  0  0  3  0  0  0  0  0  0
    2.5822   45.4589   53.8309 C   0  0  0  0  0  3  0  0  0  0  0  0
  1  2  1  0
  2  5  2  0
  2  6  1  0
  3  4  2  0
  3  7  1  0
  5  3  1  0
  6  4  1  0
  7 11  2  0
  8  9  2  0
 10  8  1  0
 11  9  1  0
 12  7  1  0
 12 10  2  0
 13  1  1  0
 14 13  1  0
 15 14  1  0
 16 14  1  0
 17 15  1  0
 18 17  1  0
 18 16  1  0
 19 18  1  0
 20 19  2  0
 21 19  1  0
 22 20  1  0
 23 21  2  0
 24 22  2  0
 24 23  1  0
M  RAD  8   8   2   9   2  10   2  11   2  12   2  13   3  14   2  15   3
M  RAD  7  16   3  17   3  20   2  21   2  22   2  23   2  24   2
M  END
>  <REMARK>  (1) 
 SMILES c1ccc(-c2noc(NCC3CCN(c4ccccc4)C3)n2)cc1
 SMILES IDX 9 1 8 3 5 4 6 5 22 6 7 7 4 8 1 9 2 10 24 11 3 12 23 13 10 14
 SMILES IDX 11 15 12 16 21 17 13 18 14 19 15 20 16 21 20 22 17 23 19 24
 SMILES IDX 18 25
 H PARENT 9 2

>  <TORSDO>  (1) 
F 5

$$$$
