/home/pchatterjee/Documents/git/vs_workflow/DiffDock/diffdock_run/pdbqt_scrubbed/Z991906088.pdbqt
     RDKit          3D

 24 27  0  0  1  0  0  0  0  0999 V2000
    9.3632   45.6093   51.7448 N   0  0  0  0  0  0  0  0  0  0  0  0
    8.7799   44.6684   50.8446 C   0  0  0  0  0  0  0  0  0  0  0  0
    7.4144   43.3114   49.8218 C   0  0  0  0  0  0  0  0  0  0  0  0
    8.5865   43.2971   49.1875 N   0  0  0  0  0  0  0  0  0  0  0  0
    7.5104   44.1675   50.8693 N   0  0  0  0  0  0  0  0  0  0  0  0
    9.3857   44.1073   49.8066 O   0  0  0  0  0  0  0  0  0  0  0  0
    6.2591   42.5142   49.4065 C   0  0  0  0  0  0  0  0  0  0  0  0
    4.1652   40.9987   48.5627 C   0  0  0  0  0  3  0  0  0  0  0  0
    5.3477   40.9429   47.8642 C   0  0  0  0  0  3  0  0  0  0  0  0
    4.0165   41.8021   49.6770 C   0  0  0  0  0  3  0  0  0  0  0  0
    6.4053   41.7142   48.2980 C   0  0  0  0  0  3  0  0  0  0  0  0
    5.0694   42.5673   50.1054 C   0  0  0  0  0  3  0  0  0  0  0  0
    8.6571   45.9869   52.9529 C   0  0  0  0  0  2  0  0  0  0  0  0
    8.3751   47.4908   52.8409 C   0  0  0  0  0  3  0  0  0  0  0  0
    8.3719   48.0205   54.2558 C   0  0  0  0  0  2  0  0  0  0  0  0
    6.9624   47.6888   52.3173 C   0  0  0  0  0  2  0  0  0  0  0  0
    6.9131   48.3097   54.5379 C   0  0  0  0  0  2  0  0  0  0  0  0
    6.1707   47.5592   53.5448 N   0  0  0  0  0  0  0  0  0  0  0  0
    4.9510   46.8420   53.6712 C   0  0  0  0  0  0  0  0  0  0  0  0
    4.6635   45.9724   54.6817 C   0  0  0  0  0  3  0  0  0  0  0  0
    3.9738   47.0329   52.7005 C   0  0  0  0  0  3  0  0  0  0  0  0
    3.4604   45.3003   54.7567 C   0  0  0  0  0  3  0  0  0  0  0  0
    2.7612   46.3842   52.7359 C   0  0  0  0  0  3  0  0  0  0  0  0
    2.5098   45.5127   53.7751 C   0  0  0  0  0  3  0  0  0  0  0  0
  1  2  1  0
  2  5  2  0
  2  6  1  0
  3  4  2  0
  3  7  1  0
  5  3  1  0
  6  4  1  0
  7 11  2  0
  8  9  2  0
 10  8  1  0
 11  9  1  0
 12  7  1  0
 12 10  2  0
 13  1  1  0
 14 13  1  0
 15 14  1  0
 16 14  1  0
 17 15  1  0
 18 17  1  0
 18 16  1  0
 19 18  1  0
 20 19  2  0
 21 19  1  0
 22 20  1  0
 23 21  2  0
 24 22  2  0
 24 23  1  0
M  RAD  8   8   2   9   2  10   2  11   2  12   2  13   3  14   2  15   3
M  RAD  7  16   3  17   3  20   2  21   2  22   2  23   2  24   2
M  END
>  <REMARK>  (1) 
 SMILES c1ccc(-c2noc(NCC3CCN(c4ccccc4)C3)n2)cc1
 SMILES IDX 9 1 8 3 5 4 6 5 22 6 7 7 4 8 1 9 2 10 24 11 3 12 23 13 10 14
 SMILES IDX 11 15 12 16 21 17 13 18 14 19 15 20 16 21 20 22 17 23 19 24
 SMILES IDX 18 25
 H PARENT 9 2

>  <TORSDO>  (1) 
F 5

$$$$
