/home/pchatterjee/Documents/git/vs_workflow/DiffDock/diffdock_run/pdbqt_scrubbed/Z991906088.pdbqt
     RDKit          3D

 24 27  0  0  1  0  0  0  0  0999 V2000
   13.0602   63.5702   83.3598 N   0  0  0  0  0  0  0  0  0  0  0  0
   13.5605   62.7584   84.4211 C   0  0  0  0  0  0  0  0  0  0  0  0
   14.4707   61.1587   85.5895 C   0  0  0  0  0  0  0  0  0  0  0  0
   14.0534   62.1122   86.4220 N   0  0  0  0  0  0  0  0  0  0  0  0
   14.1718   61.5419   84.3233 N   0  0  0  0  0  0  0  0  0  0  0  0
   13.5158   63.0542   85.7133 O   0  0  0  0  0  0  0  0  0  0  0  0
   15.1324   59.9302   86.0317 C   0  0  0  0  0  0  0  0  0  0  0  0
   16.3436   57.6732   86.9439 C   0  0  0  0  0  3  0  0  0  0  0  0
   15.8127   58.5550   87.8549 C   0  0  0  0  0  3  0  0  0  0  0  0
   16.2765   57.9055   85.5835 C   0  0  0  0  0  3  0  0  0  0  0  0
   15.2000   59.6975   87.3851 C   0  0  0  0  0  3  0  0  0  0  0  0
   15.6670   59.0418   85.1198 C   0  0  0  0  0  3  0  0  0  0  0  0
   12.6502   64.9347   83.6254 C   0  0  0  0  0  2  0  0  0  0  0  0
   11.1160   64.9380   83.6183 C   0  0  0  0  0  3  0  0  0  0  0  0
   10.7037   64.2090   82.3609 C   0  0  0  0  0  2  0  0  0  0  0  0
   10.6278   66.3674   83.4519 C   0  0  0  0  0  2  0  0  0  0  0  0
   10.1791   65.3030   81.4557 C   0  0  0  0  0  2  0  0  0  0  0  0
   10.7060   66.5396   81.9977 N   0  0  0  0  0  0  0  0  0  0  0  0
   11.1997   67.6899   81.3260 C   0  0  0  0  0  0  0  0  0  0  0  0
   12.1359   67.6671   80.3345 C   0  0  0  0  0  3  0  0  0  0  0  0
   10.6992   68.9327   81.6982 C   0  0  0  0  0  3  0  0  0  0  0  0
   12.5814   68.8165   79.7141 C   0  0  0  0  0  3  0  0  0  0  0  0
   11.1147   70.1033   81.1070 C   0  0  0  0  0  3  0  0  0  0  0  0
   12.0634   70.0367   80.1079 C   0  0  0  0  0  3  0  0  0  0  0  0
  1  2  1  0
  2  5  2  0
  2  6  1  0
  3  4  2  0
  3  7  1  0
  5  3  1  0
  6  4  1  0
  7 11  2  0
  8  9  2  0
 10  8  1  0
 11  9  1  0
 12  7  1  0
 12 10  2  0
 13  1  1  0
 14 13  1  0
 15 14  1  0
 16 14  1  0
 17 15  1  0
 18 17  1  0
 18 16  1  0
 19 18  1  0
 20 19  2  0
 21 19  1  0
 22 20  1  0
 23 21  2  0
 24 22  2  0
 24 23  1  0
M  RAD  8   8   2   9   2  10   2  11   2  12   2  13   3  14   2  15   3
M  RAD  7  16   3  17   3  20   2  21   2  22   2  23   2  24   2
M  END
>  <REMARK>  (1) 
 SMILES c1ccc(-c2noc(NCC3CCN(c4ccccc4)C3)n2)cc1
 SMILES IDX 9 1 8 3 5 4 6 5 22 6 7 7 4 8 1 9 2 10 24 11 3 12 23 13 10 14
 SMILES IDX 11 15 12 16 21 17 13 18 14 19 15 20 16 21 20 22 17 23 19 24
 SMILES IDX 18 25
 H PARENT 9 2

>  <TORSDO>  (1) 
F 5

$$$$
