/home/pchatterjee/Documents/git/vs_workflow/DiffDock/diffdock_run/pdbqt_scrubbed/Z991906088.pdbqt
     RDKit          3D

 24 27  0  0  1  0  0  0  0  0999 V2000
    7.3956   42.8599   49.0056 N   0  0  0  0  0  0  0  0  0  0  0  0
    8.1034   43.8468   49.7546 C   0  0  0  0  0  0  0  0  0  0  0  0
    8.6473   45.4354   51.1448 C   0  0  0  0  0  0  0  0  0  0  0  0
    9.7322   45.0780   50.4581 N   0  0  0  0  0  0  0  0  0  0  0  0
    7.6080   44.6745   50.7202 N   0  0  0  0  0  0  0  0  0  0  0  0
    9.3929   44.1345   49.6375 O   0  0  0  0  0  0  0  0  0  0  0  0
    8.6457   46.4799   52.1703 C   0  0  0  0  0  0  0  0  0  0  0  0
    8.7376   48.4279   54.0651 C   0  0  0  0  0  3  0  0  0  0  0  0
    9.9083   48.0338   53.4624 C   0  0  0  0  0  3  0  0  0  0  0  0
    7.5222   47.8607   53.7326 C   0  0  0  0  0  3  0  0  0  0  0  0
    9.8541   47.0453   52.5023 C   0  0  0  0  0  3  0  0  0  0  0  0
    7.4718   46.8787   52.7782 C   0  0  0  0  0  3  0  0  0  0  0  0
    6.2672   42.1725   49.6011 C   0  0  0  0  0  2  0  0  0  0  0  0
    5.1147   43.1842   49.6460 C   0  0  0  0  0  3  0  0  0  0  0  0
    4.3142   42.8490   50.8827 C   0  0  0  0  0  2  0  0  0  0  0  0
    4.1898   42.9290   48.4676 C   0  0  0  0  0  2  0  0  0  0  0  0
    3.0429   42.2301   50.3424 C   0  0  0  0  0  2  0  0  0  0  0  0
    3.3499   41.8417   48.9803 N   0  0  0  0  0  0  0  0  0  0  0  0
    2.9571   40.6861   48.2533 C   0  0  0  0  0  0  0  0  0  0  0  0
    3.5126   40.2856   47.0739 C   0  0  0  0  0  3  0  0  0  0  0  0
    1.9341   39.9004   48.7726 C   0  0  0  0  0  3  0  0  0  0  0  0
    3.0923   39.1523   46.4078 C   0  0  0  0  0  3  0  0  0  0  0  0
    1.4839   38.7633   48.1425 C   0  0  0  0  0  3  0  0  0  0  0  0
    2.0724   38.3928   46.9513 C   0  0  0  0  0  3  0  0  0  0  0  0
  1  2  1  0
  2  5  2  0
  2  6  1  0
  3  4  2  0
  3  7  1  0
  5  3  1  0
  6  4  1  0
  7 11  2  0
  8  9  2  0
 10  8  1  0
 11  9  1  0
 12  7  1  0
 12 10  2  0
 13  1  1  0
 14 13  1  0
 15 14  1  0
 16 14  1  0
 17 15  1  0
 18 17  1  0
 18 16  1  0
 19 18  1  0
 20 19  2  0
 21 19  1  0
 22 20  1  0
 23 21  2  0
 24 22  2  0
 24 23  1  0
M  RAD  8   8   2   9   2  10   2  11   2  12   2  13   3  14   2  15   3
M  RAD  7  16   3  17   3  20   2  21   2  22   2  23   2  24   2
M  END
>  <REMARK>  (1) 
 SMILES c1ccc(-c2noc(NCC3CCN(c4ccccc4)C3)n2)cc1
 SMILES IDX 9 1 8 3 5 4 6 5 22 6 7 7 4 8 1 9 2 10 24 11 3 12 23 13 10 14
 SMILES IDX 11 15 12 16 21 17 13 18 14 19 15 20 16 21 20 22 17 23 19 24
 SMILES IDX 18 25
 H PARENT 9 2

>  <TORSDO>  (1) 
F 5

$$$$
