/home/pchatterjee/Documents/git/vs_workflow/DiffDock/diffdock_run/pdbqt_scrubbed/Z991906088.pdbqt
     RDKit          3D

 24 27  0  0  1  0  0  0  0  0999 V2000
    9.2323   45.3085   51.0631 N   0  0  0  0  0  0  0  0  0  0  0  0
    8.6827   44.3169   50.1967 C   0  0  0  0  0  0  0  0  0  0  0  0
    7.3615   42.8878   49.2147 C   0  0  0  0  0  0  0  0  0  0  0  0
    8.5435   42.8706   48.5989 N   0  0  0  0  0  0  0  0  0  0  0  0
    7.4236   43.7908   50.2247 N   0  0  0  0  0  0  0  0  0  0  0  0
    9.3161   43.7240   49.1935 O   0  0  0  0  0  0  0  0  0  0  0  0
    6.2295   42.0488   48.8180 C   0  0  0  0  0  0  0  0  0  0  0  0
    4.1739   40.4678   48.0008 C   0  0  0  0  0  3  0  0  0  0  0  0
    5.2835   40.5801   47.1974 C   0  0  0  0  0  3  0  0  0  0  0  0
    4.0791   41.1355   49.2068 C   0  0  0  0  0  3  0  0  0  0  0  0
    6.3221   41.3837   47.6183 C   0  0  0  0  0  3  0  0  0  0  0  0
    5.1130   41.9333   49.6221 C   0  0  0  0  0  3  0  0  0  0  0  0
    8.4742   45.7659   52.2105 C   0  0  0  0  0  2  0  0  0  0  0  0
    8.8340   47.2440   52.4096 C   0  0  0  0  0  3  0  0  0  0  0  0
    9.4104   47.3484   53.8022 C   0  0  0  0  0  2  0  0  0  0  0  0
    7.5549   48.0642   52.4240 C   0  0  0  0  0  2  0  0  0  0  0  0
    8.3321   48.0553   54.5953 C   0  0  0  0  0  2  0  0  0  0  0  0
    7.1192   47.9090   53.8156 N   0  0  0  0  0  0  0  0  0  0  0  0
    5.7860   47.6692   54.2435 C   0  0  0  0  0  0  0  0  0  0  0  0
    4.6706   48.0619   53.5640 C   0  0  0  0  0  3  0  0  0  0  0  0
    5.5934   46.9862   55.4393 C   0  0  0  0  0  3  0  0  0  0  0  0
    3.3961   47.8027   54.0256 C   0  0  0  0  0  3  0  0  0  0  0  0
    4.3416   46.7065   55.9366 C   0  0  0  0  0  3  0  0  0  0  0  0
    3.2393   47.1211   55.2186 C   0  0  0  0  0  3  0  0  0  0  0  0
  1  2  1  0
  2  5  2  0
  2  6  1  0
  3  4  2  0
  3  7  1  0
  5  3  1  0
  6  4  1  0
  7 11  2  0
  8  9  2  0
 10  8  1  0
 11  9  1  0
 12  7  1  0
 12 10  2  0
 13  1  1  0
 14 13  1  0
 15 14  1  0
 16 14  1  0
 17 15  1  0
 18 17  1  0
 18 16  1  0
 19 18  1  0
 20 19  2  0
 21 19  1  0
 22 20  1  0
 23 21  2  0
 24 22  2  0
 24 23  1  0
M  RAD  8   8   2   9   2  10   2  11   2  12   2  13   3  14   2  15   3
M  RAD  7  16   3  17   3  20   2  21   2  22   2  23   2  24   2
M  END
>  <REMARK>  (1) 
 SMILES c1ccc(-c2noc(NCC3CCN(c4ccccc4)C3)n2)cc1
 SMILES IDX 9 1 8 3 5 4 6 5 22 6 7 7 4 8 1 9 2 10 24 11 3 12 23 13 10 14
 SMILES IDX 11 15 12 16 21 17 13 18 14 19 15 20 16 21 20 22 17 23 19 24
 SMILES IDX 18 25
 H PARENT 9 2

>  <TORSDO>  (1) 
F 5

$$$$
