/home/pchatterjee/Documents/git/vs_workflow/DiffDock/diffdock_run/pdbqt_scrubbed/Z991906088.pdbqt
     RDKit          3D

 24 27  0  0  1  0  0  0  0  0999 V2000
    6.6494   43.4358   48.3005 N   0  0  0  0  0  0  0  0  0  0  0  0
    7.5207   44.0329   49.2597 C   0  0  0  0  0  0  0  0  0  0  0  0
    8.3382   45.1662   50.9330 C   0  0  0  0  0  0  0  0  0  0  0  0
    9.3405   44.5624   50.2950 N   0  0  0  0  0  0  0  0  0  0  0  0
    7.1813   44.8485   50.3003 N   0  0  0  0  0  0  0  0  0  0  0  0
    8.8390   43.8941   49.3048 O   0  0  0  0  0  0  0  0  0  0  0  0
    8.5226   46.0152   52.1110 C   0  0  0  0  0  0  0  0  0  0  0  0
    8.7709   47.5874   54.3155 C   0  0  0  0  0  3  0  0  0  0  0  0
    7.5231   47.1299   53.9649 C   0  0  0  0  0  3  0  0  0  0  0  0
    9.8953   47.2689   53.5784 C   0  0  0  0  0  3  0  0  0  0  0  0
    7.4047   46.3330   52.8456 C   0  0  0  0  0  3  0  0  0  0  0  0
    9.7744   46.4769   52.4668 C   0  0  0  0  0  3  0  0  0  0  0  0
    5.9400   42.2156   48.6296 C   0  0  0  0  0  2  0  0  0  0  0  0
    4.9371   42.5785   49.7326 C   0  0  0  0  0  3  0  0  0  0  0  0
    4.7281   41.3168   50.5370 C   0  0  0  0  0  2  0  0  0  0  0  0
    3.5952   42.8937   49.0932 C   0  0  0  0  0  2  0  0  0  0  0  0
    3.3344   40.8643   50.1574 C   0  0  0  0  0  2  0  0  0  0  0  0
    3.0276   41.5527   48.9194 N   0  0  0  0  0  0  0  0  0  0  0  0
    2.3388   41.0885   47.7670 C   0  0  0  0  0  0  0  0  0  0  0  0
    1.8289   41.8935   46.7912 C   0  0  0  0  0  3  0  0  0  0  0  0
    2.1669   39.7173   47.6131 C   0  0  0  0  0  3  0  0  0  0  0  0
    1.1671   41.3894   45.6901 C   0  0  0  0  0  3  0  0  0  0  0  0
    1.5141   39.1717   46.5320 C   0  0  0  0  0  3  0  0  0  0  0  0
    1.0131   40.0206   45.5672 C   0  0  0  0  0  3  0  0  0  0  0  0
  1  2  1  0
  2  5  2  0
  2  6  1  0
  3  4  2  0
  3  7  1  0
  5  3  1  0
  6  4  1  0
  7 11  2  0
  8  9  2  0
 10  8  1  0
 11  9  1  0
 12  7  1  0
 12 10  2  0
 13  1  1  0
 14 13  1  0
 15 14  1  0
 16 14  1  0
 17 15  1  0
 18 17  1  0
 18 16  1  0
 19 18  1  0
 20 19  2  0
 21 19  1  0
 22 20  1  0
 23 21  2  0
 24 22  2  0
 24 23  1  0
M  RAD  8   8   2   9   2  10   2  11   2  12   2  13   3  14   2  15   3
M  RAD  7  16   3  17   3  20   2  21   2  22   2  23   2  24   2
M  END
>  <REMARK>  (1) 
 SMILES c1ccc(-c2noc(NCC3CCN(c4ccccc4)C3)n2)cc1
 SMILES IDX 9 1 8 3 5 4 6 5 22 6 7 7 4 8 1 9 2 10 24 11 3 12 23 13 10 14
 SMILES IDX 11 15 12 16 21 17 13 18 14 19 15 20 16 21 20 22 17 23 19 24
 SMILES IDX 18 25
 H PARENT 9 2

>  <TORSDO>  (1) 
F 5

$$$$
