/home/pchatterjee/Documents/git/vs_workflow/DiffDock/diffdock_run/pdbqt_scrubbed/Z645226424.pdbqt
     RDKit          3D

 25 28  0  0  0  0  0  0  0  0999 V2000
    4.5051   48.1473   55.3450 C   0  0  0  0  0  0  0  0  0  0  0  0
    3.8970   47.2269   56.1940 C   0  0  0  0  0  3  0  0  0  0  0  0
    3.7317   45.9153   55.8257 C   0  0  0  0  0  3  0  0  0  0  0  0
    4.1712   45.5027   54.5903 C   0  0  0  0  0  3  0  0  0  0  0  0
    4.7825   46.3969   53.7091 C   0  0  0  0  0  0  0  0  0  0  0  0
    4.9391   47.7008   54.1015 C   0  0  0  0  0  3  0  0  0  0  0  0
    4.6905   49.4683   55.6936 O   0  0  0  0  0  0  0  0  0  0  0  0
    5.2751   50.4255   54.8839 C   0  0  0  0  0  2  0  0  0  0  0  0
    5.3170   51.7959   55.4199 C   0  0  0  0  0  0  0  0  0  0  0  0
    5.3738   54.2674   56.6491 C   0  0  0  0  0  3  0  0  0  0  0  0
    5.4250   54.1840   55.2630 C   0  0  0  0  0  3  0  0  0  0  0  0
    5.2982   53.1099   57.3856 C   0  0  0  0  0  3  0  0  0  0  0  0
    5.3966   52.9376   54.6689 C   0  0  0  0  0  3  0  0  0  0  0  0
    5.2712   51.9240   56.7594 N   0  0  0  0  0  0  0  0  0  0  0  0
    5.1917   45.8613   52.3813 C   0  0  0  0  0  2  0  0  0  0  0  0
    6.6226   45.7787   52.2743 N   0  0  0  0  0  0  0  0  0  0  0  0
    7.3622   45.1530   51.2549 C   0  0  0  0  0  0  0  0  0  0  0  0
    6.8198   44.3204   50.3512 N   0  0  0  0  0  0  0  0  0  0  0  0
    8.7209   45.4666   51.1835 C   0  0  0  0  0  0  0  0  0  0  0  0
    7.6012   43.7938   49.3776 C   0  0  0  0  0  3  0  0  0  0  0  0
    9.5272   46.2448   51.9179 N   0  0  0  0  0  0  0  0  0  0  0  0
    9.5208   44.9146   50.1726 C   0  0  0  0  0  0  0  0  0  0  0  0
    8.9166   44.0876   49.2980 N   0  0  0  0  0  0  0  0  0  0  0  0
   10.7601   46.1755   51.3895 C   0  0  0  0  0  3  0  0  0  0  0  0
   10.7849   45.3586   50.3093 N   0  0  0  0  0  0  0  0  0  0  0  0
  1  6  2  0
  2  3  2  0
  2  1  1  0
  3  4  1  0
  4  5  2  0
  5 15  1  0
  6  5  1  0
  7  1  1  0
  8  7  1  0
  9  8  1  0
 10 11  2  0
 10 12  1  0
 11 13  1  0
 12 14  2  0
 13  9  2  0
 14  9  1  0
 16 17  1  0
 16 15  1  0
 17 19  2  0
 18 20  2  0
 18 17  1  0
 19 22  1  0
 19 21  1  0
 20 23  1  0
 21 24  1  0
 22 25  1  0
 23 22  2  0
 25 24  2  0
M  RAD  8   2   2   3   2   4   2   6   2   8   3  10   2  11   2  12   2
M  RAD  4  13   2  15   3  20   2  24   2
M  END
>  <REMARK>  (1) 
 SMILES c1ccc(COc2cccc(CNc3ncnc4nc[nH]c34)c2)nc1
 SMILES IDX 7 1 8 2 9 3 10 4 11 5 23 6 6 7 5 8 4 9 1 10 2 11 25 12 3 13
 SMILES IDX 24 14 12 15 13 16 14 18 15 19 22 20 16 21 21 22 18 23 17 24
 SMILES IDX 20 25 19 26
 H PARENT 13 17 21 27

>  <TORSDO>  (1) 
F 6

$$$$
