/home/pchatterjee/Documents/git/vs_workflow/DiffDock/diffdock_run/pdbqt_scrubbed/Z645226424.pdbqt
     RDKit          3D

 25 28  0  0  0  0  0  0  0  0999 V2000
    2.3027   43.6083   51.2543 C   0  0  0  0  0  0  0  0  0  0  0  0
    1.4019   44.6308   51.5384 C   0  0  0  0  0  3  0  0  0  0  0  0
    1.7938   45.7632   52.2075 C   0  0  0  0  0  3  0  0  0  0  0  0
    3.1021   45.8880   52.6103 C   0  0  0  0  0  3  0  0  0  0  0  0
    4.0344   44.8823   52.3474 C   0  0  0  0  0  0  0  0  0  0  0  0
    3.6193   43.7626   51.6746 C   0  0  0  0  0  3  0  0  0  0  0  0
    1.9368   42.4645   50.5769 O   0  0  0  0  0  0  0  0  0  0  0  0
    1.7325   42.3854   49.2110 C   0  0  0  0  0  2  0  0  0  0  0  0
    1.2740   41.0855   48.6943 C   0  0  0  0  0  0  0  0  0  0  0  0
    0.4041   38.5708   47.9583 C   0  0  0  0  0  3  0  0  0  0  0  0
    0.6951   39.5144   46.9808 C   0  0  0  0  0  3  0  0  0  0  0  0
    0.5535   38.9112   49.2812 C   0  0  0  0  0  3  0  0  0  0  0  0
    1.1276   40.7666   47.3711 C   0  0  0  0  0  3  0  0  0  0  0  0
    0.9791   40.1408   49.6072 N   0  0  0  0  0  0  0  0  0  0  0  0
    5.4178   45.0961   52.8553 C   0  0  0  0  0  2  0  0  0  0  0  0
    6.2412   45.7330   51.8643 N   0  0  0  0  0  0  0  0  0  0  0  0
    7.2195   45.1257   51.0569 C   0  0  0  0  0  0  0  0  0  0  0  0
    6.9358   44.2296   50.0974 N   0  0  0  0  0  0  0  0  0  0  0  0
    8.5407   45.5274   51.2640 C   0  0  0  0  0  0  0  0  0  0  0  0
    7.9392   43.7255   49.3393 C   0  0  0  0  0  3  0  0  0  0  0  0
    9.1215   46.3814   52.1175 N   0  0  0  0  0  0  0  0  0  0  0  0
    9.5716   44.9979   50.4747 C   0  0  0  0  0  0  0  0  0  0  0  0
    9.2210   44.1044   49.5300 N   0  0  0  0  0  0  0  0  0  0  0  0
   10.4415   46.3781   51.8693 C   0  0  0  0  0  3  0  0  0  0  0  0
   10.7478   45.5302   50.8585 N   0  0  0  0  0  0  0  0  0  0  0  0
  1  6  2  0
  2  3  2  0
  2  1  1  0
  3  4  1  0
  4  5  2  0
  5 15  1  0
  6  5  1  0
  7  1  1  0
  8  7  1  0
  9  8  1  0
 10 11  2  0
 10 12  1  0
 11 13  1  0
 12 14  2  0
 13  9  2  0
 14  9  1  0
 16 17  1  0
 16 15  1  0
 17 19  2  0
 18 20  2  0
 18 17  1  0
 19 22  1  0
 19 21  1  0
 20 23  1  0
 21 24  1  0
 22 25  1  0
 23 22  2  0
 25 24  2  0
M  RAD  8   2   2   3   2   4   2   6   2   8   3  10   2  11   2  12   2
M  RAD  4  13   2  15   3  20   2  24   2
M  END
>  <REMARK>  (1) 
 SMILES c1ccc(COc2cccc(CNc3ncnc4nc[nH]c34)c2)nc1
 SMILES IDX 7 1 8 2 9 3 10 4 11 5 23 6 6 7 5 8 4 9 1 10 2 11 25 12 3 13
 SMILES IDX 24 14 12 15 13 16 14 18 15 19 22 20 16 21 21 22 18 23 17 24
 SMILES IDX 20 25 19 26
 H PARENT 13 17 21 27

>  <TORSDO>  (1) 
F 6

$$$$
