/home/pchatterjee/Documents/git/vs_workflow/DiffDock/diffdock_run/pdbqt_scrubbed/Z645226424.pdbqt
     RDKit          3D

 25 28  0  0  0  0  0  0  0  0999 V2000
    3.4434   40.7565   47.8445 C   0  0  0  0  0  0  0  0  0  0  0  0
    2.8709   40.4912   49.0853 C   0  0  0  0  0  3  0  0  0  0  0  0
    3.5150   40.8142   50.2534 C   0  0  0  0  0  3  0  0  0  0  0  0
    4.7538   41.4074   50.1969 C   0  0  0  0  0  3  0  0  0  0  0  0
    5.3625   41.6859   48.9715 C   0  0  0  0  0  0  0  0  0  0  0  0
    4.6975   41.3569   47.8190 C   0  0  0  0  0  3  0  0  0  0  0  0
    2.8143   40.4496   46.6566 O   0  0  0  0  0  0  0  0  0  0  0  0
    3.1199   41.0137   45.4310 C   0  0  0  0  0  2  0  0  0  0  0  0
    2.2209   40.6760   44.3152 C   0  0  0  0  0  0  0  0  0  0  0  0
    0.3791   39.9529   42.3899 C   0  0  0  0  0  3  0  0  0  0  0  0
    1.5886   40.5215   42.0097 C   0  0  0  0  0  3  0  0  0  0  0  0
    0.1209   39.7631   43.7261 C   0  0  0  0  0  3  0  0  0  0  0  0
    2.4950   40.8769   42.9892 C   0  0  0  0  0  3  0  0  0  0  0  0
    1.0362   40.1237   44.6379 N   0  0  0  0  0  0  0  0  0  0  0  0
    6.7195   42.2973   49.0165 C   0  0  0  0  0  2  0  0  0  0  0  0
    6.7727   43.3714   49.9700 N   0  0  0  0  0  0  0  0  0  0  0  0
    7.8916   44.1561   50.3020 C   0  0  0  0  0  0  0  0  0  0  0  0
    9.0665   44.0812   49.6554 N   0  0  0  0  0  0  0  0  0  0  0  0
    7.7255   45.0783   51.3371 C   0  0  0  0  0  0  0  0  0  0  0  0
   10.0792   44.9055   50.0169 C   0  0  0  0  0  3  0  0  0  0  0  0
    6.7010   45.3825   52.1452 N   0  0  0  0  0  0  0  0  0  0  0  0
    8.7809   45.9254   51.7042 C   0  0  0  0  0  0  0  0  0  0  0  0
    9.9324   45.8007   51.0168 N   0  0  0  0  0  0  0  0  0  0  0  0
    7.1031   46.3643   52.9687 C   0  0  0  0  0  3  0  0  0  0  0  0
    8.3863   46.7187   52.7186 N   0  0  0  0  0  0  0  0  0  0  0  0
  1  6  2  0
  2  3  2  0
  2  1  1  0
  3  4  1  0
  4  5  2  0
  5 15  1  0
  6  5  1  0
  7  1  1  0
  8  7  1  0
  9  8  1  0
 10 11  2  0
 10 12  1  0
 11 13  1  0
 12 14  2  0
 13  9  2  0
 14  9  1  0
 16 17  1  0
 16 15  1  0
 17 19  2  0
 18 20  2  0
 18 17  1  0
 19 22  1  0
 19 21  1  0
 20 23  1  0
 21 24  1  0
 22 25  1  0
 23 22  2  0
 25 24  2  0
M  RAD  8   2   2   3   2   4   2   6   2   8   3  10   2  11   2  12   2
M  RAD  4  13   2  15   3  20   2  24   2
M  END
>  <REMARK>  (1) 
 SMILES c1ccc(COc2cccc(CNc3ncnc4nc[nH]c34)c2)nc1
 SMILES IDX 7 1 8 2 9 3 10 4 11 5 23 6 6 7 5 8 4 9 1 10 2 11 25 12 3 13
 SMILES IDX 24 14 12 15 13 16 14 18 15 19 22 20 16 21 21 22 18 23 17 24
 SMILES IDX 20 25 19 26
 H PARENT 13 17 21 27

>  <TORSDO>  (1) 
F 6

$$$$
