/home/pchatterjee/Documents/git/vs_workflow/DiffDock/diffdock_run/pdbqt_scrubbed/Z645226424.pdbqt
     RDKit          3D

 25 28  0  0  0  0  0  0  0  0999 V2000
    4.4231   47.6738   55.1061 C   0  0  0  0  0  0  0  0  0  0  0  0
    3.6699   46.7792   55.8611 C   0  0  0  0  0  3  0  0  0  0  0  0
    3.3629   45.5274   55.3895 C   0  0  0  0  0  3  0  0  0  0  0  0
    3.8040   45.1510   54.1431 C   0  0  0  0  0  3  0  0  0  0  0  0
    4.5587   46.0216   53.3543 C   0  0  0  0  0  0  0  0  0  0  0  0
    4.8551   47.2651   53.8490 C   0  0  0  0  0  3  0  0  0  0  0  0
    4.7521   48.9336   55.5596 O   0  0  0  0  0  0  0  0  0  0  0  0
    6.0419   49.4187   55.6813 C   0  0  0  0  0  2  0  0  0  0  0  0
    6.1832   50.7492   56.2951 C   0  0  0  0  0  0  0  0  0  0  0  0
    6.2358   53.2016   57.5620 C   0  0  0  0  0  3  0  0  0  0  0  0
    7.2448   52.8641   56.6683 C   0  0  0  0  0  3  0  0  0  0  0  0
    5.2263   52.3006   57.8012 C   0  0  0  0  0  3  0  0  0  0  0  0
    7.1996   51.6318   56.0466 C   0  0  0  0  0  3  0  0  0  0  0  0
    5.2277   51.1174   57.1694 N   0  0  0  0  0  0  0  0  0  0  0  0
    4.9590   45.5337   52.0056 C   0  0  0  0  0  2  0  0  0  0  0  0
    6.3251   45.8737   51.7158 N   0  0  0  0  0  0  0  0  0  0  0  0
    7.1815   45.2371   50.7998 C   0  0  0  0  0  0  0  0  0  0  0  0
    6.7477   44.4243   49.8224 N   0  0  0  0  0  0  0  0  0  0  0  0
    8.5444   45.5175   50.9168 C   0  0  0  0  0  0  0  0  0  0  0  0
    7.6417   43.8855   48.9586 C   0  0  0  0  0  3  0  0  0  0  0  0
    9.2613   46.2705   51.7618 N   0  0  0  0  0  0  0  0  0  0  0  0
    9.4611   44.9530   50.0183 C   0  0  0  0  0  0  0  0  0  0  0  0
    8.9622   44.1473   49.0613 N   0  0  0  0  0  0  0  0  0  0  0  0
   10.5526   46.1746   51.4050 C   0  0  0  0  0  3  0  0  0  0  0  0
   10.7050   45.3649   50.3299 N   0  0  0  0  0  0  0  0  0  0  0  0
  1  6  2  0
  2  3  2  0
  2  1  1  0
  3  4  1  0
  4  5  2  0
  5 15  1  0
  6  5  1  0
  7  1  1  0
  8  7  1  0
  9  8  1  0
 10 11  2  0
 10 12  1  0
 11 13  1  0
 12 14  2  0
 13  9  2  0
 14  9  1  0
 16 17  1  0
 16 15  1  0
 17 19  2  0
 18 20  2  0
 18 17  1  0
 19 22  1  0
 19 21  1  0
 20 23  1  0
 21 24  1  0
 22 25  1  0
 23 22  2  0
 25 24  2  0
M  RAD  8   2   2   3   2   4   2   6   2   8   3  10   2  11   2  12   2
M  RAD  4  13   2  15   3  20   2  24   2
M  END
>  <REMARK>  (1) 
 SMILES c1ccc(COc2cccc(CNc3ncnc4nc[nH]c34)c2)nc1
 SMILES IDX 7 1 8 2 9 3 10 4 11 5 23 6 6 7 5 8 4 9 1 10 2 11 25 12 3 13
 SMILES IDX 24 14 12 15 13 16 14 18 15 19 22 20 16 21 21 22 18 23 17 24
 SMILES IDX 20 25 19 26
 H PARENT 13 17 21 27

>  <TORSDO>  (1) 
F 6

$$$$
