/home/pchatterjee/Documents/git/vs_workflow/DiffDock/diffdock_run/pdbqt_scrubbed/Z645226424.pdbqt
     RDKit          3D

 25 28  0  0  0  0  0  0  0  0999 V2000
    1.0090   44.2376   52.6178 C   0  0  0  0  0  0  0  0  0  0  0  0
    1.3355   42.8894   52.7340 C   0  0  0  0  0  3  0  0  0  0  0  0
    2.6014   42.4346   52.4618 C   0  0  0  0  0  3  0  0  0  0  0  0
    3.5659   43.3282   52.0608 C   0  0  0  0  0  3  0  0  0  0  0  0
    3.2760   44.6878   51.9287 C   0  0  0  0  0  0  0  0  0  0  0  0
    2.0053   45.1179   52.2098 C   0  0  0  0  0  3  0  0  0  0  0  0
   -0.2524   44.7216   52.8928 O   0  0  0  0  0  0  0  0  0  0  0  0
   -0.5426   45.6710   53.8563 C   0  0  0  0  0  2  0  0  0  0  0  0
   -1.9559   46.0639   53.9799 C   0  0  0  0  0  0  0  0  0  0  0  0
   -4.5627   46.8422   54.4500 C   0  0  0  0  0  3  0  0  0  0  0  0
   -4.1866   46.4180   53.1814 C   0  0  0  0  0  3  0  0  0  0  0  0
   -3.6223   46.8686   55.4517 C   0  0  0  0  0  3  0  0  0  0  0  0
   -2.8772   46.0344   52.9680 C   0  0  0  0  0  3  0  0  0  0  0  0
   -2.3640   46.4833   55.1925 N   0  0  0  0  0  0  0  0  0  0  0  0
    4.3787   45.5691   51.4546 C   0  0  0  0  0  2  0  0  0  0  0  0
    5.6622   45.0364   51.8216 N   0  0  0  0  0  0  0  0  0  0  0  0
    6.7435   44.7634   50.9649 C   0  0  0  0  0  0  0  0  0  0  0  0
    6.6609   43.9382   49.9083 N   0  0  0  0  0  0  0  0  0  0  0  0
    7.9396   45.4322   51.2326 C   0  0  0  0  0  0  0  0  0  0  0  0
    7.7436   43.7653   49.1122 C   0  0  0  0  0  3  0  0  0  0  0  0
    8.3196   46.2967   52.1830 N   0  0  0  0  0  0  0  0  0  0  0  0
    9.0545   45.2445   50.4030 C   0  0  0  0  0  0  0  0  0  0  0  0
    8.9064   44.4048   49.3606 N   0  0  0  0  0  0  0  0  0  0  0  0
    9.6017   46.6242   51.9534 C   0  0  0  0  0  3  0  0  0  0  0  0
   10.0817   45.9867   50.8589 N   0  0  0  0  0  0  0  0  0  0  0  0
  1  6  2  0
  2  3  2  0
  2  1  1  0
  3  4  1  0
  4  5  2  0
  5 15  1  0
  6  5  1  0
  7  1  1  0
  8  7  1  0
  9  8  1  0
 10 11  2  0
 10 12  1  0
 11 13  1  0
 12 14  2  0
 13  9  2  0
 14  9  1  0
 16 17  1  0
 16 15  1  0
 17 19  2  0
 18 20  2  0
 18 17  1  0
 19 22  1  0
 19 21  1  0
 20 23  1  0
 21 24  1  0
 22 25  1  0
 23 22  2  0
 25 24  2  0
M  RAD  8   2   2   3   2   4   2   6   2   8   3  10   2  11   2  12   2
M  RAD  4  13   2  15   3  20   2  24   2
M  END
>  <REMARK>  (1) 
 SMILES c1ccc(COc2cccc(CNc3ncnc4nc[nH]c34)c2)nc1
 SMILES IDX 7 1 8 2 9 3 10 4 11 5 23 6 6 7 5 8 4 9 1 10 2 11 25 12 3 13
 SMILES IDX 24 14 12 15 13 16 14 18 15 19 22 20 16 21 21 22 18 23 17 24
 SMILES IDX 20 25 19 26
 H PARENT 13 17 21 27

>  <TORSDO>  (1) 
F 6

$$$$
