/home/pchatterjee/Documents/git/vs_workflow/DiffDock/diffdock_run/pdbqt_scrubbed/Z645226424.pdbqt
     RDKit          3D

 25 28  0  0  0  0  0  0  0  0999 V2000
    3.1110   40.7199   48.3290 C   0  0  0  0  0  0  0  0  0  0  0  0
    3.5749   40.3855   47.0599 C   0  0  0  0  0  3  0  0  0  0  0  0
    4.8958   40.5357   46.7192 C   0  0  0  0  0  3  0  0  0  0  0  0
    5.7784   41.0318   47.6490 C   0  0  0  0  0  3  0  0  0  0  0  0
    5.3506   41.3822   48.9311 C   0  0  0  0  0  0  0  0  0  0  0  0
    4.0271   41.2197   49.2483 C   0  0  0  0  0  3  0  0  0  0  0  0
    1.7913   40.5712   48.6994 O   0  0  0  0  0  0  0  0  0  0  0  0
    0.8213   41.5504   48.5805 C   0  0  0  0  0  2  0  0  0  0  0  0
   -0.5270   41.1934   49.0515 C   0  0  0  0  0  0  0  0  0  0  0  0
   -2.9701   40.2969   49.9733 C   0  0  0  0  0  3  0  0  0  0  0  0
   -2.8376   41.6072   49.5303 C   0  0  0  0  0  3  0  0  0  0  0  0
   -1.8741   39.4684   49.9463 C   0  0  0  0  0  3  0  0  0  0  0  0
   -1.6062   42.0352   49.0744 C   0  0  0  0  0  3  0  0  0  0  0  0
   -0.7007   39.9329   49.4916 N   0  0  0  0  0  0  0  0  0  0  0  0
    6.3758   41.9433   49.8539 C   0  0  0  0  0  2  0  0  0  0  0  0
    6.7998   43.2481   49.4259 N   0  0  0  0  0  0  0  0  0  0  0  0
    7.0368   44.3716   50.2379 C   0  0  0  0  0  0  0  0  0  0  0  0
    6.0572   45.1017   50.7959 N   0  0  0  0  0  0  0  0  0  0  0  0
    8.3722   44.6935   50.4883 C   0  0  0  0  0  0  0  0  0  0  0  0
    6.3788   46.1448   51.5985 C   0  0  0  0  0  3  0  0  0  0  0  0
    9.5378   44.1668   50.0895 N   0  0  0  0  0  0  0  0  0  0  0  0
    8.6937   45.7763   51.3193 C   0  0  0  0  0  0  0  0  0  0  0  0
    7.6658   46.4676   51.8478 N   0  0  0  0  0  0  0  0  0  0  0  0
   10.5267   44.8874   50.6435 C   0  0  0  0  0  3  0  0  0  0  0  0
   10.0328   45.8902   51.4084 N   0  0  0  0  0  0  0  0  0  0  0  0
  1  6  2  0
  2  3  2  0
  2  1  1  0
  3  4  1  0
  4  5  2  0
  5 15  1  0
  6  5  1  0
  7  1  1  0
  8  7  1  0
  9  8  1  0
 10 11  2  0
 10 12  1  0
 11 13  1  0
 12 14  2  0
 13  9  2  0
 14  9  1  0
 16 17  1  0
 16 15  1  0
 17 19  2  0
 18 20  2  0
 18 17  1  0
 19 22  1  0
 19 21  1  0
 20 23  1  0
 21 24  1  0
 22 25  1  0
 23 22  2  0
 25 24  2  0
M  RAD  8   2   2   3   2   4   2   6   2   8   3  10   2  11   2  12   2
M  RAD  4  13   2  15   3  20   2  24   2
M  END
>  <REMARK>  (1) 
 SMILES c1ccc(COc2cccc(CNc3ncnc4nc[nH]c34)c2)nc1
 SMILES IDX 7 1 8 2 9 3 10 4 11 5 23 6 6 7 5 8 4 9 1 10 2 11 25 12 3 13
 SMILES IDX 24 14 12 15 13 16 14 18 15 19 22 20 16 21 21 22 18 23 17 24
 SMILES IDX 20 25 19 26
 H PARENT 13 17 21 27

>  <TORSDO>  (1) 
F 6

$$$$
