/home/pchatterjee/Documents/git/vs_workflow/DiffDock/diffdock_run/pdbqt_scrubbed/Z645226424.pdbqt
     RDKit          3D

 25 28  0  0  0  0  0  0  0  0999 V2000
    1.7480   42.4520   51.1842 C   0  0  0  0  0  0  0  0  0  0  0  0
    1.6962   42.3532   52.5717 C   0  0  0  0  0  3  0  0  0  0  0  0
    2.4768   43.1469   53.3744 C   0  0  0  0  0  3  0  0  0  0  0  0
    3.3316   44.0548   52.7959 C   0  0  0  0  0  3  0  0  0  0  0  0
    3.4148   44.1808   51.4078 C   0  0  0  0  0  0  0  0  0  0  0  0
    2.6224   43.3792   50.6278 C   0  0  0  0  0  3  0  0  0  0  0  0
    0.9690   41.6725   50.3555 O   0  0  0  0  0  0  0  0  0  0  0  0
    1.4563   40.8439   49.3608 C   0  0  0  0  0  2  0  0  0  0  0  0
    0.4591   40.0414   48.6337 C   0  0  0  0  0  0  0  0  0  0  0  0
   -1.5762   38.6117   47.4355 C   0  0  0  0  0  3  0  0  0  0  0  0
   -0.2861   38.5368   46.9249 C   0  0  0  0  0  3  0  0  0  0  0  0
   -1.8155   39.4037   48.5326 C   0  0  0  0  0  3  0  0  0  0  0  0
    0.7167   39.2610   47.5389 C   0  0  0  0  0  3  0  0  0  0  0  0
   -0.8056   40.0854   49.0934 N   0  0  0  0  0  0  0  0  0  0  0  0
    4.3960   45.1677   50.8781 C   0  0  0  0  0  2  0  0  0  0  0  0
    5.7103   44.9272   51.4076 N   0  0  0  0  0  0  0  0  0  0  0  0
    6.8792   44.6431   50.6790 C   0  0  0  0  0  0  0  0  0  0  0  0
    6.9283   43.7503   49.6767 N   0  0  0  0  0  0  0  0  0  0  0  0
    8.0206   45.3736   51.0156 C   0  0  0  0  0  0  0  0  0  0  0  0
    8.0893   43.5699   49.0019 C   0  0  0  0  0  3  0  0  0  0  0  0
    8.2766   46.3105   51.9386 N   0  0  0  0  0  0  0  0  0  0  0  0
    9.2174   45.1776   50.3116 C   0  0  0  0  0  0  0  0  0  0  0  0
    9.2004   44.2687   49.3180 N   0  0  0  0  0  0  0  0  0  0  0  0
    9.5637   46.6726   51.8122 C   0  0  0  0  0  3  0  0  0  0  0  0
   10.1699   45.9866   50.8139 N   0  0  0  0  0  0  0  0  0  0  0  0
  1  6  2  0
  2  3  2  0
  2  1  1  0
  3  4  1  0
  4  5  2  0
  5 15  1  0
  6  5  1  0
  7  1  1  0
  8  7  1  0
  9  8  1  0
 10 11  2  0
 10 12  1  0
 11 13  1  0
 12 14  2  0
 13  9  2  0
 14  9  1  0
 16 17  1  0
 16 15  1  0
 17 19  2  0
 18 20  2  0
 18 17  1  0
 19 22  1  0
 19 21  1  0
 20 23  1  0
 21 24  1  0
 22 25  1  0
 23 22  2  0
 25 24  2  0
M  RAD  8   2   2   3   2   4   2   6   2   8   3  10   2  11   2  12   2
M  RAD  4  13   2  15   3  20   2  24   2
M  END
>  <REMARK>  (1) 
 SMILES c1ccc(COc2cccc(CNc3ncnc4nc[nH]c34)c2)nc1
 SMILES IDX 7 1 8 2 9 3 10 4 11 5 23 6 6 7 5 8 4 9 1 10 2 11 25 12 3 13
 SMILES IDX 24 14 12 15 13 16 14 18 15 19 22 20 16 21 21 22 18 23 17 24
 SMILES IDX 20 25 19 26
 H PARENT 13 17 21 27

>  <TORSDO>  (1) 
F 6

$$$$
