/home/pchatterjee/Documents/git/vs_workflow/DiffDock/diffdock_run/pdbqt_scrubbed/Z645226424.pdbqt
     RDKit          3D

 25 28  0  0  0  0  0  0  0  0999 V2000
    1.8976   43.8638   51.1284 C   0  0  0  0  0  0  0  0  0  0  0  0
    1.1265   44.9456   51.5443 C   0  0  0  0  0  3  0  0  0  0  0  0
    1.6582   45.9470   52.3176 C   0  0  0  0  0  3  0  0  0  0  0  0
    2.9785   45.8778   52.6937 C   0  0  0  0  0  3  0  0  0  0  0  0
    3.7832   44.8068   52.2997 C   0  0  0  0  0  0  0  0  0  0  0  0
    3.2299   43.8210   51.5247 C   0  0  0  0  0  3  0  0  0  0  0  0
    1.3903   42.8491   50.3448 O   0  0  0  0  0  0  0  0  0  0  0  0
    2.1160   41.7627   49.8901 C   0  0  0  0  0  2  0  0  0  0  0  0
    1.3662   40.7495   49.1296 C   0  0  0  0  0  0  0  0  0  0  0  0
   -0.2455   38.9603   47.7794 C   0  0  0  0  0  3  0  0  0  0  0  0
    1.1348   38.8033   47.7520 C   0  0  0  0  0  3  0  0  0  0  0  0
   -0.7845   40.0121   48.4805 C   0  0  0  0  0  3  0  0  0  0  0  0
    1.9223   39.7105   48.4332 C   0  0  0  0  0  3  0  0  0  0  0  0
    0.0247   40.8640   49.1275 N   0  0  0  0  0  0  0  0  0  0  0  0
    5.1901   44.8056   52.7875 C   0  0  0  0  0  2  0  0  0  0  0  0
    6.0507   45.5261   51.8897 N   0  0  0  0  0  0  0  0  0  0  0  0
    7.0721   44.9931   51.0832 C   0  0  0  0  0  0  0  0  0  0  0  0
    6.8823   43.9810   50.2209 N   0  0  0  0  0  0  0  0  0  0  0  0
    8.3273   45.5969   51.1810 C   0  0  0  0  0  0  0  0  0  0  0  0
    7.9154   43.5578   49.4531 C   0  0  0  0  0  3  0  0  0  0  0  0
    8.8122   46.6002   51.9248 N   0  0  0  0  0  0  0  0  0  0  0  0
    9.3899   45.1497   50.3828 C   0  0  0  0  0  0  0  0  0  0  0  0
    9.1344   44.1319   49.5387 N   0  0  0  0  0  0  0  0  0  0  0  0
   10.1062   46.7628   51.6041 C   0  0  0  0  0  3  0  0  0  0  0  0
   10.4903   45.8778   50.6533 N   0  0  0  0  0  0  0  0  0  0  0  0
  1  6  2  0
  2  3  2  0
  2  1  1  0
  3  4  1  0
  4  5  2  0
  5 15  1  0
  6  5  1  0
  7  1  1  0
  8  7  1  0
  9  8  1  0
 10 11  2  0
 10 12  1  0
 11 13  1  0
 12 14  2  0
 13  9  2  0
 14  9  1  0
 16 17  1  0
 16 15  1  0
 17 19  2  0
 18 20  2  0
 18 17  1  0
 19 22  1  0
 19 21  1  0
 20 23  1  0
 21 24  1  0
 22 25  1  0
 23 22  2  0
 25 24  2  0
M  RAD  8   2   2   3   2   4   2   6   2   8   3  10   2  11   2  12   2
M  RAD  4  13   2  15   3  20   2  24   2
M  END
>  <REMARK>  (1) 
 SMILES c1ccc(COc2cccc(CNc3ncnc4nc[nH]c34)c2)nc1
 SMILES IDX 7 1 8 2 9 3 10 4 11 5 23 6 6 7 5 8 4 9 1 10 2 11 25 12 3 13
 SMILES IDX 24 14 12 15 13 16 14 18 15 19 22 20 16 21 21 22 18 23 17 24
 SMILES IDX 20 25 19 26
 H PARENT 13 17 21 27

>  <TORSDO>  (1) 
F 6

$$$$
