/home/pchatterjee/Documents/git/vs_workflow/DiffDock/diffdock_run/pdbqt_scrubbed/Z645226424.pdbqt
     RDKit          3D

 25 28  0  0  0  0  0  0  0  0999 V2000
    3.0381   41.2962   47.4869 C   0  0  0  0  0  0  0  0  0  0  0  0
    3.0064   40.2222   48.3719 C   0  0  0  0  0  3  0  0  0  0  0  0
    4.0137   40.0148   49.2806 C   0  0  0  0  0  3  0  0  0  0  0  0
    5.0790   40.8829   49.3141 C   0  0  0  0  0  3  0  0  0  0  0  0
    5.1488   41.9696   48.4400 C   0  0  0  0  0  0  0  0  0  0  0  0
    4.1286   42.1573   47.5440 C   0  0  0  0  0  3  0  0  0  0  0  0
    2.0356   41.5316   46.5701 O   0  0  0  0  0  0  0  0  0  0  0  0
    2.2155   41.5938   45.1999 C   0  0  0  0  0  2  0  0  0  0  0  0
    1.0559   42.0382   44.4093 C   0  0  0  0  0  0  0  0  0  0  0  0
   -1.2514   42.8559   43.1327 C   0  0  0  0  0  3  0  0  0  0  0  0
   -0.0770   42.7032   42.4060 C   0  0  0  0  0  3  0  0  0  0  0  0
   -1.2402   42.5977   44.4823 C   0  0  0  0  0  3  0  0  0  0  0  0
    1.0659   42.2945   43.0647 C   0  0  0  0  0  3  0  0  0  0  0  0
   -0.1037   42.2008   45.0739 N   0  0  0  0  0  0  0  0  0  0  0  0
    6.3598   42.8312   48.5310 C   0  0  0  0  0  2  0  0  0  0  0  0
    6.8091   42.9517   49.8910 N   0  0  0  0  0  0  0  0  0  0  0  0
    6.9877   44.1391   50.6231 C   0  0  0  0  0  0  0  0  0  0  0  0
    6.0018   44.7422   51.3075 N   0  0  0  0  0  0  0  0  0  0  0  0
    8.2786   44.6704   50.6505 C   0  0  0  0  0  0  0  0  0  0  0  0
    6.2741   45.8625   52.0193 C   0  0  0  0  0  3  0  0  0  0  0  0
    9.4383   44.3044   50.0880 N   0  0  0  0  0  0  0  0  0  0  0  0
    8.5488   45.8314   51.3891 C   0  0  0  0  0  0  0  0  0  0  0  0
    7.5175   46.3874   52.0532 N   0  0  0  0  0  0  0  0  0  0  0  0
   10.3746   45.1933   50.4583 C   0  0  0  0  0  3  0  0  0  0  0  0
    9.8515   46.1494   51.2626 N   0  0  0  0  0  0  0  0  0  0  0  0
  1  6  2  0
  2  3  2  0
  2  1  1  0
  3  4  1  0
  4  5  2  0
  5 15  1  0
  6  5  1  0
  7  1  1  0
  8  7  1  0
  9  8  1  0
 10 11  2  0
 10 12  1  0
 11 13  1  0
 12 14  2  0
 13  9  2  0
 14  9  1  0
 16 17  1  0
 16 15  1  0
 17 19  2  0
 18 20  2  0
 18 17  1  0
 19 22  1  0
 19 21  1  0
 20 23  1  0
 21 24  1  0
 22 25  1  0
 23 22  2  0
 25 24  2  0
M  RAD  8   2   2   3   2   4   2   6   2   8   3  10   2  11   2  12   2
M  RAD  4  13   2  15   3  20   2  24   2
M  END
>  <REMARK>  (1) 
 SMILES c1ccc(COc2cccc(CNc3ncnc4nc[nH]c34)c2)nc1
 SMILES IDX 7 1 8 2 9 3 10 4 11 5 23 6 6 7 5 8 4 9 1 10 2 11 25 12 3 13
 SMILES IDX 24 14 12 15 13 16 14 18 15 19 22 20 16 21 21 22 18 23 17 24
 SMILES IDX 20 25 19 26
 H PARENT 13 17 21 27

>  <TORSDO>  (1) 
F 6

$$$$
