/home/pchatterjee/Documents/git/vs_workflow/DiffDock/diffdock_run/pdbqt_scrubbed/Z645226424.pdbqt
     RDKit          3D

 25 28  0  0  0  0  0  0  0  0999 V2000
    2.7423   45.8986   54.7499 C   0  0  0  0  0  0  0  0  0  0  0  0
    3.0015   47.1943   55.1877 C   0  0  0  0  0  3  0  0  0  0  0  0
    4.2181   47.7918   54.9718 C   0  0  0  0  0  3  0  0  0  0  0  0
    5.2030   47.0942   54.3138 C   0  0  0  0  0  3  0  0  0  0  0  0
    4.9825   45.7912   53.8629 C   0  0  0  0  0  0  0  0  0  0  0  0
    3.7580   45.2177   54.0877 C   0  0  0  0  0  3  0  0  0  0  0  0
    1.5267   45.2785   54.9468 O   0  0  0  0  0  0  0  0  0  0  0  0
    0.4576   45.3372   54.0708 C   0  0  0  0  0  2  0  0  0  0  0  0
   -0.7515   44.5967   54.4668 C   0  0  0  0  0  0  0  0  0  0  0  0
   -2.8996   43.1439   55.4140 C   0  0  0  0  0  3  0  0  0  0  0  0
   -2.9758   43.7579   54.1699 C   0  0  0  0  0  3  0  0  0  0  0  0
   -1.7495   43.2753   56.1545 C   0  0  0  0  0  3  0  0  0  0  0  0
   -1.8902   44.4808   53.7159 C   0  0  0  0  0  3  0  0  0  0  0  0
   -0.7223   43.9867   55.6667 N   0  0  0  0  0  0  0  0  0  0  0  0
    6.1231   45.1077   53.1928 C   0  0  0  0  0  2  0  0  0  0  0  0
    6.2781   45.5645   51.8389 N   0  0  0  0  0  0  0  0  0  0  0  0
    7.2534   45.1550   50.9121 C   0  0  0  0  0  0  0  0  0  0  0  0
    6.9956   44.3358   49.8793 N   0  0  0  0  0  0  0  0  0  0  0  0
    8.5372   45.6771   51.0814 C   0  0  0  0  0  0  0  0  0  0  0  0
    7.9886   44.0261   49.0111 C   0  0  0  0  0  3  0  0  0  0  0  0
    9.0864   46.4984   51.9863 N   0  0  0  0  0  0  0  0  0  0  0  0
    9.5579   45.3485   50.1777 C   0  0  0  0  0  0  0  0  0  0  0  0
    9.2346   44.5230   49.1639 N   0  0  0  0  0  0  0  0  0  0  0  0
   10.3783   46.6667   51.6597 C   0  0  0  0  0  3  0  0  0  0  0  0
   10.6972   45.9657   50.5454 N   0  0  0  0  0  0  0  0  0  0  0  0
  1  6  2  0
  2  3  2  0
  2  1  1  0
  3  4  1  0
  4  5  2  0
  5 15  1  0
  6  5  1  0
  7  1  1  0
  8  7  1  0
  9  8  1  0
 10 11  2  0
 10 12  1  0
 11 13  1  0
 12 14  2  0
 13  9  2  0
 14  9  1  0
 16 17  1  0
 16 15  1  0
 17 19  2  0
 18 20  2  0
 18 17  1  0
 19 22  1  0
 19 21  1  0
 20 23  1  0
 21 24  1  0
 22 25  1  0
 23 22  2  0
 25 24  2  0
M  RAD  8   2   2   3   2   4   2   6   2   8   3  10   2  11   2  12   2
M  RAD  4  13   2  15   3  20   2  24   2
M  END
>  <REMARK>  (1) 
 SMILES c1ccc(COc2cccc(CNc3ncnc4nc[nH]c34)c2)nc1
 SMILES IDX 7 1 8 2 9 3 10 4 11 5 23 6 6 7 5 8 4 9 1 10 2 11 25 12 3 13
 SMILES IDX 24 14 12 15 13 16 14 18 15 19 22 20 16 21 21 22 18 23 17 24
 SMILES IDX 20 25 19 26
 H PARENT 13 17 21 27

>  <TORSDO>  (1) 
F 6

$$$$
