/home/pchatterjee/Documents/git/vs_workflow/DiffDock/diffdock_run/pdbqt_scrubbed/Z1673780356.pdbqt
     RDKit          3D

 22 24  0  0  0  0  0  0  0  0999 V2000
    6.2951   45.6196   52.3282 C   0  0  0  0  0  0  0  0  0  0  0  0
    5.0171   45.1817   52.5440 C   0  0  0  0  0  3  0  0  0  0  0  0
    4.2060   45.8155   53.4581 C   0  0  0  0  0  3  0  0  0  0  0  0
    4.7128   46.8918   54.1419 C   0  0  0  0  0  3  0  0  0  0  0  0
    5.9981   47.3459   53.9362 C   0  0  0  0  0  3  0  0  0  0  0  0
    6.8059   46.6983   53.0115 C   0  0  0  0  0  0  0  0  0  0  0  0
    7.1295   44.9223   51.3591 C   0  0  0  0  0  0  0  0  0  0  0  0
    6.5344   44.0477   50.3902 N   0  0  0  0  0  0  0  0  0  0  0  0
    8.3793   45.0304   51.3022 O   0  0  0  0  0  0  0  0  0  0  0  0
    7.3296   43.3753   49.3785 C   0  0  0  0  0  2  0  0  0  0  0  0
    6.4450   42.4986   48.5683 C   0  0  0  0  0  0  0  0  0  0  0  0
    5.1198   42.2488   48.9247 C   0  0  0  0  0  3  0  0  0  0  0  0
    6.6829   41.8431   47.4705 O   0  0  0  0  0  0  0  0  0  0  0  0
    4.6152   41.4116   47.9649 C   0  0  0  0  0  3  0  0  0  0  0  0
    5.6244   41.2016   47.1027 N   0  0  0  0  0  0  0  0  0  0  0  0
    8.0816   47.1976   52.8463 O   0  0  0  0  0  0  0  0  0  0  0  0
    8.7113   48.1457   53.6455 C   0  0  0  0  0  3  0  0  0  0  0  0
   10.1834   47.9931   53.8177 C   0  0  0  0  0  2  0  0  0  0  0  0
    8.0289   48.2290   54.9821 C   0  0  0  0  0  2  0  0  0  0  0  0
   10.6170   47.6688   55.2120 C   0  0  0  0  0  2  0  0  0  0  0  0
    8.7659   49.0906   55.9626 C   0  0  0  0  0  2  0  0  0  0  0  0
   10.1670   48.6495   56.2502 C   0  0  0  0  0  2  0  0  0  0  0  0
  1  7  1  0
  2  1  2  0
  3  2  1  0
  4  3  2  0
  4  5  1  0
  5  6  2  0
  6  1  1  0
  6 16  1  0
  7  9  2  0
  7  8  1  0
  8 10  1  0
 10 11  1  0
 11 13  1  0
 11 12  2  0
 12 14  1  0
 13 15  1  0
 15 14  2  0
 17 16  1  0
 18 17  1  0
 19 17  1  0
 20 18  1  0
 21 19  1  0
 22 20  1  0
 22 21  1  0
M  RAD  8   2   2   3   2   4   2   5   2  10   3  12   2  14   2  17   2
M  RAD  5  18   3  19   3  20   3  21   3  22   3
M  END
>  <REMARK>  (1) 
 SMILES O=C(NCc1ccno1)c1ccccc1OC1CCCCC1
 SMILES IDX 10 1 11 2 12 3 13 4 14 5 15 6 2 7 3 8 1 9 4 11 5 12 6 13
 SMILES IDX 9 14 7 15 8 16 16 17 17 18 18 19 22 20 19 21 21 22 20 23
 H PARENT 3 10

>  <TORSDO>  (1) 
F 5

$$$$
