/home/pchatterjee/Documents/git/vs_workflow/DiffDock/diffdock_run/pdbqt_scrubbed/Z1673780356.pdbqt
     RDKit          3D

 22 24  0  0  0  0  0  0  0  0999 V2000
   11.1989   63.1025   83.2700 C   0  0  0  0  0  0  0  0  0  0  0  0
   12.0319   62.0796   83.6325 C   0  0  0  0  0  3  0  0  0  0  0  0
   13.3983   62.2363   83.5727 C   0  0  0  0  0  3  0  0  0  0  0  0
   13.8973   63.4398   83.1420 C   0  0  0  0  0  3  0  0  0  0  0  0
   13.0718   64.4806   82.7734 C   0  0  0  0  0  3  0  0  0  0  0  0
   11.6958   64.3100   82.8384 C   0  0  0  0  0  0  0  0  0  0  0  0
    9.7579   62.9016   83.3382 C   0  0  0  0  0  0  0  0  0  0  0  0
    9.2120   61.5749   83.3255 N   0  0  0  0  0  0  0  0  0  0  0  0
    8.9214   63.8354   83.4102 O   0  0  0  0  0  0  0  0  0  0  0  0
    7.7822   61.3369   83.4086 C   0  0  0  0  0  2  0  0  0  0  0  0
    7.5367   59.8737   83.4863 C   0  0  0  0  0  0  0  0  0  0  0  0
    8.5206   58.9773   83.9036 C   0  0  0  0  0  3  0  0  0  0  0  0
    6.4701   59.1813   83.2134 O   0  0  0  0  0  0  0  0  0  0  0  0
    7.9522   57.7319   83.8526 C   0  0  0  0  0  3  0  0  0  0  0  0
    6.6943   57.9269   83.4217 N   0  0  0  0  0  0  0  0  0  0  0  0
   10.9195   65.3860   82.4590 O   0  0  0  0  0  0  0  0  0  0  0  0
   11.2861   66.4077   81.5896 C   0  0  0  0  0  3  0  0  0  0  0  0
   12.5008   67.1872   81.9599 C   0  0  0  0  0  2  0  0  0  0  0  0
   10.1206   67.3266   81.3526 C   0  0  0  0  0  2  0  0  0  0  0  0
   12.2419   68.6219   82.2945 C   0  0  0  0  0  2  0  0  0  0  0  0
   10.4921   68.5552   80.5784 C   0  0  0  0  0  2  0  0  0  0  0  0
   11.5495   69.3994   81.2183 C   0  0  0  0  0  2  0  0  0  0  0  0
  1  7  1  0
  2  1  2  0
  3  2  1  0
  4  3  2  0
  4  5  1  0
  5  6  2  0
  6  1  1  0
  6 16  1  0
  7  9  2  0
  7  8  1  0
  8 10  1  0
 10 11  1  0
 11 13  1  0
 11 12  2  0
 12 14  1  0
 13 15  1  0
 15 14  2  0
 17 16  1  0
 18 17  1  0
 19 17  1  0
 20 18  1  0
 21 19  1  0
 22 20  1  0
 22 21  1  0
M  RAD  8   2   2   3   2   4   2   5   2  10   3  12   2  14   2  17   2
M  RAD  5  18   3  19   3  20   3  21   3  22   3
M  END
>  <REMARK>  (1) 
 SMILES O=C(NCc1ccno1)c1ccccc1OC1CCCCC1
 SMILES IDX 10 1 11 2 12 3 13 4 14 5 15 6 2 7 3 8 1 9 4 11 5 12 6 13
 SMILES IDX 9 14 7 15 8 16 16 17 17 18 18 19 22 20 19 21 21 22 20 23
 H PARENT 3 10

>  <TORSDO>  (1) 
F 5

$$$$
