/home/pchatterjee/Documents/git/vs_workflow/DiffDock/diffdock_run/pdbqt_scrubbed/Z1673780356.pdbqt
     RDKit          3D

 22 24  0  0  0  0  0  0  0  0999 V2000
    5.6637   44.1902   51.5239 C   0  0  0  0  0  0  0  0  0  0  0  0
    4.9922   44.6952   52.6034 C   0  0  0  0  0  3  0  0  0  0  0  0
    3.7577   44.1971   52.9543 C   0  0  0  0  0  3  0  0  0  0  0  0
    3.2239   43.1863   52.1952 C   0  0  0  0  0  3  0  0  0  0  0  0
    3.8875   42.6661   51.1045 C   0  0  0  0  0  3  0  0  0  0  0  0
    5.1317   43.1770   50.7613 C   0  0  0  0  0  0  0  0  0  0  0  0
    6.9648   44.7445   51.1754 C   0  0  0  0  0  0  0  0  0  0  0  0
    7.4805   45.8792   51.8857 N   0  0  0  0  0  0  0  0  0  0  0  0
    7.7011   44.2894   50.2656 O   0  0  0  0  0  0  0  0  0  0  0  0
    8.8589   46.3105   51.7380 C   0  0  0  0  0  2  0  0  0  0  0  0
    9.2429   47.1243   52.9202 C   0  0  0  0  0  0  0  0  0  0  0  0
    8.2971   47.6295   53.8123 C   0  0  0  0  0  3  0  0  0  0  0  0
   10.4143   47.5039   53.3389 O   0  0  0  0  0  0  0  0  0  0  0  0
    8.9982   48.3201   54.7653 C   0  0  0  0  0  3  0  0  0  0  0  0
   10.2909   48.2042   54.4166 N   0  0  0  0  0  0  0  0  0  0  0  0
    5.7496   42.6167   49.6619 O   0  0  0  0  0  0  0  0  0  0  0  0
    5.1682   42.3598   48.4249 C   0  0  0  0  0  3  0  0  0  0  0  0
    3.7067   42.0697   48.4285 C   0  0  0  0  0  2  0  0  0  0  0  0
    5.9216   41.2686   47.7174 C   0  0  0  0  0  2  0  0  0  0  0  0
    3.3469   40.6785   48.0135 C   0  0  0  0  0  2  0  0  0  0  0  0
    5.2423   40.8066   46.4635 C   0  0  0  0  0  2  0  0  0  0  0  0
    3.8566   40.2775   46.6639 C   0  0  0  0  0  2  0  0  0  0  0  0
  1  7  1  0
  2  1  2  0
  3  2  1  0
  4  3  2  0
  4  5  1  0
  5  6  2  0
  6  1  1  0
  6 16  1  0
  7  9  2  0
  7  8  1  0
  8 10  1  0
 10 11  1  0
 11 13  1  0
 11 12  2  0
 12 14  1  0
 13 15  1  0
 15 14  2  0
 17 16  1  0
 18 17  1  0
 19 17  1  0
 20 18  1  0
 21 19  1  0
 22 20  1  0
 22 21  1  0
M  RAD  8   2   2   3   2   4   2   5   2  10   3  12   2  14   2  17   2
M  RAD  5  18   3  19   3  20   3  21   3  22   3
M  END
>  <REMARK>  (1) 
 SMILES O=C(NCc1ccno1)c1ccccc1OC1CCCCC1
 SMILES IDX 10 1 11 2 12 3 13 4 14 5 15 6 2 7 3 8 1 9 4 11 5 12 6 13
 SMILES IDX 9 14 7 15 8 16 16 17 17 18 18 19 22 20 19 21 21 22 20 23
 H PARENT 3 10

>  <TORSDO>  (1) 
F 5

$$$$
