/home/pchatterjee/Documents/git/vs_workflow/DiffDock/diffdock_run/pdbqt_scrubbed/Z1673780356.pdbqt
     RDKit          3D

 22 24  0  0  0  0  0  0  0  0999 V2000
    6.8154   46.2105   52.4850 C   0  0  0  0  0  0  0  0  0  0  0  0
    5.5066   45.8266   52.3799 C   0  0  0  0  0  3  0  0  0  0  0  0
    4.5338   46.4466   53.1313 C   0  0  0  0  0  3  0  0  0  0  0  0
    4.9123   47.4537   53.9829 C   0  0  0  0  0  3  0  0  0  0  0  0
    6.2266   47.8527   54.1006 C   0  0  0  0  0  3  0  0  0  0  0  0
    7.1980   47.2198   53.3373 C   0  0  0  0  0  0  0  0  0  0  0  0
    7.8210   45.5292   51.6810 C   0  0  0  0  0  0  0  0  0  0  0  0
    7.4267   44.7264   50.5594 N   0  0  0  0  0  0  0  0  0  0  0  0
    9.0558   45.5914   51.9007 O   0  0  0  0  0  0  0  0  0  0  0  0
    8.4044   44.1059   49.6835 C   0  0  0  0  0  2  0  0  0  0  0  0
    7.7068   43.1775   48.7569 C   0  0  0  0  0  0  0  0  0  0  0  0
    6.3556   42.8620   48.9003 C   0  0  0  0  0  3  0  0  0  0  0  0
    8.1508   42.5258   47.7226 O   0  0  0  0  0  0  0  0  0  0  0  0
    6.0547   41.9914   47.8863 C   0  0  0  0  0  3  0  0  0  0  0  0
    7.1987   41.8270   47.2007 N   0  0  0  0  0  0  0  0  0  0  0  0
    8.4956   47.6620   53.4953 O   0  0  0  0  0  0  0  0  0  0  0  0
    8.9267   48.6867   54.3308 C   0  0  0  0  0  3  0  0  0  0  0  0
   10.3176   48.5733   54.8530 C   0  0  0  0  0  2  0  0  0  0  0  0
    7.9525   48.8765   55.4596 C   0  0  0  0  0  2  0  0  0  0  0  0
   10.4133   48.3800   56.3331 C   0  0  0  0  0  2  0  0  0  0  0  0
    8.4456   49.8327   56.5034 C   0  0  0  0  0  2  0  0  0  0  0  0
    9.7390   49.4410   57.1466 C   0  0  0  0  0  2  0  0  0  0  0  0
  1  7  1  0
  2  1  2  0
  3  2  1  0
  4  3  2  0
  4  5  1  0
  5  6  2  0
  6  1  1  0
  6 16  1  0
  7  9  2  0
  7  8  1  0
  8 10  1  0
 10 11  1  0
 11 13  1  0
 11 12  2  0
 12 14  1  0
 13 15  1  0
 15 14  2  0
 17 16  1  0
 18 17  1  0
 19 17  1  0
 20 18  1  0
 21 19  1  0
 22 20  1  0
 22 21  1  0
M  RAD  8   2   2   3   2   4   2   5   2  10   3  12   2  14   2  17   2
M  RAD  5  18   3  19   3  20   3  21   3  22   3
M  END
>  <REMARK>  (1) 
 SMILES O=C(NCc1ccno1)c1ccccc1OC1CCCCC1
 SMILES IDX 10 1 11 2 12 3 13 4 14 5 15 6 2 7 3 8 1 9 4 11 5 12 6 13
 SMILES IDX 9 14 7 15 8 16 16 17 17 18 18 19 22 20 19 21 21 22 20 23
 H PARENT 3 10

>  <TORSDO>  (1) 
F 5

$$$$
