/home/pchatterjee/Documents/git/vs_workflow/DiffDock/diffdock_run/pdbqt_scrubbed/Z1673780356.pdbqt
     RDKit          3D

 22 24  0  0  0  0  0  0  0  0999 V2000
    5.6234   46.2910   52.8732 C   0  0  0  0  0  0  0  0  0  0  0  0
    4.7448   46.9091   53.7202 C   0  0  0  0  0  3  0  0  0  0  0  0
    3.3874   46.7390   53.5652 C   0  0  0  0  0  3  0  0  0  0  0  0
    2.9443   45.9371   52.5438 C   0  0  0  0  0  3  0  0  0  0  0  0
    3.8163   45.3069   51.6818 C   0  0  0  0  0  3  0  0  0  0  0  0
    5.1826   45.4863   51.8488 C   0  0  0  0  0  0  0  0  0  0  0  0
    7.0531   46.4975   53.0603 C   0  0  0  0  0  0  0  0  0  0  0  0
    7.5321   47.6757   53.7239 N   0  0  0  0  0  0  0  0  0  0  0  0
    7.9355   45.6933   52.6709 O   0  0  0  0  0  0  0  0  0  0  0  0
    8.9390   47.8598   54.0318 C   0  0  0  0  0  2  0  0  0  0  0  0
    9.0903   49.0328   54.9309 C   0  0  0  0  0  0  0  0  0  0  0  0
    7.9938   49.7642   55.3876 C   0  0  0  0  0  3  0  0  0  0  0  0
   10.1584   49.5772   55.4353 O   0  0  0  0  0  0  0  0  0  0  0  0
    8.4995   50.7585   56.1828 C   0  0  0  0  0  3  0  0  0  0  0  0
    9.8324   50.5877   56.1700 N   0  0  0  0  0  0  0  0  0  0  0  0
    6.0070   44.8299   50.9580 O   0  0  0  0  0  0  0  0  0  0  0  0
    5.7949   43.5723   50.4034 C   0  0  0  0  0  3  0  0  0  0  0  0
    6.9153   43.0056   49.6011 C   0  0  0  0  0  2  0  0  0  0  0  0
    4.5200   43.5678   49.6073 C   0  0  0  0  0  2  0  0  0  0  0  0
    6.6166   42.8394   48.1449 C   0  0  0  0  0  2  0  0  0  0  0  0
    4.3228   42.3041   48.8255 C   0  0  0  0  0  2  0  0  0  0  0  0
    5.4128   42.0007   47.8458 C   0  0  0  0  0  2  0  0  0  0  0  0
  1  7  1  0
  2  1  2  0
  3  2  1  0
  4  3  2  0
  4  5  1  0
  5  6  2  0
  6  1  1  0
  6 16  1  0
  7  9  2  0
  7  8  1  0
  8 10  1  0
 10 11  1  0
 11 13  1  0
 11 12  2  0
 12 14  1  0
 13 15  1  0
 15 14  2  0
 17 16  1  0
 18 17  1  0
 19 17  1  0
 20 18  1  0
 21 19  1  0
 22 20  1  0
 22 21  1  0
M  RAD  8   2   2   3   2   4   2   5   2  10   3  12   2  14   2  17   2
M  RAD  5  18   3  19   3  20   3  21   3  22   3
M  END
>  <REMARK>  (1) 
 SMILES O=C(NCc1ccno1)c1ccccc1OC1CCCCC1
 SMILES IDX 10 1 11 2 12 3 13 4 14 5 15 6 2 7 3 8 1 9 4 11 5 12 6 13
 SMILES IDX 9 14 7 15 8 16 16 17 17 18 18 19 22 20 19 21 21 22 20 23
 H PARENT 3 10

>  <TORSDO>  (1) 
F 5

$$$$
