/home/pchatterjee/Documents/git/vs_workflow/DiffDock/diffdock_run/pdbqt_scrubbed/Z1673780356.pdbqt
     RDKit          3D

 22 24  0  0  0  0  0  0  0  0999 V2000
   10.9740   63.4118   82.8217 C   0  0  0  0  0  0  0  0  0  0  0  0
   11.8331   62.4729   83.3236 C   0  0  0  0  0  3  0  0  0  0  0  0
   13.1495   62.7911   83.5708 C   0  0  0  0  0  3  0  0  0  0  0  0
   13.5721   64.0684   83.3010 C   0  0  0  0  0  3  0  0  0  0  0  0
   12.7193   65.0263   82.7953 C   0  0  0  0  0  3  0  0  0  0  0  0
   11.3942   64.6928   82.5506 C   0  0  0  0  0  0  0  0  0  0  0  0
    9.5891   63.0405   82.5649 C   0  0  0  0  0  0  0  0  0  0  0  0
    9.1738   61.6726   82.6847 N   0  0  0  0  0  0  0  0  0  0  0  0
    8.6935   63.8559   82.2334 O   0  0  0  0  0  0  0  0  0  0  0  0
    7.7995   61.2685   82.4481 C   0  0  0  0  0  2  0  0  0  0  0  0
    7.6690   59.8120   82.7106 C   0  0  0  0  0  0  0  0  0  0  0  0
    8.5944   59.1115   83.4843 C   0  0  0  0  0  3  0  0  0  0  0  0
    6.7649   58.9620   82.3212 O   0  0  0  0  0  0  0  0  0  0  0  0
    8.1648   57.8111   83.5135 C   0  0  0  0  0  3  0  0  0  0  0  0
    7.0383   57.7869   82.7811 N   0  0  0  0  0  0  0  0  0  0  0  0
   10.5869   65.6920   82.0464 O   0  0  0  0  0  0  0  0  0  0  0  0
   10.9106   67.0393   81.9278 C   0  0  0  0  0  3  0  0  0  0  0  0
    9.8311   67.9375   81.4297 C   0  0  0  0  0  2  0  0  0  0  0  0
   12.1553   67.2001   81.1008 C   0  0  0  0  0  2  0  0  0  0  0  0
   10.1024   68.5564   80.0953 C   0  0  0  0  0  2  0  0  0  0  0  0
   12.4580   68.6308   80.7713 C   0  0  0  0  0  2  0  0  0  0  0  0
   11.3765   69.3391   80.0170 C   0  0  0  0  0  2  0  0  0  0  0  0
  1  7  1  0
  2  1  2  0
  3  2  1  0
  4  3  2  0
  4  5  1  0
  5  6  2  0
  6  1  1  0
  6 16  1  0
  7  9  2  0
  7  8  1  0
  8 10  1  0
 10 11  1  0
 11 13  1  0
 11 12  2  0
 12 14  1  0
 13 15  1  0
 15 14  2  0
 17 16  1  0
 18 17  1  0
 19 17  1  0
 20 18  1  0
 21 19  1  0
 22 20  1  0
 22 21  1  0
M  RAD  8   2   2   3   2   4   2   5   2  10   3  12   2  14   2  17   2
M  RAD  5  18   3  19   3  20   3  21   3  22   3
M  END
>  <REMARK>  (1) 
 SMILES O=C(NCc1ccno1)c1ccccc1OC1CCCCC1
 SMILES IDX 10 1 11 2 12 3 13 4 14 5 15 6 2 7 3 8 1 9 4 11 5 12 6 13
 SMILES IDX 9 14 7 15 8 16 16 17 17 18 18 19 22 20 19 21 21 22 20 23
 H PARENT 3 10

>  <TORSDO>  (1) 
F 5

$$$$
