/home/pchatterjee/Documents/git/vs_workflow/DiffDock/diffdock_run/pdbqt_scrubbed/Z1673780356.pdbqt
     RDKit          3D

 22 24  0  0  0  0  0  0  0  0999 V2000
   12.9040   60.4567   82.8174 C   0  0  0  0  0  0  0  0  0  0  0  0
   13.4618   61.3269   81.9213 C   0  0  0  0  0  3  0  0  0  0  0  0
   14.8190   61.5581   81.9236 C   0  0  0  0  0  3  0  0  0  0  0  0
   15.5907   60.8951   82.8443 C   0  0  0  0  0  3  0  0  0  0  0  0
   15.0444   60.0150   83.7539 C   0  0  0  0  0  3  0  0  0  0  0  0
   13.6746   59.7904   83.7411 C   0  0  0  0  0  0  0  0  0  0  0  0
   11.4638   60.2399   82.7928 C   0  0  0  0  0  0  0  0  0  0  0  0
   10.5770   61.3154   82.4537 N   0  0  0  0  0  0  0  0  0  0  0  0
   10.9145   59.1417   83.0557 O   0  0  0  0  0  0  0  0  0  0  0  0
    9.1349   61.1480   82.4646 C   0  0  0  0  0  2  0  0  0  0  0  0
    8.4932   62.4363   82.0960 C   0  0  0  0  0  0  0  0  0  0  0  0
    9.2329   63.5994   81.8820 C   0  0  0  0  0  3  0  0  0  0  0  0
    7.2403   62.7327   81.9115 O   0  0  0  0  0  0  0  0  0  0  0  0
    8.3278   64.5774   81.5645 C   0  0  0  0  0  3  0  0  0  0  0  0
    7.1244   63.9803   81.6001 N   0  0  0  0  0  0  0  0  0  0  0  0
   13.1844   58.8983   84.6729 O   0  0  0  0  0  0  0  0  0  0  0  0
   13.9278   58.1714   85.5965 C   0  0  0  0  0  3  0  0  0  0  0  0
   15.1990   57.5741   85.0991 C   0  0  0  0  0  2  0  0  0  0  0  0
   13.0666   57.1207   86.2396 C   0  0  0  0  0  2  0  0  0  0  0  0
   15.2175   56.0787   85.0764 C   0  0  0  0  0  2  0  0  0  0  0  0
   13.8445   56.1761   87.1054 C   0  0  0  0  0  2  0  0  0  0  0  0
   14.9306   55.4302   86.3952 C   0  0  0  0  0  2  0  0  0  0  0  0
  1  7  1  0
  2  1  2  0
  3  2  1  0
  4  3  2  0
  4  5  1  0
  5  6  2  0
  6  1  1  0
  6 16  1  0
  7  9  2  0
  7  8  1  0
  8 10  1  0
 10 11  1  0
 11 13  1  0
 11 12  2  0
 12 14  1  0
 13 15  1  0
 15 14  2  0
 17 16  1  0
 18 17  1  0
 19 17  1  0
 20 18  1  0
 21 19  1  0
 22 20  1  0
 22 21  1  0
M  RAD  8   2   2   3   2   4   2   5   2  10   3  12   2  14   2  17   2
M  RAD  5  18   3  19   3  20   3  21   3  22   3
M  END
>  <REMARK>  (1) 
 SMILES O=C(NCc1ccno1)c1ccccc1OC1CCCCC1
 SMILES IDX 10 1 11 2 12 3 13 4 14 5 15 6 2 7 3 8 1 9 4 11 5 12 6 13
 SMILES IDX 9 14 7 15 8 16 16 17 17 18 18 19 22 20 19 21 21 22 20 23
 H PARENT 3 10

>  <TORSDO>  (1) 
F 5

$$$$
