/home/pchatterjee/Documents/git/vs_workflow/DiffDock/diffdock_run/pdbqt_scrubbed/Z1673780356.pdbqt
     RDKit          3D

 22 24  0  0  0  0  0  0  0  0999 V2000
   13.8849   64.5108   83.0038 C   0  0  0  0  0  0  0  0  0  0  0  0
   15.0347   63.7928   83.1880 C   0  0  0  0  0  3  0  0  0  0  0  0
   16.2648   64.3902   83.0290 C   0  0  0  0  0  3  0  0  0  0  0  0
   16.3041   65.7173   82.6827 C   0  0  0  0  0  3  0  0  0  0  0  0
   15.1550   66.4551   82.4936 C   0  0  0  0  0  3  0  0  0  0  0  0
   13.9208   65.8412   82.6572 C   0  0  0  0  0  0  0  0  0  0  0  0
   12.5995   63.8469   83.1730 C   0  0  0  0  0  0  0  0  0  0  0  0
   12.5195   62.4146   83.1639 N   0  0  0  0  0  0  0  0  0  0  0  0
   11.5116   64.4534   83.3328 O   0  0  0  0  0  0  0  0  0  0  0  0
   11.2585   61.7192   83.3492 C   0  0  0  0  0  2  0  0  0  0  0  0
   11.5306   60.2864   83.6328 C   0  0  0  0  0  0  0  0  0  0  0  0
   12.8276   59.7840   83.7382 C   0  0  0  0  0  3  0  0  0  0  0  0
   10.7122   59.2939   83.8242 O   0  0  0  0  0  0  0  0  0  0  0  0
   12.7010   58.4456   84.0011 C   0  0  0  0  0  3  0  0  0  0  0  0
   11.3787   58.2094   84.0411 N   0  0  0  0  0  0  0  0  0  0  0  0
   12.8056   66.6289   82.4568 O   0  0  0  0  0  0  0  0  0  0  0  0
   12.6153   67.5524   81.4346 C   0  0  0  0  0  3  0  0  0  0  0  0
   13.6570   68.6086   81.2951 C   0  0  0  0  0  2  0  0  0  0  0  0
   11.2490   68.1692   81.5443 C   0  0  0  0  0  2  0  0  0  0  0  0
   13.1789   69.9966   81.5817 C   0  0  0  0  0  2  0  0  0  0  0  0
   11.0435   69.3089   80.5925 C   0  0  0  0  0  2  0  0  0  0  0  0
   12.0118   70.4387   80.7543 C   0  0  0  0  0  2  0  0  0  0  0  0
  1  7  1  0
  2  1  2  0
  3  2  1  0
  4  3  2  0
  4  5  1  0
  5  6  2  0
  6  1  1  0
  6 16  1  0
  7  9  2  0
  7  8  1  0
  8 10  1  0
 10 11  1  0
 11 13  1  0
 11 12  2  0
 12 14  1  0
 13 15  1  0
 15 14  2  0
 17 16  1  0
 18 17  1  0
 19 17  1  0
 20 18  1  0
 21 19  1  0
 22 20  1  0
 22 21  1  0
M  RAD  8   2   2   3   2   4   2   5   2  10   3  12   2  14   2  17   2
M  RAD  5  18   3  19   3  20   3  21   3  22   3
M  END
>  <REMARK>  (1) 
 SMILES O=C(NCc1ccno1)c1ccccc1OC1CCCCC1
 SMILES IDX 10 1 11 2 12 3 13 4 14 5 15 6 2 7 3 8 1 9 4 11 5 12 6 13
 SMILES IDX 9 14 7 15 8 16 16 17 17 18 18 19 22 20 19 21 21 22 20 23
 H PARENT 3 10

>  <TORSDO>  (1) 
F 5

$$$$
