/home/pchatterjee/Documents/git/vs_workflow/DiffDock/diffdock_run/pdbqt_scrubbed/Z1673780356.pdbqt
     RDKit          3D

 22 24  0  0  0  0  0  0  0  0999 V2000
   10.8232   67.3176   81.7409 C   0  0  0  0  0  0  0  0  0  0  0  0
    9.8603   67.9535   81.0061 C   0  0  0  0  0  3  0  0  0  0  0  0
   10.1532   69.1133   80.3245 C   0  0  0  0  0  3  0  0  0  0  0  0
   11.4301   69.6096   80.4030 C   0  0  0  0  0  3  0  0  0  0  0  0
   12.4119   68.9811   81.1388 C   0  0  0  0  0  3  0  0  0  0  0  0
   12.1039   67.8122   81.8213 C   0  0  0  0  0  0  0  0  0  0  0  0
   10.4785   66.0963   82.4558 C   0  0  0  0  0  0  0  0  0  0  0  0
    9.1382   65.5867   82.4109 N   0  0  0  0  0  0  0  0  0  0  0  0
   11.2946   65.4268   83.1360 O   0  0  0  0  0  0  0  0  0  0  0  0
    8.7553   64.3817   83.1246 C   0  0  0  0  0  2  0  0  0  0  0  0
    7.2946   64.1643   82.9626 C   0  0  0  0  0  0  0  0  0  0  0  0
    6.7098   63.9522   81.7141 C   0  0  0  0  0  3  0  0  0  0  0  0
    6.3435   64.1275   83.8490 O   0  0  0  0  0  0  0  0  0  0  0  0
    5.3682   63.7921   81.9405 C   0  0  0  0  0  3  0  0  0  0  0  0
    5.2101   63.9109   83.2697 N   0  0  0  0  0  0  0  0  0  0  0  0
   13.1263   67.2263   82.5393 O   0  0  0  0  0  0  0  0  0  0  0  0
   14.3615   67.7922   82.8363 C   0  0  0  0  0  3  0  0  0  0  0  0
   15.0211   68.5541   81.7388 C   0  0  0  0  0  2  0  0  0  0  0  0
   15.2901   66.7453   83.3848 C   0  0  0  0  0  2  0  0  0  0  0  0
   16.2934   67.9483   81.2374 C   0  0  0  0  0  2  0  0  0  0  0  0
   16.6960   67.2387   83.5495 C   0  0  0  0  0  2  0  0  0  0  0  0
   17.3369   67.7276   82.2884 C   0  0  0  0  0  2  0  0  0  0  0  0
  1  7  1  0
  2  1  2  0
  3  2  1  0
  4  3  2  0
  4  5  1  0
  5  6  2  0
  6  1  1  0
  6 16  1  0
  7  9  2  0
  7  8  1  0
  8 10  1  0
 10 11  1  0
 11 13  1  0
 11 12  2  0
 12 14  1  0
 13 15  1  0
 15 14  2  0
 17 16  1  0
 18 17  1  0
 19 17  1  0
 20 18  1  0
 21 19  1  0
 22 20  1  0
 22 21  1  0
M  RAD  8   2   2   3   2   4   2   5   2  10   3  12   2  14   2  17   2
M  RAD  5  18   3  19   3  20   3  21   3  22   3
M  END
>  <REMARK>  (1) 
 SMILES O=C(NCc1ccno1)c1ccccc1OC1CCCCC1
 SMILES IDX 10 1 11 2 12 3 13 4 14 5 15 6 2 7 3 8 1 9 4 11 5 12 6 13
 SMILES IDX 9 14 7 15 8 16 16 17 17 18 18 19 22 20 19 21 21 22 20 23
 H PARENT 3 10

>  <TORSDO>  (1) 
F 5

$$$$
