/home/pchatterjee/Documents/git/vs_workflow/DiffDock/diffdock_run/pdbqt_scrubbed/Z1673780356.pdbqt
     RDKit          3D

 22 24  0  0  0  0  0  0  0  0999 V2000
   11.0536   63.4651   82.8313 C   0  0  0  0  0  0  0  0  0  0  0  0
   11.8784   62.5174   83.3725 C   0  0  0  0  0  3  0  0  0  0  0  0
   13.1894   62.8175   83.6668 C   0  0  0  0  0  3  0  0  0  0  0  0
   13.6417   64.0858   83.4033 C   0  0  0  0  0  3  0  0  0  0  0  0
   12.8237   65.0524   82.8584 C   0  0  0  0  0  3  0  0  0  0  0  0
   11.5037   64.7373   82.5664 C   0  0  0  0  0  0  0  0  0  0  0  0
    9.6737   63.1130   82.5252 C   0  0  0  0  0  0  0  0  0  0  0  0
    9.2069   61.7726   82.7337 N   0  0  0  0  0  0  0  0  0  0  0  0
    8.8259   63.9225   82.0749 O   0  0  0  0  0  0  0  0  0  0  0  0
    7.8521   61.3748   82.3958 C   0  0  0  0  0  2  0  0  0  0  0  0
    7.6353   59.9705   82.8298 C   0  0  0  0  0  0  0  0  0  0  0  0
    8.4972   59.3266   83.7176 C   0  0  0  0  0  3  0  0  0  0  0  0
    6.6992   59.1246   82.5139 O   0  0  0  0  0  0  0  0  0  0  0  0
    7.9974   58.0628   83.8898 C   0  0  0  0  0  3  0  0  0  0  0  0
    6.8945   58.0037   83.1243 N   0  0  0  0  0  0  0  0  0  0  0  0
   10.7317   65.7445   82.0243 O   0  0  0  0  0  0  0  0  0  0  0  0
   11.0513   67.0969   81.9703 C   0  0  0  0  0  3  0  0  0  0  0  0
    9.9946   68.0057   81.4434 C   0  0  0  0  0  2  0  0  0  0  0  0
   12.3390   67.2931   81.2202 C   0  0  0  0  0  2  0  0  0  0  0  0
   10.3353   68.6719   80.1483 C   0  0  0  0  0  2  0  0  0  0  0  0
   12.6489   68.7360   80.9573 C   0  0  0  0  0  2  0  0  0  0  0  0
   11.6059   69.4639   80.1683 C   0  0  0  0  0  2  0  0  0  0  0  0
  1  7  1  0
  2  1  2  0
  3  2  1  0
  4  3  2  0
  4  5  1  0
  5  6  2  0
  6  1  1  0
  6 16  1  0
  7  9  2  0
  7  8  1  0
  8 10  1  0
 10 11  1  0
 11 13  1  0
 11 12  2  0
 12 14  1  0
 13 15  1  0
 15 14  2  0
 17 16  1  0
 18 17  1  0
 19 17  1  0
 20 18  1  0
 21 19  1  0
 22 20  1  0
 22 21  1  0
M  RAD  8   2   2   3   2   4   2   5   2  10   3  12   2  14   2  17   2
M  RAD  5  18   3  19   3  20   3  21   3  22   3
M  END
>  <REMARK>  (1) 
 SMILES O=C(NCc1ccno1)c1ccccc1OC1CCCCC1
 SMILES IDX 10 1 11 2 12 3 13 4 14 5 15 6 2 7 3 8 1 9 4 11 5 12 6 13
 SMILES IDX 9 14 7 15 8 16 16 17 17 18 18 19 22 20 19 21 21 22 20 23
 H PARENT 3 10

>  <TORSDO>  (1) 
F 5

$$$$
