/home/pchatterjee/Documents/git/vs_workflow/DiffDock/diffdock_run/pdbqt_scrubbed/49863194.pdbqt
     RDKit          3D

 21 24  0  0  1  0  0  0  0  0999 V2000
    5.9783   43.9572   49.0760 C   0  0  0  0  0  3  0  0  0  0  0  0
    7.3774   43.6121   48.8469 N   0  0  0  0  0  0  0  0  0  0  0  0
    8.1663   44.0938   49.7367 C   0  0  0  0  0  0  0  0  0  0  0  0
    9.5769   44.0854   50.0133 N   0  0  0  0  0  0  0  0  0  0  0  0
   10.0626   44.7466   51.0188 C   0  0  0  0  0  3  0  0  0  0  0  0
    9.2278   45.4873   51.8780 N   0  0  0  0  0  0  0  0  0  0  0  0
    7.9165   45.5475   51.7265 C   0  0  0  0  0  0  0  0  0  0  0  0
    7.3352   44.8389   50.6738 C   0  0  0  0  0  3  0  0  0  0  0  0
    6.0910   45.0287   50.0993 N   0  0  0  0  0  0  0  0  0  0  0  0
    5.2082   42.8156   49.6139 C   0  0  0  0  0  0  0  0  0  0  0  0
    3.6562   40.7495   50.7196 C   0  0  0  0  0  3  0  0  0  0  0  0
    3.4103   42.0704   51.0469 C   0  0  0  0  0  3  0  0  0  0  0  0
    4.6801   40.4784   49.8393 C   0  0  0  0  0  3  0  0  0  0  0  0
    4.1812   43.0837   50.4965 C   0  0  0  0  0  3  0  0  0  0  0  0
    5.4564   41.4987   49.2850 C   0  0  0  0  0  3  0  0  0  0  0  0
    7.1986   46.3117   52.6237 O   0  0  0  0  0  0  0  0  0  0  0  0
    7.6672   46.5729   53.9373 C   0  0  0  0  0  3  0  0  0  0  0  0
    9.1528   46.9143   53.7689 C   0  0  0  0  0  2  0  0  0  0  0  0
    7.0220   47.9114   54.3151 C   0  0  0  0  0  2  0  0  0  0  0  0
    9.0823   48.3007   53.1233 C   0  0  0  0  0  2  0  0  0  0  0  0
    8.0380   48.9789   53.9803 C   0  0  0  0  0  2  0  0  0  0  0  0
  1  2  1  0
  1 10  1  0
  3  4  1  0
  3  2  2  0
  5  4  2  0
  6  5  1  0
  7  6  2  0
  8  7  1  0
  8  9  1  0
  8  3  1  0
  9  1  1  0
 10 15  2  0
 11 13  2  0
 12 11  1  0
 14 10  1  0
 14 12  2  0
 15 13  1  0
 16  7  1  0
 17 16  1  0
 18 17  1  0
 19 17  1  0
 20 18  1  0
 21 19  1  0
 21 20  1  0
M  RAD  8   1   2   5   2   8   2  11   2  12   2  13   2  14   2  15   2
M  RAD  5  17   2  18   3  19   3  20   3  21   3
M  END
>  <REMARK>  (1) 
 SMILES c1ccc(-c2nc3ncnc(OC4CCCC4)c3[nH]2)cc1
 SMILES IDX 5 1 6 2 7 3 8 4 9 5 10 6 11 7 18 8 19 9 4 11 1 12 2 13 21 14
 SMILES IDX 3 15 20 16 12 17 13 18 14 19 17 20 15 21 16 22
 H PARENT 19 10

>  <TORSDO>  (1) 
F 3

$$$$
