/home/pchatterjee/Documents/git/vs_workflow/DiffDock/diffdock_run/pdbqt_scrubbed/49863194.pdbqt
     RDKit          3D

 21 24  0  0  1  0  0  0  0  0999 V2000
    5.9848   43.9234   49.0445 C   0  0  0  0  0  3  0  0  0  0  0  0
    7.3851   43.5682   48.8390 N   0  0  0  0  0  0  0  0  0  0  0  0
    8.1600   44.0292   49.7517 C   0  0  0  0  0  0  0  0  0  0  0  0
    9.5645   44.0033   50.0569 N   0  0  0  0  0  0  0  0  0  0  0  0
   10.0356   44.6451   51.0817 C   0  0  0  0  0  3  0  0  0  0  0  0
    9.1903   45.3812   51.9345 N   0  0  0  0  0  0  0  0  0  0  0  0
    7.8830   45.4562   51.7572 C   0  0  0  0  0  0  0  0  0  0  0  0
    7.3169   44.7687   50.6825 C   0  0  0  0  0  3  0  0  0  0  0  0
    6.0865   44.9788   50.0857 N   0  0  0  0  0  0  0  0  0  0  0  0
    5.1932   42.7816   49.5498 C   0  0  0  0  0  0  0  0  0  0  0  0
    3.7702   40.5160   50.4117 C   0  0  0  0  0  3  0  0  0  0  0  0
    4.7570   40.4066   49.4489 C   0  0  0  0  0  3  0  0  0  0  0  0
    3.5072   41.7634   50.9330 C   0  0  0  0  0  3  0  0  0  0  0  0
    5.4542   41.5300   49.0295 C   0  0  0  0  0  3  0  0  0  0  0  0
    4.2093   42.8947   50.5107 C   0  0  0  0  0  3  0  0  0  0  0  0
    7.1540   46.2141   52.6508 O   0  0  0  0  0  0  0  0  0  0  0  0
    7.5730   46.4102   53.9921 C   0  0  0  0  0  3  0  0  0  0  0  0
    9.0418   46.8398   53.8910 C   0  0  0  0  0  2  0  0  0  0  0  0
    6.8464   47.6845   54.4381 C   0  0  0  0  0  2  0  0  0  0  0  0
    8.9130   48.2610   53.3367 C   0  0  0  0  0  2  0  0  0  0  0  0
    7.8113   48.8240   54.2050 C   0  0  0  0  0  2  0  0  0  0  0  0
  1  2  1  0
  1 10  1  0
  3  4  1  0
  3  2  2  0
  5  4  2  0
  6  5  1  0
  7  6  2  0
  8  7  1  0
  8  9  1  0
  8  3  1  0
  9  1  1  0
 10 15  2  0
 11 13  2  0
 12 11  1  0
 14 10  1  0
 14 12  2  0
 15 13  1  0
 16  7  1  0
 17 16  1  0
 18 17  1  0
 19 17  1  0
 20 18  1  0
 21 19  1  0
 21 20  1  0
M  RAD  8   1   2   5   2   8   2  11   2  12   2  13   2  14   2  15   2
M  RAD  5  17   2  18   3  19   3  20   3  21   3
M  END
>  <REMARK>  (1) 
 SMILES c1ccc(-c2nc3ncnc(OC4CCCC4)c3[nH]2)cc1
 SMILES IDX 5 1 6 2 7 3 8 4 9 5 10 6 11 7 18 8 19 9 4 11 1 12 2 13 21 14
 SMILES IDX 3 15 20 16 12 17 13 18 14 19 17 20 15 21 16 22
 H PARENT 19 10

>  <TORSDO>  (1) 
F 3

$$$$
