/home/pchatterjee/Documents/git/vs_workflow/DiffDock/diffdock_run/pdbqt_scrubbed/49863194.pdbqt
     RDKit          3D

 21 24  0  0  1  0  0  0  0  0999 V2000
    5.9432   44.0134   48.9971 C   0  0  0  0  0  3  0  0  0  0  0  0
    7.3291   43.6143   48.7755 N   0  0  0  0  0  0  0  0  0  0  0  0
    8.1263   44.0386   49.6868 C   0  0  0  0  0  0  0  0  0  0  0  0
    9.5316   43.9624   49.9796 N   0  0  0  0  0  0  0  0  0  0  0  0
   10.0323   44.5760   51.0076 C   0  0  0  0  0  3  0  0  0  0  0  0
    9.2189   45.3297   51.8761 N   0  0  0  0  0  0  0  0  0  0  0  0
    7.9134   45.4502   51.7109 C   0  0  0  0  0  0  0  0  0  0  0  0
    7.3159   44.7946   50.6332 C   0  0  0  0  0  3  0  0  0  0  0  0
    6.0884   45.0525   50.0494 N   0  0  0  0  0  0  0  0  0  0  0  0
    5.1181   42.8926   49.4959 C   0  0  0  0  0  0  0  0  0  0  0  0
    3.6252   40.6662   50.3414 C   0  0  0  0  0  3  0  0  0  0  0  0
    4.5832   40.5401   49.3520 C   0  0  0  0  0  3  0  0  0  0  0  0
    3.4259   41.9104   50.8973 C   0  0  0  0  0  3  0  0  0  0  0  0
    5.3153   41.6442   48.9409 C   0  0  0  0  0  3  0  0  0  0  0  0
    4.1631   43.0223   50.4834 C   0  0  0  0  0  3  0  0  0  0  0  0
    7.2174   46.2213   52.6193 O   0  0  0  0  0  0  0  0  0  0  0  0
    7.6632   46.4021   53.9542 C   0  0  0  0  0  3  0  0  0  0  0  0
    9.1226   46.8563   53.8278 C   0  0  0  0  0  2  0  0  0  0  0  0
    6.9272   47.6573   54.4373 C   0  0  0  0  0  2  0  0  0  0  0  0
    8.9596   48.2842   53.3002 C   0  0  0  0  0  2  0  0  0  0  0  0
    7.8690   48.8155   54.2019 C   0  0  0  0  0  2  0  0  0  0  0  0
  1  2  1  0
  1 10  1  0
  3  4  1  0
  3  2  2  0
  5  4  2  0
  6  5  1  0
  7  6  2  0
  8  7  1  0
  8  9  1  0
  8  3  1  0
  9  1  1  0
 10 15  2  0
 11 13  2  0
 12 11  1  0
 14 10  1  0
 14 12  2  0
 15 13  1  0
 16  7  1  0
 17 16  1  0
 18 17  1  0
 19 17  1  0
 20 18  1  0
 21 19  1  0
 21 20  1  0
M  RAD  8   1   2   5   2   8   2  11   2  12   2  13   2  14   2  15   2
M  RAD  5  17   2  18   3  19   3  20   3  21   3
M  END
>  <REMARK>  (1) 
 SMILES c1ccc(-c2nc3ncnc(OC4CCCC4)c3[nH]2)cc1
 SMILES IDX 5 1 6 2 7 3 8 4 9 5 10 6 11 7 18 8 19 9 4 11 1 12 2 13 21 14
 SMILES IDX 3 15 20 16 12 17 13 18 14 19 17 20 15 21 16 22
 H PARENT 19 10

>  <TORSDO>  (1) 
F 3

$$$$
