/home/pchatterjee/Documents/git/vs_workflow/DiffDock/diffdock_run/pdbqt_scrubbed/49863194.pdbqt
     RDKit          3D

 21 24  0  0  1  0  0  0  0  0999 V2000
    5.8905   44.0835   48.9600 C   0  0  0  0  0  3  0  0  0  0  0  0
    7.2755   43.6867   48.7287 N   0  0  0  0  0  0  0  0  0  0  0  0
    8.0817   44.1306   49.6227 C   0  0  0  0  0  0  0  0  0  0  0  0
    9.4907   44.0658   49.8997 N   0  0  0  0  0  0  0  0  0  0  0  0
   10.0008   44.6998   50.9107 C   0  0  0  0  0  3  0  0  0  0  0  0
    9.1945   45.4651   51.7755 N   0  0  0  0  0  0  0  0  0  0  0  0
    7.8866   45.5769   51.6240 C   0  0  0  0  0  0  0  0  0  0  0  0
    7.2792   44.8996   50.5654 C   0  0  0  0  0  3  0  0  0  0  0  0
    6.0436   45.1416   49.9920 N   0  0  0  0  0  0  0  0  0  0  0  0
    5.0767   42.9681   49.4885 C   0  0  0  0  0  0  0  0  0  0  0  0
    3.6065   40.7499   50.3932 C   0  0  0  0  0  3  0  0  0  0  0  0
    4.5680   40.6067   49.4095 C   0  0  0  0  0  3  0  0  0  0  0  0
    3.3923   42.0069   50.9137 C   0  0  0  0  0  3  0  0  0  0  0  0
    5.2888   41.7069   48.9690 C   0  0  0  0  0  3  0  0  0  0  0  0
    4.1182   43.1148   50.4702 C   0  0  0  0  0  3  0  0  0  0  0  0
    7.1979   46.3609   52.5270 O   0  0  0  0  0  0  0  0  0  0  0  0
    7.6460   46.5475   53.8603 C   0  0  0  0  0  3  0  0  0  0  0  0
    9.1162   46.9644   53.7309 C   0  0  0  0  0  2  0  0  0  0  0  0
    6.9401   47.8262   54.3263 C   0  0  0  0  0  2  0  0  0  0  0  0
    8.9888   48.3891   53.1852 C   0  0  0  0  0  2  0  0  0  0  0  0
    7.9101   48.9581   54.0782 C   0  0  0  0  0  2  0  0  0  0  0  0
  1  2  1  0
  1 10  1  0
  3  4  1  0
  3  2  2  0
  5  4  2  0
  6  5  1  0
  7  6  2  0
  8  7  1  0
  8  9  1  0
  8  3  1  0
  9  1  1  0
 10 15  2  0
 11 13  2  0
 12 11  1  0
 14 10  1  0
 14 12  2  0
 15 13  1  0
 16  7  1  0
 17 16  1  0
 18 17  1  0
 19 17  1  0
 20 18  1  0
 21 19  1  0
 21 20  1  0
M  RAD  8   1   2   5   2   8   2  11   2  12   2  13   2  14   2  15   2
M  RAD  5  17   2  18   3  19   3  20   3  21   3
M  END
>  <REMARK>  (1) 
 SMILES c1ccc(-c2nc3ncnc(OC4CCCC4)c3[nH]2)cc1
 SMILES IDX 5 1 6 2 7 3 8 4 9 5 10 6 11 7 18 8 19 9 4 11 1 12 2 13 21 14
 SMILES IDX 3 15 20 16 12 17 13 18 14 19 17 20 15 21 16 22
 H PARENT 19 10

>  <TORSDO>  (1) 
F 3

$$$$
