/home/pchatterjee/Documents/git/vs_workflow/DiffDock/diffdock_run/pdbqt_scrubbed/49863194.pdbqt
     RDKit          3D

 21 24  0  0  1  0  0  0  0  0999 V2000
    5.8558   44.0194   49.0550 C   0  0  0  0  0  3  0  0  0  0  0  0
    7.2478   43.6345   48.8466 N   0  0  0  0  0  0  0  0  0  0  0  0
    8.0407   44.1161   49.7328 C   0  0  0  0  0  0  0  0  0  0  0  0
    9.4482   44.0788   50.0227 N   0  0  0  0  0  0  0  0  0  0  0  0
    9.9415   44.7500   51.0178 C   0  0  0  0  0  3  0  0  0  0  0  0
    9.1181   45.5301   51.8527 N   0  0  0  0  0  0  0  0  0  0  0  0
    7.8101   45.6195   51.6877 C   0  0  0  0  0  0  0  0  0  0  0  0
    7.2204   44.9024   50.6455 C   0  0  0  0  0  3  0  0  0  0  0  0
    5.9864   45.1102   50.0555 N   0  0  0  0  0  0  0  0  0  0  0  0
    5.0526   42.9095   49.6107 C   0  0  0  0  0  0  0  0  0  0  0  0
    3.6032   40.7004   50.5694 C   0  0  0  0  0  3  0  0  0  0  0  0
    4.5630   40.5429   49.5863 C   0  0  0  0  0  3  0  0  0  0  0  0
    3.3801   41.9670   51.0621 C   0  0  0  0  0  3  0  0  0  0  0  0
    5.2736   41.6388   49.1191 C   0  0  0  0  0  3  0  0  0  0  0  0
    4.0956   43.0705   50.5917 C   0  0  0  0  0  3  0  0  0  0  0  0
    7.1037   46.4211   52.5612 O   0  0  0  0  0  0  0  0  0  0  0  0
    7.5240   46.6324   53.8998 C   0  0  0  0  0  3  0  0  0  0  0  0
    9.0015   47.0298   53.7946 C   0  0  0  0  0  2  0  0  0  0  0  0
    6.8229   47.9291   54.3214 C   0  0  0  0  0  2  0  0  0  0  0  0
    8.9032   48.4432   53.2147 C   0  0  0  0  0  2  0  0  0  0  0  0
    7.8116   49.0442   54.0703 C   0  0  0  0  0  2  0  0  0  0  0  0
  1  2  1  0
  1 10  1  0
  3  4  1  0
  3  2  2  0
  5  4  2  0
  6  5  1  0
  7  6  2  0
  8  7  1  0
  8  9  1  0
  8  3  1  0
  9  1  1  0
 10 15  2  0
 11 13  2  0
 12 11  1  0
 14 10  1  0
 14 12  2  0
 15 13  1  0
 16  7  1  0
 17 16  1  0
 18 17  1  0
 19 17  1  0
 20 18  1  0
 21 19  1  0
 21 20  1  0
M  RAD  8   1   2   5   2   8   2  11   2  12   2  13   2  14   2  15   2
M  RAD  5  17   2  18   3  19   3  20   3  21   3
M  END
>  <REMARK>  (1) 
 SMILES c1ccc(-c2nc3ncnc(OC4CCCC4)c3[nH]2)cc1
 SMILES IDX 5 1 6 2 7 3 8 4 9 5 10 6 11 7 18 8 19 9 4 11 1 12 2 13 21 14
 SMILES IDX 3 15 20 16 12 17 13 18 14 19 17 20 15 21 16 22
 H PARENT 19 10

>  <TORSDO>  (1) 
F 3

$$$$
