/home/pchatterjee/Documents/git/vs_workflow/DiffDock/diffdock_run/pdbqt_scrubbed/49863194.pdbqt
     RDKit          3D

 21 24  0  0  1  0  0  0  0  0999 V2000
    6.0163   44.0215   48.9874 C   0  0  0  0  0  3  0  0  0  0  0  0
    7.4112   43.6490   48.7762 N   0  0  0  0  0  0  0  0  0  0  0  0
    8.1924   44.0827   49.6969 C   0  0  0  0  0  0  0  0  0  0  0  0
    9.5962   44.0306   50.0020 N   0  0  0  0  0  0  0  0  0  0  0  0
   10.0763   44.6476   51.0378 C   0  0  0  0  0  3  0  0  0  0  0  0
    9.2417   45.3815   51.9029 N   0  0  0  0  0  0  0  0  0  0  0  0
    7.9357   45.4791   51.7265 C   0  0  0  0  0  0  0  0  0  0  0  0
    7.3599   44.8186   50.6400 C   0  0  0  0  0  3  0  0  0  0  0  0
    6.1332   45.0573   50.0465 N   0  0  0  0  0  0  0  0  0  0  0  0
    5.2075   42.8832   49.4728 C   0  0  0  0  0  0  0  0  0  0  0  0
    3.7472   40.6256   50.2919 C   0  0  0  0  0  3  0  0  0  0  0  0
    4.7095   40.5242   49.3039 C   0  0  0  0  0  3  0  0  0  0  0  0
    3.5271   41.8609   50.8597 C   0  0  0  0  0  3  0  0  0  0  0  0
    5.4255   41.6436   48.9059 C   0  0  0  0  0  3  0  0  0  0  0  0
    4.2480   42.9881   50.4589 C   0  0  0  0  0  3  0  0  0  0  0  0
    7.2176   46.2324   52.6327 O   0  0  0  0  0  0  0  0  0  0  0  0
    7.6718   46.4532   53.9587 C   0  0  0  0  0  3  0  0  0  0  0  0
    9.1302   46.9034   53.8095 C   0  0  0  0  0  2  0  0  0  0  0  0
    6.9386   47.7223   54.4085 C   0  0  0  0  0  2  0  0  0  0  0  0
    8.9636   48.3148   53.2403 C   0  0  0  0  0  2  0  0  0  0  0  0
    7.8786   48.8729   54.1326 C   0  0  0  0  0  2  0  0  0  0  0  0
  1  2  1  0
  1 10  1  0
  3  4  1  0
  3  2  2  0
  5  4  2  0
  6  5  1  0
  7  6  2  0
  8  7  1  0
  8  9  1  0
  8  3  1  0
  9  1  1  0
 10 15  2  0
 11 13  2  0
 12 11  1  0
 14 10  1  0
 14 12  2  0
 15 13  1  0
 16  7  1  0
 17 16  1  0
 18 17  1  0
 19 17  1  0
 20 18  1  0
 21 19  1  0
 21 20  1  0
M  RAD  8   1   2   5   2   8   2  11   2  12   2  13   2  14   2  15   2
M  RAD  5  17   2  18   3  19   3  20   3  21   3
M  END
>  <REMARK>  (1) 
 SMILES c1ccc(-c2nc3ncnc(OC4CCCC4)c3[nH]2)cc1
 SMILES IDX 5 1 6 2 7 3 8 4 9 5 10 6 11 7 18 8 19 9 4 11 1 12 2 13 21 14
 SMILES IDX 3 15 20 16 12 17 13 18 14 19 17 20 15 21 16 22
 H PARENT 19 10

>  <TORSDO>  (1) 
F 3

$$$$
