/home/pchatterjee/Documents/git/vs_workflow/DiffDock/diffdock_run/pdbqt_scrubbed/49863194.pdbqt
     RDKit          3D

 21 24  0  0  1  0  0  0  0  0999 V2000
    6.0012   44.0221   48.9776 C   0  0  0  0  0  3  0  0  0  0  0  0
    7.3918   43.6377   48.7598 N   0  0  0  0  0  0  0  0  0  0  0  0
    8.1822   44.0712   49.6728 C   0  0  0  0  0  0  0  0  0  0  0  0
    9.5874   44.0103   49.9693 N   0  0  0  0  0  0  0  0  0  0  0  0
   10.0789   44.6301   50.9981 C   0  0  0  0  0  3  0  0  0  0  0  0
    9.2553   45.3758   51.8638 N   0  0  0  0  0  0  0  0  0  0  0  0
    7.9490   45.4822   51.6952 C   0  0  0  0  0  0  0  0  0  0  0  0
    7.3613   44.8193   50.6165 C   0  0  0  0  0  3  0  0  0  0  0  0
    6.1326   45.0635   50.0294 N   0  0  0  0  0  0  0  0  0  0  0  0
    5.1869   42.8930   49.4753 C   0  0  0  0  0  0  0  0  0  0  0  0
    3.7131   40.6522   50.3162 C   0  0  0  0  0  3  0  0  0  0  0  0
    4.6557   40.5410   49.3105 C   0  0  0  0  0  3  0  0  0  0  0  0
    3.5193   41.8889   50.8907 C   0  0  0  0  0  3  0  0  0  0  0  0
    5.3785   41.6521   48.9017 C   0  0  0  0  0  3  0  0  0  0  0  0
    4.2471   43.0078   50.4791 C   0  0  0  0  0  3  0  0  0  0  0  0
    7.2425   46.2466   52.6011 O   0  0  0  0  0  0  0  0  0  0  0  0
    7.6954   46.4533   53.9298 C   0  0  0  0  0  3  0  0  0  0  0  0
    9.1846   46.7933   53.7938 C   0  0  0  0  0  2  0  0  0  0  0  0
    7.0518   47.7792   54.3521 C   0  0  0  0  0  2  0  0  0  0  0  0
    9.1290   48.2044   53.2028 C   0  0  0  0  0  2  0  0  0  0  0  0
    8.0770   48.8537   54.0726 C   0  0  0  0  0  2  0  0  0  0  0  0
  1  2  1  0
  1 10  1  0
  3  4  1  0
  3  2  2  0
  5  4  2  0
  6  5  1  0
  7  6  2  0
  8  7  1  0
  8  9  1  0
  8  3  1  0
  9  1  1  0
 10 15  2  0
 11 13  2  0
 12 11  1  0
 14 10  1  0
 14 12  2  0
 15 13  1  0
 16  7  1  0
 17 16  1  0
 18 17  1  0
 19 17  1  0
 20 18  1  0
 21 19  1  0
 21 20  1  0
M  RAD  8   1   2   5   2   8   2  11   2  12   2  13   2  14   2  15   2
M  RAD  5  17   2  18   3  19   3  20   3  21   3
M  END
>  <REMARK>  (1) 
 SMILES c1ccc(-c2nc3ncnc(OC4CCCC4)c3[nH]2)cc1
 SMILES IDX 5 1 6 2 7 3 8 4 9 5 10 6 11 7 18 8 19 9 4 11 1 12 2 13 21 14
 SMILES IDX 3 15 20 16 12 17 13 18 14 19 17 20 15 21 16 22
 H PARENT 19 10

>  <TORSDO>  (1) 
F 3

$$$$
