/home/pchatterjee/Documents/git/vs_workflow/DiffDock/diffdock_run/pdbqt_scrubbed/49863194.pdbqt
     RDKit          3D

 21 24  0  0  1  0  0  0  0  0999 V2000
    5.9857   44.0241   49.0911 C   0  0  0  0  0  3  0  0  0  0  0  0
    7.3689   43.6349   48.8374 N   0  0  0  0  0  0  0  0  0  0  0  0
    8.1920   44.1152   49.6965 C   0  0  0  0  0  0  0  0  0  0  0  0
    9.6081   44.0741   49.9398 N   0  0  0  0  0  0  0  0  0  0  0  0
   10.1360   44.7449   50.9172 C   0  0  0  0  0  3  0  0  0  0  0  0
    9.3428   45.5286   51.7777 N   0  0  0  0  0  0  0  0  0  0  0  0
    8.0303   45.6218   51.6559 C   0  0  0  0  0  0  0  0  0  0  0  0
    7.4046   44.9051   50.6346 C   0  0  0  0  0  3  0  0  0  0  0  0
    6.1524   45.1159   50.0853 N   0  0  0  0  0  0  0  0  0  0  0  0
    5.1980   42.9174   49.6745 C   0  0  0  0  0  0  0  0  0  0  0  0
    3.7755   40.7136   50.6845 C   0  0  0  0  0  3  0  0  0  0  0  0
    4.7100   40.5503   49.6783 C   0  0  0  0  0  3  0  0  0  0  0  0
    3.5639   41.9833   51.1744 C   0  0  0  0  0  3  0  0  0  0  0  0
    5.4074   41.6436   49.1858 C   0  0  0  0  0  3  0  0  0  0  0  0
    4.2662   43.0842   50.6786 C   0  0  0  0  0  3  0  0  0  0  0  0
    7.3555   46.4266   52.5510 O   0  0  0  0  0  0  0  0  0  0  0  0
    7.7937   46.5996   53.8895 C   0  0  0  0  0  3  0  0  0  0  0  0
    9.2848   46.9403   53.7787 C   0  0  0  0  0  2  0  0  0  0  0  0
    7.1472   47.9158   54.3371 C   0  0  0  0  0  2  0  0  0  0  0  0
    9.2379   48.3657   53.2222 C   0  0  0  0  0  2  0  0  0  0  0  0
    8.1771   48.9951   54.0959 C   0  0  0  0  0  2  0  0  0  0  0  0
  1  2  1  0
  1 10  1  0
  3  4  1  0
  3  2  2  0
  5  4  2  0
  6  5  1  0
  7  6  2  0
  8  7  1  0
  8  9  1  0
  8  3  1  0
  9  1  1  0
 10 15  2  0
 11 13  2  0
 12 11  1  0
 14 10  1  0
 14 12  2  0
 15 13  1  0
 16  7  1  0
 17 16  1  0
 18 17  1  0
 19 17  1  0
 20 18  1  0
 21 19  1  0
 21 20  1  0
M  RAD  8   1   2   5   2   8   2  11   2  12   2  13   2  14   2  15   2
M  RAD  5  17   2  18   3  19   3  20   3  21   3
M  END
>  <REMARK>  (1) 
 SMILES c1ccc(-c2nc3ncnc(OC4CCCC4)c3[nH]2)cc1
 SMILES IDX 5 1 6 2 7 3 8 4 9 5 10 6 11 7 18 8 19 9 4 11 1 12 2 13 21 14
 SMILES IDX 3 15 20 16 12 17 13 18 14 19 17 20 15 21 16 22
 H PARENT 19 10

>  <TORSDO>  (1) 
F 3

$$$$
