/home/pchatterjee/Documents/git/vs_workflow/DiffDock/diffdock_run/pdbqt_scrubbed/49863194.pdbqt
     RDKit          3D

 21 24  0  0  1  0  0  0  0  0999 V2000
    6.1143   43.9438   48.9109 C   0  0  0  0  0  3  0  0  0  0  0  0
    7.4902   43.5175   48.6781 N   0  0  0  0  0  0  0  0  0  0  0  0
    8.3005   43.9132   49.5907 C   0  0  0  0  0  0  0  0  0  0  0  0
    9.7050   43.8029   49.8761 N   0  0  0  0  0  0  0  0  0  0  0  0
   10.2234   44.3929   50.9092 C   0  0  0  0  0  3  0  0  0  0  0  0
    9.4305   45.1534   51.7905 N   0  0  0  0  0  0  0  0  0  0  0  0
    8.1272   45.3042   51.6328 C   0  0  0  0  0  0  0  0  0  0  0  0
    7.5109   44.6750   50.5501 C   0  0  0  0  0  3  0  0  0  0  0  0
    6.2867   44.9665   49.9751 N   0  0  0  0  0  0  0  0  0  0  0  0
    5.2672   42.8352   49.4000 C   0  0  0  0  0  0  0  0  0  0  0  0
    3.7289   40.6319   50.2242 C   0  0  0  0  0  3  0  0  0  0  0  0
    4.6720   40.4996   49.2215 C   0  0  0  0  0  3  0  0  0  0  0  0
    3.5671   41.8707   50.8041 C   0  0  0  0  0  3  0  0  0  0  0  0
    5.4268   41.5923   48.8210 C   0  0  0  0  0  3  0  0  0  0  0  0
    4.3271   42.9711   50.4008 C   0  0  0  0  0  3  0  0  0  0  0  0
    7.4521   46.0791   52.5537 O   0  0  0  0  0  0  0  0  0  0  0  0
    7.9593   46.3157   53.8576 C   0  0  0  0  0  3  0  0  0  0  0  0
    9.4044   46.7825   53.6434 C   0  0  0  0  0  2  0  0  0  0  0  0
    7.2301   47.5794   54.3289 C   0  0  0  0  0  2  0  0  0  0  0  0
    9.1962   48.1872   53.0715 C   0  0  0  0  0  2  0  0  0  0  0  0
    8.1431   48.7391   54.0049 C   0  0  0  0  0  2  0  0  0  0  0  0
  1  2  1  0
  1 10  1  0
  3  4  1  0
  3  2  2  0
  5  4  2  0
  6  5  1  0
  7  6  2  0
  8  7  1  0
  8  9  1  0
  8  3  1  0
  9  1  1  0
 10 15  2  0
 11 13  2  0
 12 11  1  0
 14 10  1  0
 14 12  2  0
 15 13  1  0
 16  7  1  0
 17 16  1  0
 18 17  1  0
 19 17  1  0
 20 18  1  0
 21 19  1  0
 21 20  1  0
M  RAD  8   1   2   5   2   8   2  11   2  12   2  13   2  14   2  15   2
M  RAD  5  17   2  18   3  19   3  20   3  21   3
M  END
>  <REMARK>  (1) 
 SMILES c1ccc(-c2nc3ncnc(OC4CCCC4)c3[nH]2)cc1
 SMILES IDX 5 1 6 2 7 3 8 4 9 5 10 6 11 7 18 8 19 9 4 11 1 12 2 13 21 14
 SMILES IDX 3 15 20 16 12 17 13 18 14 19 17 20 15 21 16 22
 H PARENT 19 10

>  <TORSDO>  (1) 
F 3

$$$$
