/home/pchatterjee/Documents/git/vs_workflow/DiffDock/diffdock_run/pdbqt_scrubbed/49863194.pdbqt
     RDKit          3D

 21 24  0  0  1  0  0  0  0  0999 V2000
    5.9395   44.0331   49.0718 C   0  0  0  0  0  3  0  0  0  0  0  0
    7.3322   43.6540   48.8577 N   0  0  0  0  0  0  0  0  0  0  0  0
    8.1230   44.1165   49.7560 C   0  0  0  0  0  0  0  0  0  0  0  0
    9.5299   44.0739   50.0478 N   0  0  0  0  0  0  0  0  0  0  0  0
   10.0208   44.7232   51.0585 C   0  0  0  0  0  3  0  0  0  0  0  0
    9.1951   45.4841   51.9087 N   0  0  0  0  0  0  0  0  0  0  0  0
    7.8873   45.5762   51.7432 C   0  0  0  0  0  0  0  0  0  0  0  0
    7.3003   44.8818   50.6842 C   0  0  0  0  0  3  0  0  0  0  0  0
    6.0672   45.1017   50.0965 N   0  0  0  0  0  0  0  0  0  0  0  0
    5.1361   42.9106   49.6014 C   0  0  0  0  0  0  0  0  0  0  0  0
    3.5238   40.8828   50.6917 C   0  0  0  0  0  3  0  0  0  0  0  0
    3.3151   42.2082   51.0268 C   0  0  0  0  0  3  0  0  0  0  0  0
    4.5411   40.5881   49.8113 C   0  0  0  0  0  3  0  0  0  0  0  0
    4.1157   43.2024   50.4840 C   0  0  0  0  0  3  0  0  0  0  0  0
    5.3472   41.5892   49.2646 C   0  0  0  0  0  3  0  0  0  0  0  0
    7.1786   46.3577   52.6327 O   0  0  0  0  0  0  0  0  0  0  0  0
    7.6177   46.5728   53.9647 C   0  0  0  0  0  3  0  0  0  0  0  0
    9.0856   46.9975   53.8357 C   0  0  0  0  0  2  0  0  0  0  0  0
    6.9002   47.8551   54.4024 C   0  0  0  0  0  2  0  0  0  0  0  0
    8.9515   48.4107   53.2623 C   0  0  0  0  0  2  0  0  0  0  0  0
    7.8637   48.9889   54.1383 C   0  0  0  0  0  2  0  0  0  0  0  0
  1  2  1  0
  1 10  1  0
  3  4  1  0
  3  2  2  0
  5  4  2  0
  6  5  1  0
  7  6  2  0
  8  7  1  0
  8  9  1  0
  8  3  1  0
  9  1  1  0
 10 15  2  0
 11 13  2  0
 12 11  1  0
 14 10  1  0
 14 12  2  0
 15 13  1  0
 16  7  1  0
 17 16  1  0
 18 17  1  0
 19 17  1  0
 20 18  1  0
 21 19  1  0
 21 20  1  0
M  RAD  8   1   2   5   2   8   2  11   2  12   2  13   2  14   2  15   2
M  RAD  5  17   2  18   3  19   3  20   3  21   3
M  END
>  <REMARK>  (1) 
 SMILES c1ccc(-c2nc3ncnc(OC4CCCC4)c3[nH]2)cc1
 SMILES IDX 5 1 6 2 7 3 8 4 9 5 10 6 11 7 18 8 19 9 4 11 1 12 2 13 21 14
 SMILES IDX 3 15 20 16 12 17 13 18 14 19 17 20 15 21 16 22
 H PARENT 19 10

>  <TORSDO>  (1) 
F 3

$$$$
