/home/pchatterjee/Documents/git/vs_workflow/DiffDock/diffdock_run/pdbqt_scrubbed/5329552.pdbqt
     RDKit          3D

 25 28  0  0  1  0  0  0  0  0999 V2000
    7.7738   43.4174   49.3912 C   0  0  0  0  0  0  0  0  0  0  0  0
    6.6969   44.0067   50.1129 N   0  0  0  0  0  0  0  0  0  0  0  0
    6.8770   44.9937   50.9680 C   0  0  0  0  0  0  0  0  0  0  0  0
    8.1982   45.4728   51.1863 C   0  0  0  0  0  3  0  0  0  0  0  0
    8.5312   46.7830   51.5119 N   0  0  0  0  0  0  0  0  0  0  0  0
   10.0012   46.6475   51.7213 C   0  0  0  0  0  2  0  0  0  0  0  0
   10.3514   45.6014   50.7377 N   0  0  0  0  0  0  0  0  0  0  0  0
    9.2978   44.9205   50.4273 C   0  0  0  0  0  0  0  0  0  0  0  0
    9.0128   43.8326   49.5286 N   0  0  0  0  0  0  0  0  0  0  0  0
    7.5418   42.3391   48.4797 N   0  0  0  0  0  0  0  0  0  0  0  0
    6.2119   41.8203   48.3663 C   0  0  0  0  0  0  0  0  0  0  0  0
    4.0203   41.4049   49.2551 C   0  0  0  0  0  0  0  0  0  0  0  0
    3.6128   40.7849   48.0922 C   0  0  0  0  0  3  0  0  0  0  0  0
    5.2996   41.9186   49.4001 C   0  0  0  0  0  3  0  0  0  0  0  0
    4.5405   40.6972   47.0708 C   0  0  0  0  0  3  0  0  0  0  0  0
    5.8179   41.1946   47.1776 C   0  0  0  0  0  3  0  0  0  0  0  0
    2.8187   41.5780   50.7235 Br  0  0  0  0  0  0  0  0  0  0  0  0
    5.7870   45.5040   51.6100 O   0  0  0  0  0  0  0  0  0  0  0  0
    4.4478   45.0528   51.3581 C   0  0  0  0  0  2  0  0  0  0  0  0
    3.6735   45.3029   52.6376 C   0  0  0  0  0  3  0  0  0  0  0  0
    4.5529   45.0141   53.8297 C   0  0  0  0  0  2  0  0  0  0  0  0
    3.0892   46.7013   52.6997 C   0  0  0  0  0  2  0  0  0  0  0  0
    3.8538   45.4566   55.0946 C   0  0  0  0  0  2  0  0  0  0  0  0
    3.9391   47.4639   53.7147 C   0  0  0  0  0  2  0  0  0  0  0  0
    3.5377   46.9421   55.0980 C   0  0  0  0  0  2  0  0  0  0  0  0
  1  2  1  0
  1  9  2  0
  2  3  2  0
  3 18  1  0
  4  3  1  0
  4  5  1  0
  5  6  1  0
  7  6  1  0
  8  4  1  0
  8  7  2  0
  9  8  1  0
 10  1  1  0
 11 16  1  0
 11 10  1  0
 12 13  2  0
 12 14  1  0
 13 15  1  0
 14 11  2  0
 15 16  2  0
 17 12  1  0
 19 20  1  0
 19 18  1  0
 20 22  1  0
 21 23  1  0
 21 20  1  0
 22 24  1  0
 23 25  1  0
 25 24  1  0
M  RAD  8   4   2   6   3  13   2  14   2  15   2  16   2  19   3  20   2
M  RAD  5  21   3  22   3  23   3  24   3  25   3
M  END
>  <REMARK>  (1) 
 SMILES Brc1cccc(Nc2nc(OCC3CCCCC3)c3[nH]cnc3n2)c1
 SMILES IDX 8 1 9 2 10 3 19 4 20 5 21 6 22 7 23 8 24 9 7 11 6 13 2 14
 SMILES IDX 3 15 25 16 4 17 5 18 1 19 11 20 12 21 13 22 14 23 18 24
 SMILES IDX 15 25 17 26 16 27
 H PARENT 20 10 7 12

>  <TORSDO>  (1) 
F 5

$$$$
