/home/pchatterjee/Documents/git/vs_workflow/DiffDock/diffdock_run/pdbqt_scrubbed/5329552.pdbqt
     RDKit          3D

 25 28  0  0  1  0  0  0  0  0999 V2000
    7.7763   43.4271   49.3622 C   0  0  0  0  0  0  0  0  0  0  0  0
    6.7598   44.0757   50.1198 N   0  0  0  0  0  0  0  0  0  0  0  0
    7.0260   45.0420   50.9761 C   0  0  0  0  0  0  0  0  0  0  0  0
    8.3803   45.4361   51.1584 C   0  0  0  0  0  3  0  0  0  0  0  0
    8.8037   46.7202   51.4832 N   0  0  0  0  0  0  0  0  0  0  0  0
   10.2679   46.4919   51.6478 C   0  0  0  0  0  2  0  0  0  0  0  0
   10.5233   45.4348   50.6469 N   0  0  0  0  0  0  0  0  0  0  0  0
    9.4207   44.8235   50.3632 C   0  0  0  0  0  0  0  0  0  0  0  0
    9.0423   43.7633   49.4656 N   0  0  0  0  0  0  0  0  0  0  0  0
    7.4510   42.3735   48.4504 N   0  0  0  0  0  0  0  0  0  0  0  0
    6.0782   41.9866   48.3220 C   0  0  0  0  0  0  0  0  0  0  0  0
    3.8627   41.7227   49.2096 C   0  0  0  0  0  0  0  0  0  0  0  0
    3.3931   41.2124   48.0173 C   0  0  0  0  0  3  0  0  0  0  0  0
    5.1849   42.1073   49.3698 C   0  0  0  0  0  3  0  0  0  0  0  0
    4.3027   41.1001   46.9822 C   0  0  0  0  0  3  0  0  0  0  0  0
    5.6212   41.4709   47.1034 C   0  0  0  0  0  3  0  0  0  0  0  0
    2.6908   41.9188   50.6989 Br  0  0  0  0  0  0  0  0  0  0  0  0
    5.9892   45.6133   51.6538 O   0  0  0  0  0  0  0  0  0  0  0  0
    4.6771   45.0339   51.7103 C   0  0  0  0  0  2  0  0  0  0  0  0
    3.8756   45.9032   52.6596 C   0  0  0  0  0  3  0  0  0  0  0  0
    2.5246   46.2035   52.0575 C   0  0  0  0  0  2  0  0  0  0  0  0
    3.7481   45.2907   54.0415 C   0  0  0  0  0  2  0  0  0  0  0  0
    1.6543   46.8928   53.0830 C   0  0  0  0  0  2  0  0  0  0  0  0
    2.3053   44.7997   54.1487 C   0  0  0  0  0  2  0  0  0  0  0  0
    1.4331   46.0468   54.3248 C   0  0  0  0  0  2  0  0  0  0  0  0
  1  2  1  0
  1  9  2  0
  2  3  2  0
  3 18  1  0
  4  3  1  0
  4  5  1  0
  5  6  1  0
  7  6  1  0
  8  4  1  0
  8  7  2  0
  9  8  1  0
 10  1  1  0
 11 16  1  0
 11 10  1  0
 12 13  2  0
 12 14  1  0
 13 15  1  0
 14 11  2  0
 15 16  2  0
 17 12  1  0
 19 20  1  0
 19 18  1  0
 20 22  1  0
 21 23  1  0
 21 20  1  0
 22 24  1  0
 23 25  1  0
 25 24  1  0
M  RAD  8   4   2   6   3  13   2  14   2  15   2  16   2  19   3  20   2
M  RAD  5  21   3  22   3  23   3  24   3  25   3
M  END
>  <REMARK>  (1) 
 SMILES Brc1cccc(Nc2nc(OCC3CCCCC3)c3[nH]cnc3n2)c1
 SMILES IDX 8 1 9 2 10 3 19 4 20 5 21 6 22 7 23 8 24 9 7 11 6 13 2 14
 SMILES IDX 3 15 25 16 4 17 5 18 1 19 11 20 12 21 13 22 14 23 18 24
 SMILES IDX 15 25 17 26 16 27
 H PARENT 20 10 7 12

>  <TORSDO>  (1) 
F 5

$$$$
