/home/pchatterjee/Documents/git/vs_workflow/DiffDock/diffdock_run/pdbqt_scrubbed/5329552.pdbqt
     RDKit          3D

 25 28  0  0  1  0  0  0  0  0999 V2000
    7.9950   43.1097   49.4139 C   0  0  0  0  0  0  0  0  0  0  0  0
    6.9133   43.7670   50.0664 N   0  0  0  0  0  0  0  0  0  0  0  0
    7.0943   44.7987   50.8669 C   0  0  0  0  0  0  0  0  0  0  0  0
    8.4206   45.2576   51.0969 C   0  0  0  0  0  3  0  0  0  0  0  0
    8.7781   46.5764   51.3547 N   0  0  0  0  0  0  0  0  0  0  0  0
   10.2374   46.4179   51.6165 C   0  0  0  0  0  2  0  0  0  0  0  0
   10.5886   45.3067   50.7075 N   0  0  0  0  0  0  0  0  0  0  0  0
    9.5270   44.6344   50.4058 C   0  0  0  0  0  0  0  0  0  0  0  0
    9.2400   43.5020   49.5644 N   0  0  0  0  0  0  0  0  0  0  0  0
    7.7615   41.9848   48.5608 N   0  0  0  0  0  0  0  0  0  0  0  0
    6.4069   41.6030   48.2965 C   0  0  0  0  0  0  0  0  0  0  0  0
    4.0853   41.4886   48.8987 C   0  0  0  0  0  0  0  0  0  0  0  0
    3.7640   40.8316   47.7292 C   0  0  0  0  0  3  0  0  0  0  0  0
    5.3854   41.8731   49.1876 C   0  0  0  0  0  3  0  0  0  0  0  0
    4.8002   40.5711   46.8518 C   0  0  0  0  0  3  0  0  0  0  0  0
    6.1016   40.9369   47.1037 C   0  0  0  0  0  3  0  0  0  0  0  0
    2.7310   41.8956   50.1754 Br  0  0  0  0  0  0  0  0  0  0  0  0
    5.9997   45.3728   51.4440 O   0  0  0  0  0  0  0  0  0  0  0  0
    4.7208   44.7248   51.5131 C   0  0  0  0  0  2  0  0  0  0  0  0
    3.9249   45.4789   52.5606 C   0  0  0  0  0  3  0  0  0  0  0  0
    3.1172   46.5690   51.8995 C   0  0  0  0  0  2  0  0  0  0  0  0
    3.0503   44.5638   53.3965 C   0  0  0  0  0  2  0  0  0  0  0  0
    2.1736   47.1833   52.9077 C   0  0  0  0  0  2  0  0  0  0  0  0
    1.6182   44.8102   52.9247 C   0  0  0  0  0  2  0  0  0  0  0  0
    1.2019   46.1717   53.4901 C   0  0  0  0  0  2  0  0  0  0  0  0
  1  2  1  0
  1  9  2  0
  2  3  2  0
  3 18  1  0
  4  3  1  0
  4  5  1  0
  5  6  1  0
  7  6  1  0
  8  4  1  0
  8  7  2  0
  9  8  1  0
 10  1  1  0
 11 16  1  0
 11 10  1  0
 12 13  2  0
 12 14  1  0
 13 15  1  0
 14 11  2  0
 15 16  2  0
 17 12  1  0
 19 20  1  0
 19 18  1  0
 20 22  1  0
 21 23  1  0
 21 20  1  0
 22 24  1  0
 23 25  1  0
 25 24  1  0
M  RAD  8   4   2   6   3  13   2  14   2  15   2  16   2  19   3  20   2
M  RAD  5  21   3  22   3  23   3  24   3  25   3
M  END
>  <REMARK>  (1) 
 SMILES Brc1cccc(Nc2nc(OCC3CCCCC3)c3[nH]cnc3n2)c1
 SMILES IDX 8 1 9 2 10 3 19 4 20 5 21 6 22 7 23 8 24 9 7 11 6 13 2 14
 SMILES IDX 3 15 25 16 4 17 5 18 1 19 11 20 12 21 13 22 14 23 18 24
 SMILES IDX 15 25 17 26 16 27
 H PARENT 20 10 7 12

>  <TORSDO>  (1) 
F 5

$$$$
