/home/pchatterjee/Documents/git/vs_workflow/DiffDock/diffdock_run/pdbqt_scrubbed/5329552.pdbqt
     RDKit          3D

 25 28  0  0  1  0  0  0  0  0999 V2000
    7.7567   43.2967   49.3738 C   0  0  0  0  0  0  0  0  0  0  0  0
    6.6804   43.8837   50.0983 N   0  0  0  0  0  0  0  0  0  0  0  0
    6.8566   44.8895   50.9321 C   0  0  0  0  0  0  0  0  0  0  0  0
    8.1730   45.3922   51.1240 C   0  0  0  0  0  3  0  0  0  0  0  0
    8.4904   46.7132   51.4203 N   0  0  0  0  0  0  0  0  0  0  0  0
    9.9648   46.6036   51.6129 C   0  0  0  0  0  2  0  0  0  0  0  0
   10.3181   45.5441   50.6449 N   0  0  0  0  0  0  0  0  0  0  0  0
    9.2711   44.8419   50.3613 C   0  0  0  0  0  0  0  0  0  0  0  0
    8.9910   43.7328   49.4871 N   0  0  0  0  0  0  0  0  0  0  0  0
    7.5294   42.1979   48.4860 N   0  0  0  0  0  0  0  0  0  0  0  0
    6.1864   41.7320   48.3125 C   0  0  0  0  0  0  0  0  0  0  0  0
    3.9407   41.4101   49.0992 C   0  0  0  0  0  0  0  0  0  0  0  0
    3.5635   40.7998   47.9211 C   0  0  0  0  0  3  0  0  0  0  0  0
    5.2315   41.8731   49.3018 C   0  0  0  0  0  3  0  0  0  0  0  0
    4.5336   40.6686   46.9448 C   0  0  0  0  0  3  0  0  0  0  0  0
    5.8236   41.1152   47.1093 C   0  0  0  0  0  3  0  0  0  0  0  0
    2.6797   41.6403   50.5086 Br  0  0  0  0  0  0  0  0  0  0  0  0
    5.7672   45.3957   51.5785 O   0  0  0  0  0  0  0  0  0  0  0  0
    4.4181   45.0751   51.2078 C   0  0  0  0  0  2  0  0  0  0  0  0
    3.6370   44.9860   52.5045 C   0  0  0  0  0  3  0  0  0  0  0  0
    4.5882   45.0237   53.6756 C   0  0  0  0  0  2  0  0  0  0  0  0
    2.5705   46.0589   52.6158 C   0  0  0  0  0  2  0  0  0  0  0  0
    3.8040   45.1414   54.9622 C   0  0  0  0  0  2  0  0  0  0  0  0
    3.0942   47.0628   53.6414 C   0  0  0  0  0  2  0  0  0  0  0  0
    2.9517   46.3974   55.0139 C   0  0  0  0  0  2  0  0  0  0  0  0
  1  2  1  0
  1  9  2  0
  2  3  2  0
  3 18  1  0
  4  3  1  0
  4  5  1  0
  5  6  1  0
  7  6  1  0
  8  4  1  0
  8  7  2  0
  9  8  1  0
 10  1  1  0
 11 16  1  0
 11 10  1  0
 12 13  2  0
 12 14  1  0
 13 15  1  0
 14 11  2  0
 15 16  2  0
 17 12  1  0
 19 20  1  0
 19 18  1  0
 20 22  1  0
 21 23  1  0
 21 20  1  0
 22 24  1  0
 23 25  1  0
 25 24  1  0
M  RAD  8   4   2   6   3  13   2  14   2  15   2  16   2  19   3  20   2
M  RAD  5  21   3  22   3  23   3  24   3  25   3
M  END
>  <REMARK>  (1) 
 SMILES Brc1cccc(Nc2nc(OCC3CCCCC3)c3[nH]cnc3n2)c1
 SMILES IDX 8 1 9 2 10 3 19 4 20 5 21 6 22 7 23 8 24 9 7 11 6 13 2 14
 SMILES IDX 3 15 25 16 4 17 5 18 1 19 11 20 12 21 13 22 14 23 18 24
 SMILES IDX 15 25 17 26 16 27
 H PARENT 20 10 7 12

>  <TORSDO>  (1) 
F 5

$$$$
