/home/pchatterjee/Documents/git/vs_workflow/DiffDock/diffdock_run/pdbqt_scrubbed/5329552.pdbqt
     RDKit          3D

 25 28  0  0  1  0  0  0  0  0999 V2000
    7.8248   43.6071   49.2904 C   0  0  0  0  0  0  0  0  0  0  0  0
    6.8044   44.2515   50.0463 N   0  0  0  0  0  0  0  0  0  0  0  0
    7.0674   45.2049   50.9180 C   0  0  0  0  0  0  0  0  0  0  0  0
    8.4220   45.5887   51.1191 C   0  0  0  0  0  3  0  0  0  0  0  0
    8.8494   46.8658   51.4651 N   0  0  0  0  0  0  0  0  0  0  0  0
   10.3105   46.6268   51.6414 C   0  0  0  0  0  2  0  0  0  0  0  0
   10.5700   45.5816   50.6292 N   0  0  0  0  0  0  0  0  0  0  0  0
    9.4669   44.9805   50.3263 C   0  0  0  0  0  0  0  0  0  0  0  0
    9.0916   43.9345   49.4110 N   0  0  0  0  0  0  0  0  0  0  0  0
    7.5027   42.5675   48.3615 N   0  0  0  0  0  0  0  0  0  0  0  0
    6.1554   42.0840   48.3242 C   0  0  0  0  0  0  0  0  0  0  0  0
    4.0630   41.5675   49.3830 C   0  0  0  0  0  0  0  0  0  0  0  0
    3.5159   41.1253   48.1965 C   0  0  0  0  0  3  0  0  0  0  0  0
    5.3634   42.0420   49.4563 C   0  0  0  0  0  3  0  0  0  0  0  0
    4.3247   41.1757   47.0763 C   0  0  0  0  0  3  0  0  0  0  0  0
    5.6187   41.6396   47.1100 C   0  0  0  0  0  3  0  0  0  0  0  0
    3.0326   41.5402   50.9853 Br  0  0  0  0  0  0  0  0  0  0  0  0
    6.0270   45.7732   51.5926 O   0  0  0  0  0  0  0  0  0  0  0  0
    4.7225   45.1786   51.6645 C   0  0  0  0  0  2  0  0  0  0  0  0
    3.9604   45.9653   52.7132 C   0  0  0  0  0  3  0  0  0  0  0  0
    2.5453   46.2008   52.2445 C   0  0  0  0  0  2  0  0  0  0  0  0
    3.9946   45.3015   54.0768 C   0  0  0  0  0  2  0  0  0  0  0  0
    1.7323   46.8013   53.3683 C   0  0  0  0  0  2  0  0  0  0  0  0
    2.5988   44.7190   54.2922 C   0  0  0  0  0  2  0  0  0  0  0  0
    1.6744   45.9033   54.5917 C   0  0  0  0  0  2  0  0  0  0  0  0
  1  2  1  0
  1  9  2  0
  2  3  2  0
  3 18  1  0
  4  3  1  0
  4  5  1  0
  5  6  1  0
  7  6  1  0
  8  4  1  0
  8  7  2  0
  9  8  1  0
 10  1  1  0
 11 16  1  0
 11 10  1  0
 12 13  2  0
 12 14  1  0
 13 15  1  0
 14 11  2  0
 15 16  2  0
 17 12  1  0
 19 20  1  0
 19 18  1  0
 20 22  1  0
 21 23  1  0
 21 20  1  0
 22 24  1  0
 23 25  1  0
 25 24  1  0
M  RAD  8   4   2   6   3  13   2  14   2  15   2  16   2  19   3  20   2
M  RAD  5  21   3  22   3  23   3  24   3  25   3
M  END
>  <REMARK>  (1) 
 SMILES Brc1cccc(Nc2nc(OCC3CCCCC3)c3[nH]cnc3n2)c1
 SMILES IDX 8 1 9 2 10 3 19 4 20 5 21 6 22 7 23 8 24 9 7 11 6 13 2 14
 SMILES IDX 3 15 25 16 4 17 5 18 1 19 11 20 12 21 13 22 14 23 18 24
 SMILES IDX 15 25 17 26 16 27
 H PARENT 20 10 7 12

>  <TORSDO>  (1) 
F 5

$$$$
