/home/pchatterjee/Documents/git/vs_workflow/DiffDock/diffdock_run/pdbqt_scrubbed/5329552.pdbqt
     RDKit          3D

 25 28  0  0  1  0  0  0  0  0999 V2000
    7.8554   43.2977   49.5329 C   0  0  0  0  0  0  0  0  0  0  0  0
    6.7889   43.9670   50.1981 N   0  0  0  0  0  0  0  0  0  0  0  0
    6.9962   44.9482   51.0538 C   0  0  0  0  0  0  0  0  0  0  0  0
    8.3355   45.3376   51.3316 C   0  0  0  0  0  3  0  0  0  0  0  0
    8.7426   46.6251   51.6635 N   0  0  0  0  0  0  0  0  0  0  0  0
   10.1882   46.3911   51.9439 C   0  0  0  0  0  2  0  0  0  0  0  0
   10.5113   45.3133   50.9858 N   0  0  0  0  0  0  0  0  0  0  0  0
    9.4290   44.7032   50.6302 C   0  0  0  0  0  0  0  0  0  0  0  0
    9.1123   43.6281   49.7266 N   0  0  0  0  0  0  0  0  0  0  0  0
    7.5928   42.2284   48.6191 N   0  0  0  0  0  0  0  0  0  0  0  0
    6.2346   41.8164   48.4286 C   0  0  0  0  0  0  0  0  0  0  0  0
    3.9815   41.5305   49.2082 C   0  0  0  0  0  0  0  0  0  0  0  0
    3.5811   40.9919   48.0031 C   0  0  0  0  0  3  0  0  0  0  0  0
    5.2875   41.9400   49.4278 C   0  0  0  0  0  3  0  0  0  0  0  0
    4.5436   40.8771   47.0173 C   0  0  0  0  0  3  0  0  0  0  0  0
    5.8483   41.2721   47.1981 C   0  0  0  0  0  3  0  0  0  0  0  0
    2.7327   41.7323   50.6328 Br  0  0  0  0  0  0  0  0  0  0  0  0
    5.9149   45.5389   51.6391 O   0  0  0  0  0  0  0  0  0  0  0  0
    4.5630   45.2654   51.2418 C   0  0  0  0  0  2  0  0  0  0  0  0
    3.8200   44.8948   52.5106 C   0  0  0  0  0  3  0  0  0  0  0  0
    4.4966   45.5298   53.7009 C   0  0  0  0  0  2  0  0  0  0  0  0
    2.3473   45.2530   52.4478 C   0  0  0  0  0  2  0  0  0  0  0  0
    3.6449   45.3318   54.9337 C   0  0  0  0  0  2  0  0  0  0  0  0
    2.1746   46.4687   53.3569 C   0  0  0  0  0  2  0  0  0  0  0  0
    2.2655   45.9522   54.7963 C   0  0  0  0  0  2  0  0  0  0  0  0
  1  2  1  0
  1  9  2  0
  2  3  2  0
  3 18  1  0
  4  3  1  0
  4  5  1  0
  5  6  1  0
  7  6  1  0
  8  4  1  0
  8  7  2  0
  9  8  1  0
 10  1  1  0
 11 16  1  0
 11 10  1  0
 12 13  2  0
 12 14  1  0
 13 15  1  0
 14 11  2  0
 15 16  2  0
 17 12  1  0
 19 20  1  0
 19 18  1  0
 20 22  1  0
 21 23  1  0
 21 20  1  0
 22 24  1  0
 23 25  1  0
 25 24  1  0
M  RAD  8   4   2   6   3  13   2  14   2  15   2  16   2  19   3  20   2
M  RAD  5  21   3  22   3  23   3  24   3  25   3
M  END
>  <REMARK>  (1) 
 SMILES Brc1cccc(Nc2nc(OCC3CCCCC3)c3[nH]cnc3n2)c1
 SMILES IDX 8 1 9 2 10 3 19 4 20 5 21 6 22 7 23 8 24 9 7 11 6 13 2 14
 SMILES IDX 3 15 25 16 4 17 5 18 1 19 11 20 12 21 13 22 14 23 18 24
 SMILES IDX 15 25 17 26 16 27
 H PARENT 20 10 7 12

>  <TORSDO>  (1) 
F 5

$$$$
