/home/pchatterjee/Documents/git/vs_workflow/DiffDock/diffdock_run/pdbqt_scrubbed/5329552.pdbqt
     RDKit          3D

 25 28  0  0  1  0  0  0  0  0999 V2000
    7.6301   43.6396   49.5422 C   0  0  0  0  0  0  0  0  0  0  0  0
    6.6132   44.3417   50.2499 N   0  0  0  0  0  0  0  0  0  0  0  0
    6.8845   45.3299   51.0793 C   0  0  0  0  0  0  0  0  0  0  0  0
    8.2442   45.6933   51.2836 C   0  0  0  0  0  3  0  0  0  0  0  0
    8.6951   46.9759   51.5751 N   0  0  0  0  0  0  0  0  0  0  0  0
   10.1477   46.7139   51.7861 C   0  0  0  0  0  2  0  0  0  0  0  0
   10.3987   45.6158   50.8292 N   0  0  0  0  0  0  0  0  0  0  0  0
    9.2870   45.0251   50.5377 C   0  0  0  0  0  0  0  0  0  0  0  0
    8.9020   43.9447   49.6674 N   0  0  0  0  0  0  0  0  0  0  0  0
    7.2986   42.5639   48.6588 N   0  0  0  0  0  0  0  0  0  0  0  0
    5.9254   42.1722   48.5515 C   0  0  0  0  0  0  0  0  0  0  0  0
    3.6835   42.0640   49.4047 C   0  0  0  0  0  0  0  0  0  0  0  0
    3.2407   41.3805   48.2915 C   0  0  0  0  0  3  0  0  0  0  0  0
    5.0052   42.4587   49.5423 C   0  0  0  0  0  3  0  0  0  0  0  0
    4.1770   41.1039   47.3125 C   0  0  0  0  0  3  0  0  0  0  0  0
    5.4960   41.4791   47.4136 C   0  0  0  0  0  3  0  0  0  0  0  0
    2.4736   42.4948   50.8120 Br  0  0  0  0  0  0  0  0  0  0  0  0
    5.8472   45.9525   51.7092 O   0  0  0  0  0  0  0  0  0  0  0  0
    4.4838   45.8339   51.2764 C   0  0  0  0  0  2  0  0  0  0  0  0
    3.7358   45.1793   52.4216 C   0  0  0  0  0  3  0  0  0  0  0  0
    4.1544   45.8074   53.7284 C   0  0  0  0  0  2  0  0  0  0  0  0
    2.2311   45.2260   52.2355 C   0  0  0  0  0  2  0  0  0  0  0  0
    3.2661   45.3017   54.8417 C   0  0  0  0  0  2  0  0  0  0  0  0
    1.7206   46.2715   53.2257 C   0  0  0  0  0  2  0  0  0  0  0  0
    1.8009   45.6309   54.6149 C   0  0  0  0  0  2  0  0  0  0  0  0
  1  2  1  0
  1  9  2  0
  2  3  2  0
  3 18  1  0
  4  3  1  0
  4  5  1  0
  5  6  1  0
  7  6  1  0
  8  4  1  0
  8  7  2  0
  9  8  1  0
 10  1  1  0
 11 16  1  0
 11 10  1  0
 12 13  2  0
 12 14  1  0
 13 15  1  0
 14 11  2  0
 15 16  2  0
 17 12  1  0
 19 20  1  0
 19 18  1  0
 20 22  1  0
 21 23  1  0
 21 20  1  0
 22 24  1  0
 23 25  1  0
 25 24  1  0
M  RAD  8   4   2   6   3  13   2  14   2  15   2  16   2  19   3  20   2
M  RAD  5  21   3  22   3  23   3  24   3  25   3
M  END
>  <REMARK>  (1) 
 SMILES Brc1cccc(Nc2nc(OCC3CCCCC3)c3[nH]cnc3n2)c1
 SMILES IDX 8 1 9 2 10 3 19 4 20 5 21 6 22 7 23 8 24 9 7 11 6 13 2 14
 SMILES IDX 3 15 25 16 4 17 5 18 1 19 11 20 12 21 13 22 14 23 18 24
 SMILES IDX 15 25 17 26 16 27
 H PARENT 20 10 7 12

>  <TORSDO>  (1) 
F 5

$$$$
