/home/pchatterjee/Documents/git/vs_workflow/DiffDock/diffdock_run/pdbqt_scrubbed/5329552.pdbqt
     RDKit          3D

 25 28  0  0  1  0  0  0  0  0999 V2000
   -1.1219   82.8389  338.1287 C   0  0  0  0  0  0  0  0  0  0  0  0
   -2.4096   82.4328  338.5813 N   0  0  0  0  0  0  0  0  0  0  0  0
   -3.1643   81.5930  337.9008 C   0  0  0  0  0  0  0  0  0  0  0  0
   -2.6774   81.0899  336.6628 C   0  0  0  0  0  3  0  0  0  0  0  0
   -2.9704   79.8364  336.1371 N   0  0  0  0  0  0  0  0  0  0  0  0
   -2.2911   79.9295  334.8131 C   0  0  0  0  0  2  0  0  0  0  0  0
   -1.1244   80.7793  335.1312 N   0  0  0  0  0  0  0  0  0  0  0  0
   -1.3528   81.4522  336.2105 C   0  0  0  0  0  0  0  0  0  0  0  0
   -0.6051   82.3896  337.0074 N   0  0  0  0  0  0  0  0  0  0  0  0
   -0.3356   83.7619  338.8885 N   0  0  0  0  0  0  0  0  0  0  0  0
    0.3996   83.2634  340.0117 C   0  0  0  0  0  0  0  0  0  0  0  0
    2.4607   82.7646  341.1381 C   0  0  0  0  0  0  0  0  0  0  0  0
    1.7952   82.2736  342.2421 C   0  0  0  0  0  3  0  0  0  0  0  0
    1.7817   83.2549  340.0336 C   0  0  0  0  0  3  0  0  0  0  0  0
    0.4134   82.2912  342.2000 C   0  0  0  0  0  3  0  0  0  0  0  0
   -0.2946   82.7694  341.1224 C   0  0  0  0  0  3  0  0  0  0  0  0
    4.3653   82.7854  341.0952 Br  0  0  0  0  0  0  0  0  0  0  0  0
   -4.3816   81.2522  338.4131 O   0  0  0  0  0  0  0  0  0  0  0  0
   -5.1245   80.1067  337.9702 C   0  0  0  0  0  2  0  0  0  0  0  0
   -4.1197   78.9777  337.8462 C   0  0  0  0  0  3  0  0  0  0  0  0
   -4.8202   77.7198  337.3940 C   0  0  0  0  0  2  0  0  0  0  0  0
   -2.9590   79.3297  336.9354 C   0  0  0  0  0  2  0  0  0  0  0  0
   -3.7955   76.6557  337.0744 C   0  0  0  0  0  2  0  0  0  0  0  0
   -3.1823   78.5356  335.6495 C   0  0  0  0  0  2  0  0  0  0  0  0
   -2.8391   77.0781  335.9728 C   0  0  0  0  0  2  0  0  0  0  0  0
  1  2  1  0
  1  9  2  0
  2  3  2  0
  3 18  1  0
  4  3  1  0
  4  5  1  0
  5  6  1  0
  7  6  1  0
  8  4  1  0
  8  7  2  0
  9  8  1  0
 10  1  1  0
 11 16  1  0
 11 10  1  0
 12 13  2  0
 12 14  1  0
 13 15  1  0
 14 11  2  0
 15 16  2  0
 17 12  1  0
 19 20  1  0
 19 18  1  0
 20 22  1  0
 21 23  1  0
 21 20  1  0
 22 24  1  0
 23 25  1  0
 25 24  1  0
M  RAD  8   4   2   6   3  13   2  14   2  15   2  16   2  19   3  20   2
M  RAD  5  21   3  22   3  23   3  24   3  25   3
M  END
>  <REMARK>  (1) 
 SMILES Brc1cccc(Nc2nc(OCC3CCCCC3)c3[nH]cnc3n2)c1
 SMILES IDX 8 1 9 2 10 3 19 4 20 5 21 6 22 7 23 8 24 9 7 11 6 13 2 14
 SMILES IDX 3 15 25 16 4 17 5 18 1 19 11 20 12 21 13 22 14 23 18 24
 SMILES IDX 15 25 17 26 16 27
 H PARENT 20 10 7 12

>  <TORSDO>  (1) 
F 5

$$$$
