/home/pchatterjee/Documents/git/vs_workflow/DiffDock/diffdock_run/pdbqt_scrubbed/5329552.pdbqt
     RDKit          3D

 25 28  0  0  1  0  0  0  0  0999 V2000
    7.8550   43.1171   49.6099 C   0  0  0  0  0  0  0  0  0  0  0  0
    6.7639   43.7829   50.2376 N   0  0  0  0  0  0  0  0  0  0  0  0
    6.9301   44.8453   51.0003 C   0  0  0  0  0  0  0  0  0  0  0  0
    8.2498   45.3303   51.2139 C   0  0  0  0  0  3  0  0  0  0  0  0
    8.5892   46.6623   51.4238 N   0  0  0  0  0  0  0  0  0  0  0  0
   10.0502   46.5334   51.6918 C   0  0  0  0  0  2  0  0  0  0  0  0
   10.4173   45.3948   50.8239 N   0  0  0  0  0  0  0  0  0  0  0  0
    9.3652   44.6976   50.5463 C   0  0  0  0  0  0  0  0  0  0  0  0
    9.0944   43.5315   49.7465 N   0  0  0  0  0  0  0  0  0  0  0  0
    7.6376   41.9589   48.7981 N   0  0  0  0  0  0  0  0  0  0  0  0
    6.2885   41.5517   48.5440 C   0  0  0  0  0  0  0  0  0  0  0  0
    3.9829   41.3516   49.1842 C   0  0  0  0  0  0  0  0  0  0  0  0
    3.6558   40.7327   47.9956 C   0  0  0  0  0  3  0  0  0  0  0  0
    5.2779   41.7590   49.4640 C   0  0  0  0  0  3  0  0  0  0  0  0
    4.6811   40.5349   47.0894 C   0  0  0  0  0  3  0  0  0  0  0  0
    5.9772   40.9251   47.3314 C   0  0  0  0  0  3  0  0  0  0  0  0
    2.6437   41.6715   50.5011 Br  0  0  0  0  0  0  0  0  0  0  0  0
    5.8273   45.4249   51.5557 O   0  0  0  0  0  0  0  0  0  0  0  0
    4.5563   44.7640   51.6444 C   0  0  0  0  0  2  0  0  0  0  0  0
    3.7519   45.5381   52.6705 C   0  0  0  0  0  3  0  0  0  0  0  0
    2.5613   46.1827   52.0036 C   0  0  0  0  0  2  0  0  0  0  0  0
    3.3353   44.6804   53.8503 C   0  0  0  0  0  2  0  0  0  0  0  0
    1.6530   46.7793   53.0540 C   0  0  0  0  0  2  0  0  0  0  0  0
    1.8383   44.4300   53.6758 C   0  0  0  0  0  2  0  0  0  0  0  0
    1.1329   45.7419   54.0338 C   0  0  0  0  0  2  0  0  0  0  0  0
  1  2  1  0
  1  9  2  0
  2  3  2  0
  3 18  1  0
  4  3  1  0
  4  5  1  0
  5  6  1  0
  7  6  1  0
  8  4  1  0
  8  7  2  0
  9  8  1  0
 10  1  1  0
 11 16  1  0
 11 10  1  0
 12 13  2  0
 12 14  1  0
 13 15  1  0
 14 11  2  0
 15 16  2  0
 17 12  1  0
 19 20  1  0
 19 18  1  0
 20 22  1  0
 21 23  1  0
 21 20  1  0
 22 24  1  0
 23 25  1  0
 25 24  1  0
M  RAD  8   4   2   6   3  13   2  14   2  15   2  16   2  19   3  20   2
M  RAD  5  21   3  22   3  23   3  24   3  25   3
M  END
>  <REMARK>  (1) 
 SMILES Brc1cccc(Nc2nc(OCC3CCCCC3)c3[nH]cnc3n2)c1
 SMILES IDX 8 1 9 2 10 3 19 4 20 5 21 6 22 7 23 8 24 9 7 11 6 13 2 14
 SMILES IDX 3 15 25 16 4 17 5 18 1 19 11 20 12 21 13 22 14 23 18 24
 SMILES IDX 15 25 17 26 16 27
 H PARENT 20 10 7 12

>  <TORSDO>  (1) 
F 5

$$$$
