/home/pchatterjee/Documents/git/vs_workflow/DiffDock/diffdock_run/pdbqt_scrubbed/5329552.pdbqt
     RDKit          3D

 25 28  0  0  1  0  0  0  0  0999 V2000
    7.7730   43.3398   49.2368 C   0  0  0  0  0  0  0  0  0  0  0  0
    6.8104   43.9871   50.0628 N   0  0  0  0  0  0  0  0  0  0  0  0
    7.1353   44.9482   50.9047 C   0  0  0  0  0  0  0  0  0  0  0  0
    8.4998   45.3377   50.9995 C   0  0  0  0  0  3  0  0  0  0  0  0
    8.9476   46.6188   51.3023 N   0  0  0  0  0  0  0  0  0  0  0  0
   10.4188   46.3856   51.3691 C   0  0  0  0  0  2  0  0  0  0  0  0
   10.6046   45.3332   50.3483 N   0  0  0  0  0  0  0  0  0  0  0  0
    9.4838   44.7263   50.1345 C   0  0  0  0  0  0  0  0  0  0  0  0
    9.0440   43.6720   49.2584 N   0  0  0  0  0  0  0  0  0  0  0  0
    7.3852   42.2918   48.3429 N   0  0  0  0  0  0  0  0  0  0  0  0
    6.0151   41.8755   48.3389 C   0  0  0  0  0  0  0  0  0  0  0  0
    3.8935   41.5703   49.4214 C   0  0  0  0  0  0  0  0  0  0  0  0
    3.3307   41.0431   48.2777 C   0  0  0  0  0  3  0  0  0  0  0  0
    5.2161   41.9836   49.4616 C   0  0  0  0  0  3  0  0  0  0  0  0
    4.1469   40.9436   47.1662 C   0  0  0  0  0  3  0  0  0  0  0  0
    5.4627   41.3429   47.1680 C   0  0  0  0  0  3  0  0  0  0  0  0
    2.8547   41.7506   51.0083 Br  0  0  0  0  0  0  0  0  0  0  0  0
    6.1469   45.5187   51.6519 O   0  0  0  0  0  0  0  0  0  0  0  0
    4.8260   44.9667   51.7550 C   0  0  0  0  0  2  0  0  0  0  0  0
    4.0916   45.8234   52.7680 C   0  0  0  0  0  3  0  0  0  0  0  0
    2.6612   46.0190   52.3280 C   0  0  0  0  0  2  0  0  0  0  0  0
    4.1718   45.2592   54.1738 C   0  0  0  0  0  2  0  0  0  0  0  0
    1.8794   46.6951   53.4306 C   0  0  0  0  0  2  0  0  0  0  0  0
    2.7869   44.6878   54.4736 C   0  0  0  0  0  2  0  0  0  0  0  0
    1.8648   45.8868   54.7164 C   0  0  0  0  0  2  0  0  0  0  0  0
  1  2  1  0
  1  9  2  0
  2  3  2  0
  3 18  1  0
  4  3  1  0
  4  5  1  0
  5  6  1  0
  7  6  1  0
  8  4  1  0
  8  7  2  0
  9  8  1  0
 10  1  1  0
 11 16  1  0
 11 10  1  0
 12 13  2  0
 12 14  1  0
 13 15  1  0
 14 11  2  0
 15 16  2  0
 17 12  1  0
 19 20  1  0
 19 18  1  0
 20 22  1  0
 21 23  1  0
 21 20  1  0
 22 24  1  0
 23 25  1  0
 25 24  1  0
M  RAD  8   4   2   6   3  13   2  14   2  15   2  16   2  19   3  20   2
M  RAD  5  21   3  22   3  23   3  24   3  25   3
M  END
>  <REMARK>  (1) 
 SMILES Brc1cccc(Nc2nc(OCC3CCCCC3)c3[nH]cnc3n2)c1
 SMILES IDX 8 1 9 2 10 3 19 4 20 5 21 6 22 7 23 8 24 9 7 11 6 13 2 14
 SMILES IDX 3 15 25 16 4 17 5 18 1 19 11 20 12 21 13 22 14 23 18 24
 SMILES IDX 15 25 17 26 16 27
 H PARENT 20 10 7 12

>  <TORSDO>  (1) 
F 5

$$$$
