/home/pchatterjee/Documents/git/vs_workflow/DiffDock/diffdock_run/pdbqt_scrubbed/Z1614095645.pdbqt
     RDKit          3D

 26 30  0  0  1  0  0  0  0  0999 V2000
    4.1819   44.9472   53.3243 C   0  0  0  0  0  3  0  0  0  0  0  0
    4.3461   46.4296   53.0650 C   0  0  0  0  0  2  0  0  0  0  0  0
    4.0741   46.7138   51.6210 C   0  0  0  0  0  2  0  0  0  0  0  0
    4.4904   45.5873   50.6925 C   0  0  0  0  0  2  0  0  0  0  0  0
    5.5709   44.8663   51.3476 N   0  0  0  0  0  0  0  0  0  0  0  0
    5.2403   44.1663   52.5952 C   0  0  0  0  0  2  0  0  0  0  0  0
    2.8109   44.5898   52.8731 C   0  0  0  0  0  0  0  0  0  0  0  0
    0.8490   43.5246   52.6525 C   0  0  0  0  0  3  0  0  0  0  0  0
    2.1479   43.5849   53.2938 N   0  0  0  0  0  0  0  0  0  0  0  0
    0.6666   44.8450   52.0868 N   0  0  0  0  0  0  0  0  0  0  0  0
    1.9923   45.2777   51.9115 N   0  0  0  0  0  2  0  0  0  0  0  0
    0.8063   42.5017   51.5981 C   0  0  0  0  0  0  0  0  0  0  0  0
    0.8344   40.5172   49.6363 C   0  0  0  0  0  3  0  0  0  0  0  0
   -0.2234   41.3890   49.7080 C   0  0  0  0  0  3  0  0  0  0  0  0
    1.8712   40.6349   50.5374 C   0  0  0  0  0  3  0  0  0  0  0  0
   -0.2304   42.3730   50.6861 C   0  0  0  0  0  3  0  0  0  0  0  0
    1.8635   41.6174   51.5134 C   0  0  0  0  0  3  0  0  0  0  0  0
    6.8977   44.8327   50.8120 C   0  0  0  0  0  0  0  0  0  0  0  0
    7.2047   44.1656   49.6829 N   0  0  0  0  0  0  0  0  0  0  0  0
    7.9440   45.4987   51.4456 C   0  0  0  0  0  0  0  0  0  0  0  0
    8.4532   44.1322   49.1762 C   0  0  0  0  0  3  0  0  0  0  0  0
    7.9600   46.2567   52.5956 C   0  0  0  0  0  3  0  0  0  0  0  0
    9.2345   45.4807   50.9471 C   0  0  0  0  0  0  0  0  0  0  0  0
    9.4539   44.7817   49.8013 N   0  0  0  0  0  0  0  0  0  0  0  0
    9.2690   46.6834   52.7683 C   0  0  0  0  0  3  0  0  0  0  0  0
   10.0498   46.2057   51.7550 N   0  0  0  0  0  0  0  0  0  0  0  0
  1  7  1  0
  1  6  1  0
  2  1  1  0
  2  3  1  0
  3  4  1  0
  4  5  1  0
  5 18  1  0
  6  5  1  0
  7  9  2  0
  8 12  1  0
  8  9  1  0
 10  8  1  0
 11 10  1  0
 11  7  1  0
 12 16  2  0
 13 14  2  0
 15 13  1  0
 16 14  1  0
 17 15  2  0
 17 12  1  0
 18 20  1  0
 19 18  2  0
 19 21  1  0
 20 23  2  0
 20 22  1  0
 21 24  2  0
 22 25  2  0
 23 26  1  0
 24 23  1  0
 26 25  1  0
M  RAD  8   1   2   2   3   3   3   4   3   6   3   8   2  11   2  13   2
M  RAD  7  14   2  15   2  16   2  17   2  21   2  22   2  25   2
M  END
>  <REMARK>  (1) 
 SMILES c1ccc(-c2nc(C3CCCN(c4ncnc5[nH]ccc45)C3)n[nH]2)cc1
 SMILES IDX 8 1 9 2 10 3 11 4 12 5 22 6 7 7 5 8 6 9 24 10 23 11 4 13
 SMILES IDX 1 14 2 15 26 16 3 17 25 18 13 19 14 20 21 21 15 22 20 23
 SMILES IDX 17 24 16 25 19 26 18 27
 H PARENT 24 12 18 28

>  <TORSDO>  (1) 
F 3

$$$$
