/home/pchatterjee/Documents/git/vs_workflow/DiffDock/diffdock_run/pdbqt_scrubbed/Z1614095645.pdbqt
     RDKit          3D

 26 30  0  0  1  0  0  0  0  0999 V2000
    4.1007   44.6563   53.2228 C   0  0  0  0  0  3  0  0  0  0  0  0
    4.3636   46.1459   53.1624 C   0  0  0  0  0  2  0  0  0  0  0  0
    4.0925   46.6418   51.7766 C   0  0  0  0  0  2  0  0  0  0  0  0
    4.4173   45.6271   50.6952 C   0  0  0  0  0  2  0  0  0  0  0  0
    5.4539   44.7530   51.2221 N   0  0  0  0  0  0  0  0  0  0  0  0
    5.0925   43.9132   52.3710 C   0  0  0  0  0  2  0  0  0  0  0  0
    2.7023   44.4560   52.7588 C   0  0  0  0  0  0  0  0  0  0  0  0
    0.6289   43.6301   52.5319 C   0  0  0  0  0  3  0  0  0  0  0  0
    1.9176   43.5486   53.1914 N   0  0  0  0  0  0  0  0  0  0  0  0
    0.6144   44.9490   51.9344 N   0  0  0  0  0  0  0  0  0  0  0  0
    1.9848   45.2145   51.7699 N   0  0  0  0  0  2  0  0  0  0  0  0
    0.4761   42.5950   51.4998 C   0  0  0  0  0  0  0  0  0  0  0  0
    0.2835   40.5707   49.5885 C   0  0  0  0  0  3  0  0  0  0  0  0
   -0.6106   41.6120   49.5702 C   0  0  0  0  0  3  0  0  0  0  0  0
    1.2672   40.5397   50.5540 C   0  0  0  0  0  3  0  0  0  0  0  0
   -0.5086   42.6147   50.5236 C   0  0  0  0  0  3  0  0  0  0  0  0
    1.3683   41.5411   51.5054 C   0  0  0  0  0  3  0  0  0  0  0  0
    6.7679   44.7042   50.6569 C   0  0  0  0  0  0  0  0  0  0  0  0
    7.0431   44.0282   49.5250 N   0  0  0  0  0  0  0  0  0  0  0  0
    7.8344   45.3640   51.2629 C   0  0  0  0  0  0  0  0  0  0  0  0
    8.2795   43.9805   48.9903 C   0  0  0  0  0  3  0  0  0  0  0  0
    7.8834   46.1281   52.4079 C   0  0  0  0  0  3  0  0  0  0  0  0
    9.1130   45.3313   50.7354 C   0  0  0  0  0  0  0  0  0  0  0  0
    9.3000   44.6242   49.5889 N   0  0  0  0  0  0  0  0  0  0  0  0
    9.1998   46.5436   52.5485 C   0  0  0  0  0  3  0  0  0  0  0  0
    9.9530   46.0532   51.5205 N   0  0  0  0  0  0  0  0  0  0  0  0
  1  7  1  0
  1  6  1  0
  2  1  1  0
  2  3  1  0
  3  4  1  0
  4  5  1  0
  5 18  1  0
  6  5  1  0
  7  9  2  0
  8 12  1  0
  8  9  1  0
 10  8  1  0
 11 10  1  0
 11  7  1  0
 12 16  2  0
 13 14  2  0
 15 13  1  0
 16 14  1  0
 17 15  2  0
 17 12  1  0
 18 20  1  0
 19 18  2  0
 19 21  1  0
 20 23  2  0
 20 22  1  0
 21 24  2  0
 22 25  2  0
 23 26  1  0
 24 23  1  0
 26 25  1  0
M  RAD  8   1   2   2   3   3   3   4   3   6   3   8   2  11   2  13   2
M  RAD  7  14   2  15   2  16   2  17   2  21   2  22   2  25   2
M  END
>  <REMARK>  (1) 
 SMILES c1ccc(-c2nc(C3CCCN(c4ncnc5[nH]ccc45)C3)n[nH]2)cc1
 SMILES IDX 8 1 9 2 10 3 11 4 12 5 22 6 7 7 5 8 6 9 24 10 23 11 4 13
 SMILES IDX 1 14 2 15 26 16 3 17 25 18 13 19 14 20 21 21 15 22 20 23
 SMILES IDX 17 24 16 25 19 26 18 27
 H PARENT 24 12 18 28

>  <TORSDO>  (1) 
F 3

$$$$
