/home/pchatterjee/Documents/git/vs_workflow/DiffDock/diffdock_run/pdbqt_scrubbed/Z1614095645.pdbqt
     RDKit          3D

 26 30  0  0  1  0  0  0  0  0999 V2000
    7.2074   46.3629   54.8021 C   0  0  0  0  0  3  0  0  0  0  0  0
    8.0186   47.6043   54.4984 C   0  0  0  0  0  2  0  0  0  0  0  0
    7.5012   48.2413   53.2469 C   0  0  0  0  0  2  0  0  0  0  0  0
    6.9715   47.2433   52.2330 C   0  0  0  0  0  2  0  0  0  0  0  0
    7.6699   45.9874   52.4594 N   0  0  0  0  0  0  0  0  0  0  0  0
    7.4308   45.3179   53.7440 C   0  0  0  0  0  2  0  0  0  0  0  0
    5.7862   46.7947   54.8721 C   0  0  0  0  0  0  0  0  0  0  0  0
    3.6144   46.8991   55.4242 C   0  0  0  0  0  3  0  0  0  0  0  0
    4.8915   46.2317   55.5853 N   0  0  0  0  0  0  0  0  0  0  0  0
    3.9493   48.1751   54.8271 N   0  0  0  0  0  0  0  0  0  0  0  0
    5.1625   47.8888   54.1778 N   0  0  0  0  0  2  0  0  0  0  0  0
    2.7082   46.1425   54.5489 C   0  0  0  0  0  0  0  0  0  0  0  0
    0.9639   44.8106   52.8251 C   0  0  0  0  0  3  0  0  0  0  0  0
    1.5987   44.1143   53.8233 C   0  0  0  0  0  3  0  0  0  0  0  0
    1.1979   46.1623   52.6880 C   0  0  0  0  0  3  0  0  0  0  0  0
    2.4645   44.7833   54.6765 C   0  0  0  0  0  3  0  0  0  0  0  0
    2.0623   46.8294   53.5400 C   0  0  0  0  0  3  0  0  0  0  0  0
    8.5512   45.4203   51.4846 C   0  0  0  0  0  0  0  0  0  0  0  0
    9.8475   45.7732   51.3900 N   0  0  0  0  0  0  0  0  0  0  0  0
    8.0984   44.4646   50.5782 C   0  0  0  0  0  0  0  0  0  0  0  0
   10.6798   45.2409   50.4731 C   0  0  0  0  0  3  0  0  0  0  0  0
    6.8522   43.9009   50.4157 C   0  0  0  0  0  3  0  0  0  0  0  0
    8.9312   43.9023   49.6272 C   0  0  0  0  0  0  0  0  0  0  0  0
   10.2260   44.3176   49.6037 N   0  0  0  0  0  0  0  0  0  0  0  0
    6.9596   43.0038   49.3626 C   0  0  0  0  0  3  0  0  0  0  0  0
    8.2370   43.0063   48.8800 N   0  0  0  0  0  0  0  0  0  0  0  0
  1  7  1  0
  1  6  1  0
  2  1  1  0
  2  3  1  0
  3  4  1  0
  4  5  1  0
  5 18  1  0
  6  5  1  0
  7  9  2  0
  8 12  1  0
  8  9  1  0
 10  8  1  0
 11 10  1  0
 11  7  1  0
 12 16  2  0
 13 14  2  0
 15 13  1  0
 16 14  1  0
 17 15  2  0
 17 12  1  0
 18 20  1  0
 19 18  2  0
 19 21  1  0
 20 23  2  0
 20 22  1  0
 21 24  2  0
 22 25  2  0
 23 26  1  0
 24 23  1  0
 26 25  1  0
M  RAD  8   1   2   2   3   3   3   4   3   6   3   8   2  11   2  13   2
M  RAD  7  14   2  15   2  16   2  17   2  21   2  22   2  25   2
M  END
>  <REMARK>  (1) 
 SMILES c1ccc(-c2nc(C3CCCN(c4ncnc5[nH]ccc45)C3)n[nH]2)cc1
 SMILES IDX 8 1 9 2 10 3 11 4 12 5 22 6 7 7 5 8 6 9 24 10 23 11 4 13
 SMILES IDX 1 14 2 15 26 16 3 17 25 18 13 19 14 20 21 21 15 22 20 23
 SMILES IDX 17 24 16 25 19 26 18 27
 H PARENT 24 12 18 28

>  <TORSDO>  (1) 
F 3

$$$$
