/home/pchatterjee/Documents/git/vs_workflow/DiffDock/diffdock_run/pdbqt_scrubbed/Z1614095645.pdbqt
     RDKit          3D

 26 30  0  0  1  0  0  0  0  0999 V2000
    4.2254   44.9923   53.1359 C   0  0  0  0  0  3  0  0  0  0  0  0
    4.2116   46.3669   52.5020 C   0  0  0  0  0  2  0  0  0  0  0  0
    3.8997   46.2378   51.0440 C   0  0  0  0  0  2  0  0  0  0  0  0
    4.4409   44.9650   50.4186 C   0  0  0  0  0  2  0  0  0  0  0  0
    5.6028   44.5632   51.1964 N   0  0  0  0  0  0  0  0  0  0  0  0
    5.3645   44.1749   52.5921 C   0  0  0  0  0  2  0  0  0  0  0  0
    2.9037   44.3785   52.8401 C   0  0  0  0  0  0  0  0  0  0  0  0
    1.2176   42.9040   52.7165 C   0  0  0  0  0  3  0  0  0  0  0  0
    2.5729   43.1859   53.1476 N   0  0  0  0  0  0  0  0  0  0  0  0
    0.6430   44.2088   52.4633 N   0  0  0  0  0  0  0  0  0  0  0  0
    1.7806   44.9824   52.1754 N   0  0  0  0  0  2  0  0  0  0  0  0
    1.1905   42.0837   51.4975 C   0  0  0  0  0  0  0  0  0  0  0  0
    1.0237   40.5653   49.1619 C   0  0  0  0  0  3  0  0  0  0  0  0
    2.1751   40.5417   49.9088 C   0  0  0  0  0  3  0  0  0  0  0  0
   -0.0374   41.3413   49.5776 C   0  0  0  0  0  3  0  0  0  0  0  0
    2.2506   41.2991   51.0687 C   0  0  0  0  0  3  0  0  0  0  0  0
    0.0389   42.0972   50.7356 C   0  0  0  0  0  3  0  0  0  0  0  0
    6.9212   44.5431   50.6398 C   0  0  0  0  0  0  0  0  0  0  0  0
    7.2298   43.8325   49.5380 N   0  0  0  0  0  0  0  0  0  0  0  0
    7.9572   45.2687   51.2229 C   0  0  0  0  0  0  0  0  0  0  0  0
    8.4705   43.8116   49.0116 C   0  0  0  0  0  3  0  0  0  0  0  0
    7.9691   46.0806   52.3356 C   0  0  0  0  0  3  0  0  0  0  0  0
    9.2394   45.2648   50.7032 C   0  0  0  0  0  0  0  0  0  0  0  0
    9.4612   44.5190   49.5878 N   0  0  0  0  0  0  0  0  0  0  0  0
    9.2673   46.5530   52.4651 C   0  0  0  0  0  3  0  0  0  0  0  0
   10.0455   46.0508   51.4617 N   0  0  0  0  0  0  0  0  0  0  0  0
  1  7  1  0
  1  6  1  0
  2  1  1  0
  2  3  1  0
  3  4  1  0
  4  5  1  0
  5 18  1  0
  6  5  1  0
  7  9  2  0
  8 12  1  0
  8  9  1  0
 10  8  1  0
 11 10  1  0
 11  7  1  0
 12 16  2  0
 13 14  2  0
 15 13  1  0
 16 14  1  0
 17 15  2  0
 17 12  1  0
 18 20  1  0
 19 18  2  0
 19 21  1  0
 20 23  2  0
 20 22  1  0
 21 24  2  0
 22 25  2  0
 23 26  1  0
 24 23  1  0
 26 25  1  0
M  RAD  8   1   2   2   3   3   3   4   3   6   3   8   2  11   2  13   2
M  RAD  7  14   2  15   2  16   2  17   2  21   2  22   2  25   2
M  END
>  <REMARK>  (1) 
 SMILES c1ccc(-c2nc(C3CCCN(c4ncnc5[nH]ccc45)C3)n[nH]2)cc1
 SMILES IDX 8 1 9 2 10 3 11 4 12 5 22 6 7 7 5 8 6 9 24 10 23 11 4 13
 SMILES IDX 1 14 2 15 26 16 3 17 25 18 13 19 14 20 21 21 15 22 20 23
 SMILES IDX 17 24 16 25 19 26 18 27
 H PARENT 24 12 18 28

>  <TORSDO>  (1) 
F 3

$$$$
