/home/pchatterjee/Documents/git/vs_workflow/DiffDock/diffdock_run/pdbqt_scrubbed/Z1614095645.pdbqt
     RDKit          3D

 26 30  0  0  1  0  0  0  0  0999 V2000
    4.2877   44.3571   52.9319 C   0  0  0  0  0  3  0  0  0  0  0  0
    4.3214   45.8687   52.8594 C   0  0  0  0  0  2  0  0  0  0  0  0
    4.0299   46.3050   51.4578 C   0  0  0  0  0  2  0  0  0  0  0  0
    4.5466   45.3428   50.4035 C   0  0  0  0  0  2  0  0  0  0  0  0
    5.6844   44.6429   50.9797 N   0  0  0  0  0  0  0  0  0  0  0  0
    5.4129   43.7676   52.1268 C   0  0  0  0  0  2  0  0  0  0  0  0
    2.9549   43.9403   52.4210 C   0  0  0  0  0  0  0  0  0  0  0  0
    1.0790   42.7606   52.0718 C   0  0  0  0  0  3  0  0  0  0  0  0
    2.3576   42.8620   52.7479 N   0  0  0  0  0  0  0  0  0  0  0  0
    0.8134   44.1046   51.6031 N   0  0  0  0  0  0  0  0  0  0  0  0
    2.1079   44.6413   51.4941 N   0  0  0  0  0  2  0  0  0  0  0  0
    1.1303   41.8216   50.9424 C   0  0  0  0  0  0  0  0  0  0  0  0
    1.3497   40.0276   48.8161 C   0  0  0  0  0  3  0  0  0  0  0  0
    0.1240   40.5542   49.1391 C   0  0  0  0  0  3  0  0  0  0  0  0
    2.4585   40.3937   49.5491 C   0  0  0  0  0  3  0  0  0  0  0  0
    0.0227   41.4455   50.1976 C   0  0  0  0  0  3  0  0  0  0  0  0
    2.3566   41.2835   50.6055 C   0  0  0  0  0  3  0  0  0  0  0  0
    7.0106   44.7915   50.4626 C   0  0  0  0  0  0  0  0  0  0  0  0
    7.4407   44.1256   49.3738 N   0  0  0  0  0  0  0  0  0  0  0  0
    7.9270   45.6444   51.0730 C   0  0  0  0  0  0  0  0  0  0  0  0
    8.6890   44.2635   48.8845 C   0  0  0  0  0  3  0  0  0  0  0  0
    7.8013   46.4520   52.1818 C   0  0  0  0  0  3  0  0  0  0  0  0
    9.2142   45.8046   50.5916 C   0  0  0  0  0  0  0  0  0  0  0  0
    9.5632   45.0926   49.4867 N   0  0  0  0  0  0  0  0  0  0  0  0
    9.0238   47.0870   52.3476 C   0  0  0  0  0  3  0  0  0  0  0  0
    9.8898   46.6880   51.3701 N   0  0  0  0  0  0  0  0  0  0  0  0
  1  7  1  0
  1  6  1  0
  2  1  1  0
  2  3  1  0
  3  4  1  0
  4  5  1  0
  5 18  1  0
  6  5  1  0
  7  9  2  0
  8 12  1  0
  8  9  1  0
 10  8  1  0
 11 10  1  0
 11  7  1  0
 12 16  2  0
 13 14  2  0
 15 13  1  0
 16 14  1  0
 17 15  2  0
 17 12  1  0
 18 20  1  0
 19 18  2  0
 19 21  1  0
 20 23  2  0
 20 22  1  0
 21 24  2  0
 22 25  2  0
 23 26  1  0
 24 23  1  0
 26 25  1  0
M  RAD  8   1   2   2   3   3   3   4   3   6   3   8   2  11   2  13   2
M  RAD  7  14   2  15   2  16   2  17   2  21   2  22   2  25   2
M  END
>  <REMARK>  (1) 
 SMILES c1ccc(-c2nc(C3CCCN(c4ncnc5[nH]ccc45)C3)n[nH]2)cc1
 SMILES IDX 8 1 9 2 10 3 11 4 12 5 22 6 7 7 5 8 6 9 24 10 23 11 4 13
 SMILES IDX 1 14 2 15 26 16 3 17 25 18 13 19 14 20 21 21 15 22 20 23
 SMILES IDX 17 24 16 25 19 26 18 27
 H PARENT 24 12 18 28

>  <TORSDO>  (1) 
F 3

$$$$
