/home/pchatterjee/Documents/git/vs_workflow/DiffDock/diffdock_run/pdbqt_scrubbed/Z1614095645.pdbqt
     RDKit          3D

 26 30  0  0  1  0  0  0  0  0999 V2000
    7.3015   46.4558   54.7768 C   0  0  0  0  0  3  0  0  0  0  0  0
    8.0727   47.7055   54.4090 C   0  0  0  0  0  2  0  0  0  0  0  0
    7.4564   48.3300   53.1966 C   0  0  0  0  0  2  0  0  0  0  0  0
    6.8655   47.3208   52.2287 C   0  0  0  0  0  2  0  0  0  0  0  0
    7.5942   46.0745   52.4078 N   0  0  0  0  0  0  0  0  0  0  0  0
    7.4589   45.4084   53.7092 C   0  0  0  0  0  2  0  0  0  0  0  0
    5.8842   46.8710   54.9500 C   0  0  0  0  0  0  0  0  0  0  0  0
    3.7268   46.8855   55.5647 C   0  0  0  0  0  3  0  0  0  0  0  0
    5.0047   46.2008   55.5852 N   0  0  0  0  0  0  0  0  0  0  0  0
    4.0523   48.2408   55.1723 N   0  0  0  0  0  0  0  0  0  0  0  0
    5.2483   48.0624   54.4559 N   0  0  0  0  0  2  0  0  0  0  0  0
    2.7967   46.2794   54.6018 C   0  0  0  0  0  0  0  0  0  0  0  0
    1.0522   45.0184   52.8256 C   0  0  0  0  0  3  0  0  0  0  0  0
    1.2509   46.3738   52.7383 C   0  0  0  0  0  3  0  0  0  0  0  0
    1.7195   44.2971   53.7927 C   0  0  0  0  0  3  0  0  0  0  0  0
    2.1197   46.9937   53.6248 C   0  0  0  0  0  3  0  0  0  0  0  0
    2.5866   44.9167   54.6772 C   0  0  0  0  0  3  0  0  0  0  0  0
    8.4078   45.5133   51.3727 C   0  0  0  0  0  0  0  0  0  0  0  0
    9.6829   45.8959   51.1682 N   0  0  0  0  0  0  0  0  0  0  0  0
    7.9078   44.5323   50.5197 C   0  0  0  0  0  0  0  0  0  0  0  0
   10.4515   45.3692   50.1943 C   0  0  0  0  0  3  0  0  0  0  0  0
    6.6672   43.9360   50.4670 C   0  0  0  0  0  3  0  0  0  0  0  0
    8.6750   43.9750   49.5122 C   0  0  0  0  0  0  0  0  0  0  0  0
    9.9526   44.4212   49.3778 N   0  0  0  0  0  0  0  0  0  0  0  0
    6.7120   43.0248   49.4215 C   0  0  0  0  0  3  0  0  0  0  0  0
    7.9457   43.0505   48.8367 N   0  0  0  0  0  0  0  0  0  0  0  0
  1  7  1  0
  1  6  1  0
  2  1  1  0
  2  3  1  0
  3  4  1  0
  4  5  1  0
  5 18  1  0
  6  5  1  0
  7  9  2  0
  8 12  1  0
  8  9  1  0
 10  8  1  0
 11 10  1  0
 11  7  1  0
 12 16  2  0
 13 14  2  0
 15 13  1  0
 16 14  1  0
 17 15  2  0
 17 12  1  0
 18 20  1  0
 19 18  2  0
 19 21  1  0
 20 23  2  0
 20 22  1  0
 21 24  2  0
 22 25  2  0
 23 26  1  0
 24 23  1  0
 26 25  1  0
M  RAD  8   1   2   2   3   3   3   4   3   6   3   8   2  11   2  13   2
M  RAD  7  14   2  15   2  16   2  17   2  21   2  22   2  25   2
M  END
>  <REMARK>  (1) 
 SMILES c1ccc(-c2nc(C3CCCN(c4ncnc5[nH]ccc45)C3)n[nH]2)cc1
 SMILES IDX 8 1 9 2 10 3 11 4 12 5 22 6 7 7 5 8 6 9 24 10 23 11 4 13
 SMILES IDX 1 14 2 15 26 16 3 17 25 18 13 19 14 20 21 21 15 22 20 23
 SMILES IDX 17 24 16 25 19 26 18 27
 H PARENT 24 12 18 28

>  <TORSDO>  (1) 
F 3

$$$$
