/home/pchatterjee/Documents/git/vs_workflow/DiffDock/diffdock_run/pdbqt_scrubbed/Z1614095645.pdbqt
     RDKit          3D

 26 30  0  0  1  0  0  0  0  0999 V2000
    6.8959   46.2486   54.7336 C   0  0  0  0  0  3  0  0  0  0  0  0
    7.7483   47.4781   54.5023 C   0  0  0  0  0  2  0  0  0  0  0  0
    7.3067   48.1587   53.2447 C   0  0  0  0  0  2  0  0  0  0  0  0
    6.8047   47.1997   52.1805 C   0  0  0  0  0  2  0  0  0  0  0  0
    7.4632   45.9223   52.4066 N   0  0  0  0  0  0  0  0  0  0  0  0
    7.1472   45.2260   53.6600 C   0  0  0  0  0  2  0  0  0  0  0  0
    5.4830   46.7119   54.7467 C   0  0  0  0  0  0  0  0  0  0  0  0
    3.3108   46.9152   55.2690 C   0  0  0  0  0  3  0  0  0  0  0  0
    4.5739   46.2452   55.5097 N   0  0  0  0  0  0  0  0  0  0  0  0
    3.6733   48.1134   54.5412 N   0  0  0  0  0  0  0  0  0  0  0  0
    4.8841   47.7367   53.9349 N   0  0  0  0  0  2  0  0  0  0  0  0
    2.3947   46.0862   54.4732 C   0  0  0  0  0  0  0  0  0  0  0  0
    0.6214   44.6136   52.8999 C   0  0  0  0  0  3  0  0  0  0  0  0
    1.3608   43.9802   53.8675 C   0  0  0  0  0  3  0  0  0  0  0  0
    0.7659   45.9727   52.7186 C   0  0  0  0  0  3  0  0  0  0  0  0
    2.2403   44.7189   54.6458 C   0  0  0  0  0  3  0  0  0  0  0  0
    1.6441   46.7094   53.4959 C   0  0  0  0  0  3  0  0  0  0  0  0
    8.3779   45.3598   51.4604 C   0  0  0  0  0  0  0  0  0  0  0  0
    9.6803   45.7009   51.4234 N   0  0  0  0  0  0  0  0  0  0  0  0
    7.9534   44.4210   50.5232 C   0  0  0  0  0  0  0  0  0  0  0  0
   10.5441   45.1728   50.5335 C   0  0  0  0  0  3  0  0  0  0  0  0
    6.7095   43.8720   50.3025 C   0  0  0  0  0  3  0  0  0  0  0  0
    8.8187   43.8633   49.5989 C   0  0  0  0  0  0  0  0  0  0  0  0
   10.1173   44.2660   49.6337 N   0  0  0  0  0  0  0  0  0  0  0  0
    6.8512   42.9882   49.2422 C   0  0  0  0  0  3  0  0  0  0  0  0
    8.1471   42.9845   48.8118 N   0  0  0  0  0  0  0  0  0  0  0  0
  1  7  1  0
  1  6  1  0
  2  1  1  0
  2  3  1  0
  3  4  1  0
  4  5  1  0
  5 18  1  0
  6  5  1  0
  7  9  2  0
  8 12  1  0
  8  9  1  0
 10  8  1  0
 11 10  1  0
 11  7  1  0
 12 16  2  0
 13 14  2  0
 15 13  1  0
 16 14  1  0
 17 15  2  0
 17 12  1  0
 18 20  1  0
 19 18  2  0
 19 21  1  0
 20 23  2  0
 20 22  1  0
 21 24  2  0
 22 25  2  0
 23 26  1  0
 24 23  1  0
 26 25  1  0
M  RAD  8   1   2   2   3   3   3   4   3   6   3   8   2  11   2  13   2
M  RAD  7  14   2  15   2  16   2  17   2  21   2  22   2  25   2
M  END
>  <REMARK>  (1) 
 SMILES c1ccc(-c2nc(C3CCCN(c4ncnc5[nH]ccc45)C3)n[nH]2)cc1
 SMILES IDX 8 1 9 2 10 3 11 4 12 5 22 6 7 7 5 8 6 9 24 10 23 11 4 13
 SMILES IDX 1 14 2 15 26 16 3 17 25 18 13 19 14 20 21 21 15 22 20 23
 SMILES IDX 17 24 16 25 19 26 18 27
 H PARENT 24 12 18 28

>  <TORSDO>  (1) 
F 3

$$$$
