/home/pchatterjee/Documents/git/vs_workflow/DiffDock/diffdock_run/pdbqt_scrubbed/Z1614095645.pdbqt
     RDKit          3D

 26 30  0  0  1  0  0  0  0  0999 V2000
    7.3507   46.6714   54.6888 C   0  0  0  0  0  3  0  0  0  0  0  0
    8.0522   47.9331   54.2330 C   0  0  0  0  0  2  0  0  0  0  0  0
    7.3919   48.4473   52.9922 C   0  0  0  0  0  2  0  0  0  0  0  0
    6.8444   47.3500   52.0975 C   0  0  0  0  0  2  0  0  0  0  0  0
    7.6385   46.1564   52.3446 N   0  0  0  0  0  0  0  0  0  0  0  0
    7.5514   45.5680   53.6869 C   0  0  0  0  0  2  0  0  0  0  0  0
    5.9156   47.0236   54.8546 C   0  0  0  0  0  0  0  0  0  0  0  0
    3.7627   46.9573   55.4818 C   0  0  0  0  0  3  0  0  0  0  0  0
    5.0725   46.3367   55.5207 N   0  0  0  0  0  0  0  0  0  0  0  0
    4.0200   48.3105   55.0354 N   0  0  0  0  0  0  0  0  0  0  0  0
    5.2202   48.1627   54.3189 N   0  0  0  0  0  2  0  0  0  0  0  0
    2.8591   46.2698   54.5487 C   0  0  0  0  0  0  0  0  0  0  0  0
    1.1335   45.0698   52.7128 C   0  0  0  0  0  3  0  0  0  0  0  0
    1.6309   44.3356   53.7605 C   0  0  0  0  0  3  0  0  0  0  0  0
    1.4947   46.3939   52.5821 C   0  0  0  0  0  3  0  0  0  0  0  0
    2.4882   44.9390   54.6692 C   0  0  0  0  0  3  0  0  0  0  0  0
    2.3506   46.9955   53.4896 C   0  0  0  0  0  3  0  0  0  0  0  0
    8.4696   45.5731   51.3359 C   0  0  0  0  0  0  0  0  0  0  0  0
    9.7654   45.9077   51.1846 N   0  0  0  0  0  0  0  0  0  0  0  0
    7.9657   44.6199   50.4542 C   0  0  0  0  0  0  0  0  0  0  0  0
   10.5506   45.3601   50.2356 C   0  0  0  0  0  3  0  0  0  0  0  0
    6.7061   44.0727   50.3476 C   0  0  0  0  0  3  0  0  0  0  0  0
    8.7495   44.0422   49.4713 C   0  0  0  0  0  0  0  0  0  0  0  0
   10.0476   44.4395   49.3908 N   0  0  0  0  0  0  0  0  0  0  0  0
    6.7564   43.1698   49.2952 C   0  0  0  0  0  3  0  0  0  0  0  0
    8.0120   43.1527   48.7586 N   0  0  0  0  0  0  0  0  0  0  0  0
  1  7  1  0
  1  6  1  0
  2  1  1  0
  2  3  1  0
  3  4  1  0
  4  5  1  0
  5 18  1  0
  6  5  1  0
  7  9  2  0
  8 12  1  0
  8  9  1  0
 10  8  1  0
 11 10  1  0
 11  7  1  0
 12 16  2  0
 13 14  2  0
 15 13  1  0
 16 14  1  0
 17 15  2  0
 17 12  1  0
 18 20  1  0
 19 18  2  0
 19 21  1  0
 20 23  2  0
 20 22  1  0
 21 24  2  0
 22 25  2  0
 23 26  1  0
 24 23  1  0
 26 25  1  0
M  RAD  8   1   2   2   3   3   3   4   3   6   3   8   2  11   2  13   2
M  RAD  7  14   2  15   2  16   2  17   2  21   2  22   2  25   2
M  END
>  <REMARK>  (1) 
 SMILES c1ccc(-c2nc(C3CCCN(c4ncnc5[nH]ccc45)C3)n[nH]2)cc1
 SMILES IDX 8 1 9 2 10 3 11 4 12 5 22 6 7 7 5 8 6 9 24 10 23 11 4 13
 SMILES IDX 1 14 2 15 26 16 3 17 25 18 13 19 14 20 21 21 15 22 20 23
 SMILES IDX 17 24 16 25 19 26 18 27
 H PARENT 24 12 18 28

>  <TORSDO>  (1) 
F 3

$$$$
