/home/pchatterjee/Documents/git/vs_workflow/DiffDock/diffdock_run/pdbqt_scrubbed/Z1614095645.pdbqt
     RDKit          3D

 26 30  0  0  1  0  0  0  0  0999 V2000
    7.1345   46.4697   54.7541 C   0  0  0  0  0  3  0  0  0  0  0  0
    7.9521   47.7109   54.4666 C   0  0  0  0  0  2  0  0  0  0  0  0
    7.4137   48.3879   53.2454 C   0  0  0  0  0  2  0  0  0  0  0  0
    6.8505   47.4242   52.2165 C   0  0  0  0  0  2  0  0  0  0  0  0
    7.5402   46.1554   52.3919 N   0  0  0  0  0  0  0  0  0  0  0  0
    7.3228   45.4526   53.6625 C   0  0  0  0  0  2  0  0  0  0  0  0
    5.7200   46.9139   54.8683 C   0  0  0  0  0  0  0  0  0  0  0  0
    3.5711   47.0459   55.4986 C   0  0  0  0  0  3  0  0  0  0  0  0
    4.8485   46.3717   55.6251 N   0  0  0  0  0  0  0  0  0  0  0  0
    3.8926   48.3075   54.8648 N   0  0  0  0  0  0  0  0  0  0  0  0
    5.0787   47.9993   54.1765 N   0  0  0  0  0  2  0  0  0  0  0  0
    2.6275   46.2797   54.6724 C   0  0  0  0  0  0  0  0  0  0  0  0
    0.8142   44.9276   53.0379 C   0  0  0  0  0  3  0  0  0  0  0  0
    1.4470   44.2561   54.0541 C   0  0  0  0  0  3  0  0  0  0  0  0
    1.0844   46.2648   52.8385 C   0  0  0  0  0  3  0  0  0  0  0  0
    2.3472   44.9350   54.8626 C   0  0  0  0  0  3  0  0  0  0  0  0
    1.9832   46.9418   53.6460 C   0  0  0  0  0  3  0  0  0  0  0  0
    8.3931   45.6069   51.3819 C   0  0  0  0  0  0  0  0  0  0  0  0
    9.6745   45.9929   51.2302 N   0  0  0  0  0  0  0  0  0  0  0  0
    7.9269   44.6356   50.4993 C   0  0  0  0  0  0  0  0  0  0  0  0
   10.4801   45.4782   50.2800 C   0  0  0  0  0  3  0  0  0  0  0  0
    6.6900   44.0389   50.3927 C   0  0  0  0  0  3  0  0  0  0  0  0
    8.7323   44.0907   49.5151 C   0  0  0  0  0  0  0  0  0  0  0  0
   10.0136   44.5394   49.4343 N   0  0  0  0  0  0  0  0  0  0  0  0
    6.7753   43.1401   49.3391 C   0  0  0  0  0  3  0  0  0  0  0  0
    8.0303   43.1736   48.8017 N   0  0  0  0  0  0  0  0  0  0  0  0
  1  7  1  0
  1  6  1  0
  2  1  1  0
  2  3  1  0
  3  4  1  0
  4  5  1  0
  5 18  1  0
  6  5  1  0
  7  9  2  0
  8 12  1  0
  8  9  1  0
 10  8  1  0
 11 10  1  0
 11  7  1  0
 12 16  2  0
 13 14  2  0
 15 13  1  0
 16 14  1  0
 17 15  2  0
 17 12  1  0
 18 20  1  0
 19 18  2  0
 19 21  1  0
 20 23  2  0
 20 22  1  0
 21 24  2  0
 22 25  2  0
 23 26  1  0
 24 23  1  0
 26 25  1  0
M  RAD  8   1   2   2   3   3   3   4   3   6   3   8   2  11   2  13   2
M  RAD  7  14   2  15   2  16   2  17   2  21   2  22   2  25   2
M  END
>  <REMARK>  (1) 
 SMILES c1ccc(-c2nc(C3CCCN(c4ncnc5[nH]ccc45)C3)n[nH]2)cc1
 SMILES IDX 8 1 9 2 10 3 11 4 12 5 22 6 7 7 5 8 6 9 24 10 23 11 4 13
 SMILES IDX 1 14 2 15 26 16 3 17 25 18 13 19 14 20 21 21 15 22 20 23
 SMILES IDX 17 24 16 25 19 26 18 27
 H PARENT 24 12 18 28

>  <TORSDO>  (1) 
F 3

$$$$
