/home/pchatterjee/Documents/git/vs_workflow/DiffDock/diffdock_run/pdbqt_scrubbed/Z1614095645.pdbqt
     RDKit          3D

 26 30  0  0  1  0  0  0  0  0999 V2000
    4.7191   45.4560   54.1702 C   0  0  0  0  0  3  0  0  0  0  0  0
    4.9197   46.8991   53.7593 C   0  0  0  0  0  2  0  0  0  0  0  0
    4.3544   47.1081   52.3895 C   0  0  0  0  0  2  0  0  0  0  0  0
    4.4791   45.8917   51.4900 C   0  0  0  0  0  2  0  0  0  0  0  0
    5.6275   45.1287   51.9541 N   0  0  0  0  0  0  0  0  0  0  0  0
    5.5356   44.5432   53.2974 C   0  0  0  0  0  2  0  0  0  0  0  0
    3.2616   45.1842   54.0566 C   0  0  0  0  0  0  0  0  0  0  0  0
    1.2837   44.1256   54.0584 C   0  0  0  0  0  3  0  0  0  0  0  0
    2.7189   44.0463   54.2487 N   0  0  0  0  0  0  0  0  0  0  0  0
    0.9923   45.5429   54.1143 N   0  0  0  0  0  0  0  0  0  0  0  0
    2.2156   46.1124   53.7212 N   0  0  0  0  0  2  0  0  0  0  0  0
    0.8717   43.5653   52.7638 C   0  0  0  0  0  0  0  0  0  0  0  0
    0.1604   42.4027   50.3285 C   0  0  0  0  0  3  0  0  0  0  0  0
   -0.3583   43.6248   50.6770 C   0  0  0  0  0  3  0  0  0  0  0  0
    1.0281   41.7649   51.1894 C   0  0  0  0  0  3  0  0  0  0  0  0
   -0.0001   44.1966   51.8893 C   0  0  0  0  0  3  0  0  0  0  0  0
    1.3852   42.3363   52.3994 C   0  0  0  0  0  3  0  0  0  0  0  0
    6.7976   44.9496   51.1497 C   0  0  0  0  0  0  0  0  0  0  0  0
    6.7926   44.2169   50.0197 N   0  0  0  0  0  0  0  0  0  0  0  0
    8.0101   45.5346   51.5070 C   0  0  0  0  0  0  0  0  0  0  0  0
    7.8930   44.0464   49.2601 C   0  0  0  0  0  3  0  0  0  0  0  0
    8.3415   46.3278   52.5833 C   0  0  0  0  0  3  0  0  0  0  0  0
    9.1543   45.3758   50.7456 C   0  0  0  0  0  0  0  0  0  0  0  0
    9.0578   44.6190   49.6197 N   0  0  0  0  0  0  0  0  0  0  0  0
    9.6882   46.6332   52.4480 C   0  0  0  0  0  3  0  0  0  0  0  0
   10.1852   46.0476   51.3190 N   0  0  0  0  0  0  0  0  0  0  0  0
  1  7  1  0
  1  6  1  0
  2  1  1  0
  2  3  1  0
  3  4  1  0
  4  5  1  0
  5 18  1  0
  6  5  1  0
  7  9  2  0
  8 12  1  0
  8  9  1  0
 10  8  1  0
 11 10  1  0
 11  7  1  0
 12 16  2  0
 13 14  2  0
 15 13  1  0
 16 14  1  0
 17 15  2  0
 17 12  1  0
 18 20  1  0
 19 18  2  0
 19 21  1  0
 20 23  2  0
 20 22  1  0
 21 24  2  0
 22 25  2  0
 23 26  1  0
 24 23  1  0
 26 25  1  0
M  RAD  8   1   2   2   3   3   3   4   3   6   3   8   2  11   2  13   2
M  RAD  7  14   2  15   2  16   2  17   2  21   2  22   2  25   2
M  END
>  <REMARK>  (1) 
 SMILES c1ccc(-c2nc(C3CCCN(c4ncnc5[nH]ccc45)C3)n[nH]2)cc1
 SMILES IDX 8 1 9 2 10 3 11 4 12 5 22 6 7 7 5 8 6 9 24 10 23 11 4 13
 SMILES IDX 1 14 2 15 26 16 3 17 25 18 13 19 14 20 21 21 15 22 20 23
 SMILES IDX 17 24 16 25 19 26 18 27
 H PARENT 24 12 18 28

>  <TORSDO>  (1) 
F 3

$$$$
