/home/pchatterjee/Documents/git/vs_workflow/DiffDock/diffdock_run/pdbqt_scrubbed/Z746476900.pdbqt
     RDKit          3D

 25 27  0  0  0  0  0  0  0  0999 V2000
    4.0745   46.3488   53.5907 N   0  0  0  0  0  0  0  0  0  0  0  0
    5.4620   46.7079   53.6694 C   0  0  0  0  0  0  0  0  0  0  0  0
    5.7746   47.8554   54.1261 O   0  0  0  0  0  0  0  0  0  0  0  0
    3.6552   45.6805   52.3769 C   0  0  0  0  0  2  0  0  0  0  0  0
    2.2597   45.1693   52.4874 C   0  0  0  0  0  0  0  0  0  0  0  0
    1.9458   43.9989   51.8242 C   0  0  0  0  0  0  0  0  0  0  0  0
    0.6897   43.5221   51.9128 N   0  0  0  0  0  0  0  0  0  0  0  0
   -0.2511   44.1629   52.6299 C   0  0  0  0  0  3  0  0  0  0  0  0
    1.3106   45.8307   53.2206 C   0  0  0  0  0  3  0  0  0  0  0  0
    0.0194   45.3388   53.3104 C   0  0  0  0  0  3  0  0  0  0  0  0
    2.9082   43.3516   51.0961 O   0  0  0  0  0  0  0  0  0  0  0  0
    2.6231   42.1998   50.2891 C   0  0  0  0  0  2  0  0  0  0  0  0
    3.8844   41.6700   49.6770 C   0  0  0  0  0  1  0  0  0  0  0  0
    6.4980   45.7692   53.2316 C   0  0  0  0  0  2  0  0  0  0  0  0
    7.6117   46.4025   52.5714 N   0  0  0  0  0  0  0  0  0  0  0  0
    8.0072   47.7680   52.8614 C   0  0  0  0  0  1  0  0  0  0  0  0
    8.3883   45.7103   51.5894 C   0  0  0  0  0  0  0  0  0  0  0  0
    9.6463   46.1063   51.2757 N   0  0  0  0  0  0  0  0  0  0  0  0
    7.7889   44.6227   50.9824 C   0  0  0  0  0  0  0  0  0  0  0  0
   10.2911   45.3773   50.3306 C   0  0  0  0  0  3  0  0  0  0  0  0
    6.5783   44.0514   51.1242 N   0  0  0  0  0  0  0  0  0  0  0  0
    8.5010   43.9300   50.0332 C   0  0  0  0  0  0  0  0  0  0  0  0
    9.7374   44.3209   49.7264 N   0  0  0  0  0  0  0  0  0  0  0  0
    6.5364   43.0274   50.2840 C   0  0  0  0  0  3  0  0  0  0  0  0
    7.6899   42.9391   49.6165 N   0  0  0  0  0  0  0  0  0  0  0  0
  1  2  1  0
  2  3  2  0
  2 14  1  0
  4  1  1  0
  5  9  1  0
  5  4  1  0
  6  5  2  0
  7  8  2  0
  7  6  1  0
  8 10  1  0
 10  9  2  0
 11  6  1  0
 12 13  1  0
 12 11  1  0
 15 16  1  0
 15 14  1  0
 15 17  1  0
 17 18  2  0
 18 20  1  0
 19 17  1  0
 19 22  2  0
 21 24  1  0
 21 19  1  0
 22 23  1  0
 23 20  2  0
 24 25  2  0
 25 22  1  0
M  RAD  8   4   3   8   2   9   2  10   2  12   3  13   2  14   3  16   2
M  RAD  2  20   2  24   2
M  END
>  <REMARK>  (1) 
 SMILES CCOc1ncccc1CNC(=O)CN(C)c1ncnc2nc[nH]c12
 SMILES IDX 11 1 12 2 13 3 10 5 9 6 4 7 5 8 6 9 8 10 7 11 3 12 2 13 1 14
 SMILES IDX 14 15 15 16 16 17 17 18 18 19 25 20 19 21 24 22 21 23 20 24
 SMILES IDX 23 25 22 26
 H PARENT 11 4 24 27

>  <TORSDO>  (1) 
F 7

$$$$
