/home/pchatterjee/Documents/git/vs_workflow/DiffDock/diffdock_run/pdbqt_scrubbed/Z746476900.pdbqt
     RDKit          3D

 25 27  0  0  0  0  0  0  0  0999 V2000
    3.0626   42.7788   51.1073 N   0  0  0  0  0  0  0  0  0  0  0  0
    3.6716   44.0629   51.3089 C   0  0  0  0  0  0  0  0  0  0  0  0
    3.1181   45.0918   50.8010 O   0  0  0  0  0  0  0  0  0  0  0  0
    3.9677   41.6617   50.9383 C   0  0  0  0  0  2  0  0  0  0  0  0
    4.0240   41.2125   49.5184 C   0  0  0  0  0  0  0  0  0  0  0  0
    2.8729   40.6926   48.9590 C   0  0  0  0  0  0  0  0  0  0  0  0
    2.9051   40.2817   47.6772 N   0  0  0  0  0  0  0  0  0  0  0  0
    4.0297   40.3700   46.9440 C   0  0  0  0  0  3  0  0  0  0  0  0
    5.1750   41.3076   48.7822 C   0  0  0  0  0  3  0  0  0  0  0  0
    5.2060   40.8845   47.4642 C   0  0  0  0  0  3  0  0  0  0  0  0
    1.7316   40.6055   49.7109 O   0  0  0  0  0  0  0  0  0  0  0  0
    0.5085   40.0570   49.1989 C   0  0  0  0  0  2  0  0  0  0  0  0
   -0.6223   40.3423   50.1403 C   0  0  0  0  0  1  0  0  0  0  0  0
    4.9078   44.1847   52.0855 C   0  0  0  0  0  2  0  0  0  0  0  0
    5.7976   45.2096   51.6006 N   0  0  0  0  0  0  0  0  0  0  0  0
    5.5846   46.6162   51.8857 C   0  0  0  0  0  1  0  0  0  0  0  0
    6.9440   44.8878   50.8077 C   0  0  0  0  0  0  0  0  0  0  0  0
    6.8541   44.0583   49.7393 N   0  0  0  0  0  0  0  0  0  0  0  0
    8.1404   45.4657   51.1888 C   0  0  0  0  0  0  0  0  0  0  0  0
    8.0038   43.8224   49.0589 C   0  0  0  0  0  3  0  0  0  0  0  0
    8.4712   46.3027   52.1899 N   0  0  0  0  0  0  0  0  0  0  0  0
    9.2661   45.1825   50.4535 C   0  0  0  0  0  0  0  0  0  0  0  0
    9.1754   44.3668   49.4037 N   0  0  0  0  0  0  0  0  0  0  0  0
    9.7713   46.5356   52.0816 C   0  0  0  0  0  3  0  0  0  0  0  0
   10.2680   45.8668   51.0378 N   0  0  0  0  0  0  0  0  0  0  0  0
  1  2  1  0
  2  3  2  0
  2 14  1  0
  4  1  1  0
  5  9  1  0
  5  4  1  0
  6  5  2  0
  7  8  2  0
  7  6  1  0
  8 10  1  0
 10  9  2  0
 11  6  1  0
 12 13  1  0
 12 11  1  0
 15 16  1  0
 15 14  1  0
 15 17  1  0
 17 18  2  0
 18 20  1  0
 19 17  1  0
 19 22  2  0
 21 24  1  0
 21 19  1  0
 22 23  1  0
 23 20  2  0
 24 25  2  0
 25 22  1  0
M  RAD  8   4   3   8   2   9   2  10   2  12   3  13   2  14   3  16   2
M  RAD  2  20   2  24   2
M  END
>  <REMARK>  (1) 
 SMILES CCOc1ncccc1CNC(=O)CN(C)c1ncnc2nc[nH]c12
 SMILES IDX 11 1 12 2 13 3 10 5 9 6 4 7 5 8 6 9 8 10 7 11 3 12 2 13 1 14
 SMILES IDX 14 15 15 16 16 17 17 18 18 19 25 20 19 21 24 22 21 23 20 24
 SMILES IDX 23 25 22 26
 H PARENT 11 4 24 27

>  <TORSDO>  (1) 
F 7

$$$$
