/home/pchatterjee/Documents/git/vs_workflow/DiffDock/diffdock_run/pdbqt_scrubbed/Z746476900.pdbqt
     RDKit          3D

 25 27  0  0  0  0  0  0  0  0999 V2000
    2.7781   44.9546   52.9542 N   0  0  0  0  0  0  0  0  0  0  0  0
    4.1143   45.4008   53.2298 C   0  0  0  0  0  0  0  0  0  0  0  0
    4.6426   45.1029   54.3502 O   0  0  0  0  0  0  0  0  0  0  0  0
    2.4449   44.7582   51.5592 C   0  0  0  0  0  2  0  0  0  0  0  0
    1.3721   43.7376   51.3910 C   0  0  0  0  0  0  0  0  0  0  0  0
    1.6716   42.5979   50.6701 C   0  0  0  0  0  0  0  0  0  0  0  0
    0.7144   41.6648   50.5079 N   0  0  0  0  0  0  0  0  0  0  0  0
   -0.5140   41.8267   51.0323 C   0  0  0  0  0  3  0  0  0  0  0  0
    0.1252   43.9137   51.9296 C   0  0  0  0  0  3  0  0  0  0  0  0
   -0.8577   42.9530   51.7617 C   0  0  0  0  0  3  0  0  0  0  0  0
    2.9239   42.4395   50.1390 O   0  0  0  0  0  0  0  0  0  0  0  0
    3.2413   41.3978   49.2046 C   0  0  0  0  0  2  0  0  0  0  0  0
    4.6710   40.9769   49.3627 C   0  0  0  0  0  1  0  0  0  0  0  0
    4.8548   46.1847   52.2382 C   0  0  0  0  0  2  0  0  0  0  0  0
    6.2810   46.1818   52.4455 N   0  0  0  0  0  0  0  0  0  0  0  0
    6.8992   46.8504   53.5751 C   0  0  0  0  0  1  0  0  0  0  0  0
    7.1648   45.5139   51.5402 C   0  0  0  0  0  0  0  0  0  0  0  0
    6.7098   44.5828   50.6662 N   0  0  0  0  0  0  0  0  0  0  0  0
    8.4992   45.8681   51.6056 C   0  0  0  0  0  0  0  0  0  0  0  0
    7.6352   44.0130   49.8543 C   0  0  0  0  0  3  0  0  0  0  0  0
    9.1737   46.7453   52.3724 N   0  0  0  0  0  0  0  0  0  0  0  0
    9.3817   45.2500   50.7529 C   0  0  0  0  0  0  0  0  0  0  0  0
    8.9323   44.3351   49.8946 N   0  0  0  0  0  0  0  0  0  0  0  0
   10.4456   46.6758   52.0068 C   0  0  0  0  0  3  0  0  0  0  0  0
   10.5896   45.7773   51.0292 N   0  0  0  0  0  0  0  0  0  0  0  0
  1  2  1  0
  2  3  2  0
  2 14  1  0
  4  1  1  0
  5  9  1  0
  5  4  1  0
  6  5  2  0
  7  8  2  0
  7  6  1  0
  8 10  1  0
 10  9  2  0
 11  6  1  0
 12 13  1  0
 12 11  1  0
 15 16  1  0
 15 14  1  0
 15 17  1  0
 17 18  2  0
 18 20  1  0
 19 17  1  0
 19 22  2  0
 21 24  1  0
 21 19  1  0
 22 23  1  0
 23 20  2  0
 24 25  2  0
 25 22  1  0
M  RAD  8   4   3   8   2   9   2  10   2  12   3  13   2  14   3  16   2
M  RAD  2  20   2  24   2
M  END
>  <REMARK>  (1) 
 SMILES CCOc1ncccc1CNC(=O)CN(C)c1ncnc2nc[nH]c12
 SMILES IDX 11 1 12 2 13 3 10 5 9 6 4 7 5 8 6 9 8 10 7 11 3 12 2 13 1 14
 SMILES IDX 14 15 15 16 16 17 17 18 18 19 25 20 19 21 24 22 21 23 20 24
 SMILES IDX 23 25 22 26
 H PARENT 11 4 24 27

>  <TORSDO>  (1) 
F 7

$$$$
