/home/pchatterjee/Documents/git/vs_workflow/DiffDock/diffdock_run/pdbqt_scrubbed/Z746476900.pdbqt
     RDKit          3D

 25 27  0  0  0  0  0  0  0  0999 V2000
    3.1302   44.7203   53.1452 N   0  0  0  0  0  0  0  0  0  0  0  0
    4.0520   45.8196   53.1930 C   0  0  0  0  0  0  0  0  0  0  0  0
    4.0728   46.5591   54.2301 O   0  0  0  0  0  0  0  0  0  0  0  0
    2.5030   44.4673   51.8652 C   0  0  0  0  0  2  0  0  0  0  0  0
    1.6369   43.2554   51.9098 C   0  0  0  0  0  0  0  0  0  0  0  0
    1.9611   42.1985   51.0816 C   0  0  0  0  0  0  0  0  0  0  0  0
    1.1896   41.0952   51.1085 N   0  0  0  0  0  0  0  0  0  0  0  0
    0.1210   41.0106   51.9215 C   0  0  0  0  0  3  0  0  0  0  0  0
    0.5514   43.1811   52.7418 C   0  0  0  0  0  3  0  0  0  0  0  0
   -0.2406   42.0457   52.7681 C   0  0  0  0  0  3  0  0  0  0  0  0
    3.0502   42.2913   50.2565 O   0  0  0  0  0  0  0  0  0  0  0  0
    3.5280   41.1836   49.4795 C   0  0  0  0  0  2  0  0  0  0  0  0
    5.0027   41.3119   49.2452 C   0  0  0  0  0  1  0  0  0  0  0  0
    4.9516   46.0838   52.0674 C   0  0  0  0  0  2  0  0  0  0  0  0
    6.3487   46.0276   52.4172 N   0  0  0  0  0  0  0  0  0  0  0  0
    6.8546   46.5638   53.6669 C   0  0  0  0  0  1  0  0  0  0  0  0
    7.3132   45.4355   51.5423 C   0  0  0  0  0  0  0  0  0  0  0  0
    6.9606   44.4878   50.6394 N   0  0  0  0  0  0  0  0  0  0  0  0
    8.6159   45.8802   51.6677 C   0  0  0  0  0  0  0  0  0  0  0  0
    7.9561   43.9950   49.8606 C   0  0  0  0  0  3  0  0  0  0  0  0
    9.1955   46.7908   52.4721 N   0  0  0  0  0  0  0  0  0  0  0  0
    9.5736   45.3369   50.8458 C   0  0  0  0  0  0  0  0  0  0  0  0
    9.2248   44.4055   49.9590 N   0  0  0  0  0  0  0  0  0  0  0  0
   10.4832   46.8148   52.1595 C   0  0  0  0  0  3  0  0  0  0  0  0
   10.7295   45.9424   51.1786 N   0  0  0  0  0  0  0  0  0  0  0  0
  1  2  1  0
  2  3  2  0
  2 14  1  0
  4  1  1  0
  5  9  1  0
  5  4  1  0
  6  5  2  0
  7  8  2  0
  7  6  1  0
  8 10  1  0
 10  9  2  0
 11  6  1  0
 12 13  1  0
 12 11  1  0
 15 16  1  0
 15 14  1  0
 15 17  1  0
 17 18  2  0
 18 20  1  0
 19 17  1  0
 19 22  2  0
 21 24  1  0
 21 19  1  0
 22 23  1  0
 23 20  2  0
 24 25  2  0
 25 22  1  0
M  RAD  8   4   3   8   2   9   2  10   2  12   3  13   2  14   3  16   2
M  RAD  2  20   2  24   2
M  END
>  <REMARK>  (1) 
 SMILES CCOc1ncccc1CNC(=O)CN(C)c1ncnc2nc[nH]c12
 SMILES IDX 11 1 12 2 13 3 10 5 9 6 4 7 5 8 6 9 8 10 7 11 3 12 2 13 1 14
 SMILES IDX 14 15 15 16 16 17 17 18 18 19 25 20 19 21 24 22 21 23 20 24
 SMILES IDX 23 25 22 26
 H PARENT 11 4 24 27

>  <TORSDO>  (1) 
F 7

$$$$
