/home/pchatterjee/Documents/git/vs_workflow/DiffDock/diffdock_run/pdbqt_scrubbed/Z746476900.pdbqt
     RDKit          3D

 25 27  0  0  0  0  0  0  0  0999 V2000
    3.1821   44.5814   52.2478 N   0  0  0  0  0  0  0  0  0  0  0  0
    4.5617   44.7361   51.8829 C   0  0  0  0  0  0  0  0  0  0  0  0
    5.2068   45.7391   52.3310 O   0  0  0  0  0  0  0  0  0  0  0  0
    2.3379   43.9071   51.2843 C   0  0  0  0  0  2  0  0  0  0  0  0
    0.9236   43.8380   51.7491 C   0  0  0  0  0  0  0  0  0  0  0  0
    0.1865   42.7194   51.4121 C   0  0  0  0  0  0  0  0  0  0  0  0
   -1.0932   42.6399   51.8235 N   0  0  0  0  0  0  0  0  0  0  0  0
   -1.6553   43.6233   52.5492 C   0  0  0  0  0  3  0  0  0  0  0  0
    0.3624   44.8458   52.4876 C   0  0  0  0  0  3  0  0  0  0  0  0
   -0.9537   44.7620   52.9097 C   0  0  0  0  0  3  0  0  0  0  0  0
    0.7649   41.7220   50.6731 O   0  0  0  0  0  0  0  0  0  0  0  0
    0.0306   40.5814   50.2053 C   0  0  0  0  0  2  0  0  0  0  0  0
    0.9331   39.6617   49.4398 C   0  0  0  0  0  1  0  0  0  0  0  0
    5.2134   43.7561   51.0106 C   0  0  0  0  0  2  0  0  0  0  0  0
    6.4907   44.1909   50.5040 N   0  0  0  0  0  0  0  0  0  0  0  0
    7.0882   43.6124   49.3151 C   0  0  0  0  0  1  0  0  0  0  0  0
    7.2385   45.2229   51.1539 C   0  0  0  0  0  0  0  0  0  0  0  0
    6.6268   46.1787   51.8956 N   0  0  0  0  0  0  0  0  0  0  0  0
    8.6100   45.1917   50.9847 C   0  0  0  0  0  0  0  0  0  0  0  0
    7.4330   47.1083   52.4668 C   0  0  0  0  0  3  0  0  0  0  0  0
    9.4273   44.3617   50.3099 N   0  0  0  0  0  0  0  0  0  0  0  0
    9.3654   46.1653   51.5925 C   0  0  0  0  0  0  0  0  0  0  0  0
    8.7621   47.1038   52.3211 N   0  0  0  0  0  0  0  0  0  0  0  0
   10.6621   44.8069   50.4924 C   0  0  0  0  0  3  0  0  0  0  0  0
   10.6436   45.8961   51.2650 N   0  0  0  0  0  0  0  0  0  0  0  0
  1  2  1  0
  2  3  2  0
  2 14  1  0
  4  1  1  0
  5  9  1  0
  5  4  1  0
  6  5  2  0
  7  8  2  0
  7  6  1  0
  8 10  1  0
 10  9  2  0
 11  6  1  0
 12 13  1  0
 12 11  1  0
 15 16  1  0
 15 14  1  0
 15 17  1  0
 17 18  2  0
 18 20  1  0
 19 17  1  0
 19 22  2  0
 21 24  1  0
 21 19  1  0
 22 23  1  0
 23 20  2  0
 24 25  2  0
 25 22  1  0
M  RAD  8   4   3   8   2   9   2  10   2  12   3  13   2  14   3  16   2
M  RAD  2  20   2  24   2
M  END
>  <REMARK>  (1) 
 SMILES CCOc1ncccc1CNC(=O)CN(C)c1ncnc2nc[nH]c12
 SMILES IDX 11 1 12 2 13 3 10 5 9 6 4 7 5 8 6 9 8 10 7 11 3 12 2 13 1 14
 SMILES IDX 14 15 15 16 16 17 17 18 18 19 25 20 19 21 24 22 21 23 20 24
 SMILES IDX 23 25 22 26
 H PARENT 11 4 24 27

>  <TORSDO>  (1) 
F 7

$$$$
