/home/pchatterjee/Documents/git/vs_workflow/DiffDock/diffdock_run/pdbqt_scrubbed/Z746476900.pdbqt
     RDKit          3D

 25 27  0  0  0  0  0  0  0  0999 V2000
    5.0259   47.3573   53.7983 N   0  0  0  0  0  0  0  0  0  0  0  0
    5.0390   46.1091   53.0896 C   0  0  0  0  0  0  0  0  0  0  0  0
    4.6476   45.0568   53.6916 O   0  0  0  0  0  0  0  0  0  0  0  0
    5.6354   48.4827   53.1219 C   0  0  0  0  0  2  0  0  0  0  0  0
    5.5873   49.7155   53.9579 C   0  0  0  0  0  0  0  0  0  0  0  0
    6.7388   50.0913   54.6220 C   0  0  0  0  0  0  0  0  0  0  0  0
    6.7139   51.2025   55.3821 N   0  0  0  0  0  0  0  0  0  0  0  0
    5.5960   51.9416   55.5012 C   0  0  0  0  0  3  0  0  0  0  0  0
    4.4431   50.4598   54.0714 C   0  0  0  0  0  3  0  0  0  0  0  0
    4.4195   51.6021   54.8535 C   0  0  0  0  0  3  0  0  0  0  0  0
    7.8732   49.3344   54.4964 O   0  0  0  0  0  0  0  0  0  0  0  0
    9.0975   49.6587   55.1708 C   0  0  0  0  0  2  0  0  0  0  0  0
   10.1269   48.5997   54.9152 C   0  0  0  0  0  1  0  0  0  0  0  0
    5.4950   46.0497   51.6987 C   0  0  0  0  0  2  0  0  0  0  0  0
    5.6654   44.7075   51.2020 N   0  0  0  0  0  0  0  0  0  0  0  0
    4.6346   43.6958   51.3401 C   0  0  0  0  0  1  0  0  0  0  0  0
    6.8691   44.3034   50.5431 C   0  0  0  0  0  0  0  0  0  0  0  0
    6.8630   43.3420   49.5873 N   0  0  0  0  0  0  0  0  0  0  0  0
    8.0309   44.9432   50.9323 C   0  0  0  0  0  0  0  0  0  0  0  0
    8.0612   43.0376   49.0288 C   0  0  0  0  0  3  0  0  0  0  0  0
    8.2821   45.9069   51.8381 N   0  0  0  0  0  0  0  0  0  0  0  0
    9.2094   44.5844   50.3238 C   0  0  0  0  0  0  0  0  0  0  0  0
    9.2012   43.6392   49.3846 N   0  0  0  0  0  0  0  0  0  0  0  0
    9.5854   46.1432   51.7954 C   0  0  0  0  0  3  0  0  0  0  0  0
   10.1616   45.3530   50.8859 N   0  0  0  0  0  0  0  0  0  0  0  0
  1  2  1  0
  2  3  2  0
  2 14  1  0
  4  1  1  0
  5  9  1  0
  5  4  1  0
  6  5  2  0
  7  8  2  0
  7  6  1  0
  8 10  1  0
 10  9  2  0
 11  6  1  0
 12 13  1  0
 12 11  1  0
 15 16  1  0
 15 14  1  0
 15 17  1  0
 17 18  2  0
 18 20  1  0
 19 17  1  0
 19 22  2  0
 21 24  1  0
 21 19  1  0
 22 23  1  0
 23 20  2  0
 24 25  2  0
 25 22  1  0
M  RAD  8   4   3   8   2   9   2  10   2  12   3  13   2  14   3  16   2
M  RAD  2  20   2  24   2
M  END
>  <REMARK>  (1) 
 SMILES CCOc1ncccc1CNC(=O)CN(C)c1ncnc2nc[nH]c12
 SMILES IDX 11 1 12 2 13 3 10 5 9 6 4 7 5 8 6 9 8 10 7 11 3 12 2 13 1 14
 SMILES IDX 14 15 15 16 16 17 17 18 18 19 25 20 19 21 24 22 21 23 20 24
 SMILES IDX 23 25 22 26
 H PARENT 11 4 24 27

>  <TORSDO>  (1) 
F 7

$$$$
