/home/pchatterjee/Documents/git/vs_workflow/DiffDock/diffdock_run/pdbqt_scrubbed/Z746476900.pdbqt
     RDKit          3D

 25 27  0  0  0  0  0  0  0  0999 V2000
    4.6119   47.6030   53.5853 N   0  0  0  0  0  0  0  0  0  0  0  0
    4.6845   46.2647   53.0714 C   0  0  0  0  0  0  0  0  0  0  0  0
    3.6482   45.5262   53.1323 O   0  0  0  0  0  0  0  0  0  0  0  0
    5.8300   48.1340   54.1598 C   0  0  0  0  0  2  0  0  0  0  0  0
    5.6797   49.5693   54.5314 C   0  0  0  0  0  0  0  0  0  0  0  0
    6.7852   50.2250   55.0377 C   0  0  0  0  0  0  0  0  0  0  0  0
    6.6679   51.5223   55.3789 N   0  0  0  0  0  0  0  0  0  0  0  0
    5.5028   52.1792   55.2347 C   0  0  0  0  0  3  0  0  0  0  0  0
    4.4881   50.2274   54.3800 C   0  0  0  0  0  3  0  0  0  0  0  0
    4.3696   51.5615   54.7315 C   0  0  0  0  0  3  0  0  0  0  0  0
    7.9682   49.5503   55.1818 O   0  0  0  0  0  0  0  0  0  0  0  0
    9.1916   50.2045   55.5485 C   0  0  0  0  0  2  0  0  0  0  0  0
   10.3192   49.2176   55.5770 C   0  0  0  0  0  1  0  0  0  0  0  0
    5.9298   45.7599   52.4878 C   0  0  0  0  0  2  0  0  0  0  0  0
    5.7498   45.1050   51.2166 N   0  0  0  0  0  0  0  0  0  0  0  0
    4.4421   44.9427   50.6092 C   0  0  0  0  0  1  0  0  0  0  0  0
    6.8607   44.5784   50.4851 C   0  0  0  0  0  0  0  0  0  0  0  0
    6.6837   43.7077   49.4612 N   0  0  0  0  0  0  0  0  0  0  0  0
    8.1159   45.0036   50.8776 C   0  0  0  0  0  0  0  0  0  0  0  0
    7.8070   43.2722   48.8375 C   0  0  0  0  0  3  0  0  0  0  0  0
    8.5341   45.8436   51.8429 N   0  0  0  0  0  0  0  0  0  0  0  0
    9.2101   44.5214   50.2008 C   0  0  0  0  0  0  0  0  0  0  0  0
    9.0340   43.6657   49.1946 N   0  0  0  0  0  0  0  0  0  0  0  0
    9.8567   45.8843   51.7697 C   0  0  0  0  0  3  0  0  0  0  0  0
   10.2824   45.0913   50.7830 N   0  0  0  0  0  0  0  0  0  0  0  0
  1  2  1  0
  2  3  2  0
  2 14  1  0
  4  1  1  0
  5  9  1  0
  5  4  1  0
  6  5  2  0
  7  8  2  0
  7  6  1  0
  8 10  1  0
 10  9  2  0
 11  6  1  0
 12 13  1  0
 12 11  1  0
 15 16  1  0
 15 14  1  0
 15 17  1  0
 17 18  2  0
 18 20  1  0
 19 17  1  0
 19 22  2  0
 21 24  1  0
 21 19  1  0
 22 23  1  0
 23 20  2  0
 24 25  2  0
 25 22  1  0
M  RAD  8   4   3   8   2   9   2  10   2  12   3  13   2  14   3  16   2
M  RAD  2  20   2  24   2
M  END
>  <REMARK>  (1) 
 SMILES CCOc1ncccc1CNC(=O)CN(C)c1ncnc2nc[nH]c12
 SMILES IDX 11 1 12 2 13 3 10 5 9 6 4 7 5 8 6 9 8 10 7 11 3 12 2 13 1 14
 SMILES IDX 14 15 15 16 16 17 17 18 18 19 25 20 19 21 24 22 21 23 20 24
 SMILES IDX 23 25 22 26
 H PARENT 11 4 24 27

>  <TORSDO>  (1) 
F 7

$$$$
