/home/pchatterjee/Documents/git/vs_workflow/DiffDock/diffdock_run/pdbqt_scrubbed/Z746476900.pdbqt
     RDKit          3D

 25 27  0  0  0  0  0  0  0  0999 V2000
    4.0247   46.1908   53.3674 N   0  0  0  0  0  0  0  0  0  0  0  0
    5.4206   46.4645   53.5601 C   0  0  0  0  0  0  0  0  0  0  0  0
    5.7600   47.5476   54.1386 O   0  0  0  0  0  0  0  0  0  0  0  0
    3.7024   44.9312   52.7308 C   0  0  0  0  0  2  0  0  0  0  0  0
    2.2293   44.7383   52.6134 C   0  0  0  0  0  0  0  0  0  0  0  0
    1.7627   43.4627   52.3615 C   0  0  0  0  0  0  0  0  0  0  0  0
    0.4345   43.2696   52.2522 N   0  0  0  0  0  0  0  0  0  0  0  0
   -0.4322   44.2901   52.3835 C   0  0  0  0  0  3  0  0  0  0  0  0
    1.3568   45.7852   52.7490 C   0  0  0  0  0  3  0  0  0  0  0  0
   -0.0086   45.5846   52.6363 C   0  0  0  0  0  3  0  0  0  0  0  0
    2.6504   42.4284   52.2290 O   0  0  0  0  0  0  0  0  0  0  0  0
    2.6175   41.5187   51.1198 C   0  0  0  0  0  2  0  0  0  0  0  0
    3.7767   40.5713   51.1912 C   0  0  0  0  0  1  0  0  0  0  0  0
    6.4345   45.5131   53.0985 C   0  0  0  0  0  2  0  0  0  0  0  0
    7.6660   46.1358   52.6827 N   0  0  0  0  0  0  0  0  0  0  0  0
    8.2208   47.2866   53.3705 C   0  0  0  0  0  1  0  0  0  0  0  0
    8.4082   45.6457   51.5622 C   0  0  0  0  0  0  0  0  0  0  0  0
    9.7389   45.8749   51.4412 N   0  0  0  0  0  0  0  0  0  0  0  0
    7.6982   44.9305   50.6163 C   0  0  0  0  0  0  0  0  0  0  0  0
   10.3421   45.3640   50.3387 C   0  0  0  0  0  3  0  0  0  0  0  0
    6.4015   44.5816   50.5204 N   0  0  0  0  0  0  0  0  0  0  0  0
    8.3738   44.4420   49.5241 C   0  0  0  0  0  0  0  0  0  0  0  0
    9.6817   44.6684   49.4071 N   0  0  0  0  0  0  0  0  0  0  0  0
    6.2717   43.8925   49.3958 C   0  0  0  0  0  3  0  0  0  0  0  0
    7.4535   43.7983   48.7809 N   0  0  0  0  0  0  0  0  0  0  0  0
  1  2  1  0
  2  3  2  0
  2 14  1  0
  4  1  1  0
  5  9  1  0
  5  4  1  0
  6  5  2  0
  7  8  2  0
  7  6  1  0
  8 10  1  0
 10  9  2  0
 11  6  1  0
 12 13  1  0
 12 11  1  0
 15 16  1  0
 15 14  1  0
 15 17  1  0
 17 18  2  0
 18 20  1  0
 19 17  1  0
 19 22  2  0
 21 24  1  0
 21 19  1  0
 22 23  1  0
 23 20  2  0
 24 25  2  0
 25 22  1  0
M  RAD  8   4   3   8   2   9   2  10   2  12   3  13   2  14   3  16   2
M  RAD  2  20   2  24   2
M  END
>  <REMARK>  (1) 
 SMILES CCOc1ncccc1CNC(=O)CN(C)c1ncnc2nc[nH]c12
 SMILES IDX 11 1 12 2 13 3 10 5 9 6 4 7 5 8 6 9 8 10 7 11 3 12 2 13 1 14
 SMILES IDX 14 15 15 16 16 17 17 18 18 19 25 20 19 21 24 22 21 23 20 24
 SMILES IDX 23 25 22 26
 H PARENT 11 4 24 27

>  <TORSDO>  (1) 
F 7

$$$$
