/home/pchatterjee/Documents/git/vs_workflow/DiffDock/diffdock_run/pdbqt_scrubbed/Z746476900.pdbqt
     RDKit          3D

 25 27  0  0  0  0  0  0  0  0999 V2000
    4.7680   44.8952   54.0671 N   0  0  0  0  0  0  0  0  0  0  0  0
    5.7188   45.1956   53.0346 C   0  0  0  0  0  0  0  0  0  0  0  0
    6.1664   44.2437   52.3158 O   0  0  0  0  0  0  0  0  0  0  0  0
    4.2237   46.0289   54.7842 C   0  0  0  0  0  2  0  0  0  0  0  0
    2.8642   45.7364   55.3199 C   0  0  0  0  0  0  0  0  0  0  0  0
    1.7940   45.8268   54.4511 C   0  0  0  0  0  0  0  0  0  0  0  0
    0.5581   45.5660   54.9177 N   0  0  0  0  0  0  0  0  0  0  0  0
    0.3553   45.2229   56.2026 C   0  0  0  0  0  3  0  0  0  0  0  0
    2.6703   45.3880   56.6302 C   0  0  0  0  0  3  0  0  0  0  0  0
    1.3986   45.1201   57.1080 C   0  0  0  0  0  3  0  0  0  0  0  0
    2.0076   46.1766   53.1444 O   0  0  0  0  0  0  0  0  0  0  0  0
    1.0056   46.0216   52.1289 C   0  0  0  0  0  2  0  0  0  0  0  0
    1.6328   46.0750   50.7688 C   0  0  0  0  0  1  0  0  0  0  0  0
    6.1646   46.5735   52.8137 C   0  0  0  0  0  2  0  0  0  0  0  0
    7.5875   46.6978   52.6208 N   0  0  0  0  0  0  0  0  0  0  0  0
    8.3895   47.6452   53.3721 C   0  0  0  0  0  1  0  0  0  0  0  0
    8.2849   45.8865   51.6710 C   0  0  0  0  0  0  0  0  0  0  0  0
    9.5305   46.2101   51.2448 N   0  0  0  0  0  0  0  0  0  0  0  0
    7.6229   44.7620   51.2153 C   0  0  0  0  0  0  0  0  0  0  0  0
   10.0978   45.3701   50.3432 C   0  0  0  0  0  3  0  0  0  0  0  0
    6.4097   44.2452   51.4860 N   0  0  0  0  0  0  0  0  0  0  0  0
    8.2579   43.9555   50.3019 C   0  0  0  0  0  0  0  0  0  0  0  0
    9.4822   44.2754   49.8843 N   0  0  0  0  0  0  0  0  0  0  0  0
    6.2911   43.1433   50.7593 C   0  0  0  0  0  3  0  0  0  0  0  0
    7.3987   42.9528   50.0376 N   0  0  0  0  0  0  0  0  0  0  0  0
  1  2  1  0
  2  3  2  0
  2 14  1  0
  4  1  1  0
  5  9  1  0
  5  4  1  0
  6  5  2  0
  7  8  2  0
  7  6  1  0
  8 10  1  0
 10  9  2  0
 11  6  1  0
 12 13  1  0
 12 11  1  0
 15 16  1  0
 15 14  1  0
 15 17  1  0
 17 18  2  0
 18 20  1  0
 19 17  1  0
 19 22  2  0
 21 24  1  0
 21 19  1  0
 22 23  1  0
 23 20  2  0
 24 25  2  0
 25 22  1  0
M  RAD  8   4   3   8   2   9   2  10   2  12   3  13   2  14   3  16   2
M  RAD  2  20   2  24   2
M  END
>  <REMARK>  (1) 
 SMILES CCOc1ncccc1CNC(=O)CN(C)c1ncnc2nc[nH]c12
 SMILES IDX 11 1 12 2 13 3 10 5 9 6 4 7 5 8 6 9 8 10 7 11 3 12 2 13 1 14
 SMILES IDX 14 15 15 16 16 17 17 18 18 19 25 20 19 21 24 22 21 23 20 24
 SMILES IDX 23 25 22 26
 H PARENT 11 4 24 27

>  <TORSDO>  (1) 
F 7

$$$$
