/home/pchatterjee/Documents/git/vs_workflow/DiffDock/diffdock_run/pdbqt_scrubbed/Z746476900.pdbqt
     RDKit          3D

 25 27  0  0  0  0  0  0  0  0999 V2000
    3.3067   43.4441   52.6992 N   0  0  0  0  0  0  0  0  0  0  0  0
    4.4568   44.2787   52.9018 C   0  0  0  0  0  0  0  0  0  0  0  0
    5.3075   43.9472   53.7903 O   0  0  0  0  0  0  0  0  0  0  0  0
    2.4966   43.7433   51.5374 C   0  0  0  0  0  2  0  0  0  0  0  0
    1.6905   42.5637   51.1134 C   0  0  0  0  0  0  0  0  0  0  0  0
    2.2761   41.6571   50.2511 C   0  0  0  0  0  0  0  0  0  0  0  0
    1.5626   40.5852   49.8574 N   0  0  0  0  0  0  0  0  0  0  0  0
    0.3031   40.3887   50.2876 C   0  0  0  0  0  3  0  0  0  0  0  0
    0.4090   42.3746   51.5582 C   0  0  0  0  0  3  0  0  0  0  0  0
   -0.3229   41.2716   51.1521 C   0  0  0  0  0  3  0  0  0  0  0  0
    3.5585   41.8631   49.8171 O   0  0  0  0  0  0  0  0  0  0  0  0
    4.3366   40.8342   49.1885 C   0  0  0  0  0  2  0  0  0  0  0  0
    5.7518   41.2925   49.0058 C   0  0  0  0  0  1  0  0  0  0  0  0
    4.6461   45.4897   52.0995 C   0  0  0  0  0  2  0  0  0  0  0  0
    6.0085   45.9592   52.0723 N   0  0  0  0  0  0  0  0  0  0  0  0
    6.4676   47.0482   52.9140 C   0  0  0  0  0  1  0  0  0  0  0  0
    6.9832   45.3696   51.2070 C   0  0  0  0  0  0  0  0  0  0  0  0
    6.6388   44.4347   50.2877 N   0  0  0  0  0  0  0  0  0  0  0  0
    8.2869   45.8031   51.3592 C   0  0  0  0  0  0  0  0  0  0  0  0
    7.6436   43.9432   49.5201 C   0  0  0  0  0  3  0  0  0  0  0  0
    8.8596   46.7003   52.1834 N   0  0  0  0  0  0  0  0  0  0  0  0
    9.2542   45.2618   50.5473 C   0  0  0  0  0  0  0  0  0  0  0  0
    8.9135   44.3430   49.6443 N   0  0  0  0  0  0  0  0  0  0  0  0
   10.1524   46.7180   51.8926 C   0  0  0  0  0  3  0  0  0  0  0  0
   10.4088   45.8548   50.9061 N   0  0  0  0  0  0  0  0  0  0  0  0
  1  2  1  0
  2  3  2  0
  2 14  1  0
  4  1  1  0
  5  9  1  0
  5  4  1  0
  6  5  2  0
  7  8  2  0
  7  6  1  0
  8 10  1  0
 10  9  2  0
 11  6  1  0
 12 13  1  0
 12 11  1  0
 15 16  1  0
 15 14  1  0
 15 17  1  0
 17 18  2  0
 18 20  1  0
 19 17  1  0
 19 22  2  0
 21 24  1  0
 21 19  1  0
 22 23  1  0
 23 20  2  0
 24 25  2  0
 25 22  1  0
M  RAD  8   4   3   8   2   9   2  10   2  12   3  13   2  14   3  16   2
M  RAD  2  20   2  24   2
M  END
>  <REMARK>  (1) 
 SMILES CCOc1ncccc1CNC(=O)CN(C)c1ncnc2nc[nH]c12
 SMILES IDX 11 1 12 2 13 3 10 5 9 6 4 7 5 8 6 9 8 10 7 11 3 12 2 13 1 14
 SMILES IDX 14 15 15 16 16 17 17 18 18 19 25 20 19 21 24 22 21 23 20 24
 SMILES IDX 23 25 22 26
 H PARENT 11 4 24 27

>  <TORSDO>  (1) 
F 7

$$$$
