/home/pchatterjee/Documents/git/vs_workflow/DiffDock/diffdock_run/pdbqt_scrubbed/Z1365840340.pdbqt
     RDKit          3D

 26 28  0  0  1  0  0  0  0  0999 V2000
    4.7252   42.2318   49.9716 C   0  0  0  0  0  0  0  0  0  0  0  0
    3.9105   41.7122   48.9799 C   0  0  0  0  0  3  0  0  0  0  0  0
    4.3404   41.6264   47.6708 C   0  0  0  0  0  3  0  0  0  0  0  0
    5.6102   42.0681   47.3426 C   0  0  0  0  0  3  0  0  0  0  0  0
    6.4025   42.5816   48.3482 C   0  0  0  0  0  3  0  0  0  0  0  0
    5.9947   42.6768   49.6606 C   0  0  0  0  0  0  0  0  0  0  0  0
    4.2248   42.2869   51.2673 O   0  0  0  0  0  0  0  0  0  0  0  0
    3.1785   43.2044   51.5293 C   0  0  0  0  0  2  0  0  0  0  0  0
    2.8118   43.1741   53.0003 C   0  0  0  0  0  2  0  0  0  0  0  0
    1.4655   43.5759   53.1519 O   0  0  0  0  0  0  0  0  0  0  0  0
    1.4470   44.9602   53.3630 C   0  0  0  0  0  1  0  0  0  0  0  0
    6.8675   43.2284   50.6968 C   0  0  0  0  0  0  0  0  0  0  0  0
    8.1912   43.5812   50.3446 N   0  0  0  0  0  0  0  0  0  0  0  0
    6.3903   43.3609   51.8568 O   0  0  0  0  0  0  0  0  0  0  0  0
    9.1300   44.2137   51.2430 C   0  0  0  0  0  3  0  0  0  0  0  0
   10.2968   44.7307   50.4363 C   0  0  0  0  0  1  0  0  0  0  0  0
    8.4831   45.3352   51.9728 C   0  0  0  0  0  0  0  0  0  0  0  0
    7.4130   46.0682   51.6710 N   0  0  0  0  0  0  0  0  0  0  0  0
    8.9400   45.7849   53.1275 O   0  0  0  0  0  0  0  0  0  0  0  0
    7.2070   46.9828   52.6531 C   0  0  0  0  0  0  0  0  0  0  0  0
    8.1882   46.7773   53.5572 N   0  0  0  0  0  0  0  0  0  0  0  0
    6.1364   48.0113   52.7480 C   0  0  0  0  0  3  0  0  0  0  0  0
    6.1950   48.6720   54.1083 C   0  0  0  0  0  2  0  0  0  0  0  0
    4.8119   47.2885   52.7860 C   0  0  0  0  0  2  0  0  0  0  0  0
    5.7219   47.5382   55.0163 C   0  0  0  0  0  2  0  0  0  0  0  0
    4.8257   46.6658   54.1631 C   0  0  0  0  0  2  0  0  0  0  0  0
  1  7  1  0
  2  1  2  0
  3  2  1  0
  4  5  1  0
  4  3  2  0
  5  6  2  0
  6 12  1  0
  6  1  1  0
  7  8  1  0
  8  9  1  0
  9 10  1  0
 10 11  1  0
 12 13  1  0
 13 15  1  0
 14 12  2  0
 15 17  1  0
 15 16  1  0
 17 18  2  0
 19 21  1  0
 19 17  1  0
 20 18  1  0
 20 22  1  0
 21 20  2  0
 22 23  1  0
 23 25  1  0
 24 22  1  0
 24 26  1  0
 26 25  1  0
M  RAD  8   2   2   3   2   4   2   5   2   8   3   9   3  11   2  15   2
M  RAD  6  16   2  22   2  23   3  24   3  25   3  26   3
M  END
>  <REMARK>  (1) 
 SMILES COCCOc1ccccc1C(=O)NC(C)c1nc(C2CCCC2)no1
 SMILES IDX 6 1 7 2 8 3 9 4 10 5 11 6 5 7 4 8 3 9 2 10 1 11 12 12 14 13
 SMILES IDX 13 14 15 16 16 17 17 18 18 19 26 20 19 21 25 22 20 23 21 24
 SMILES IDX 24 25 22 26 23 27
 H PARENT 14 15

>  <TORSDO>  (1) 
F 8

$$$$
