/home/pchatterjee/Documents/git/vs_workflow/DiffDock/diffdock_run/pdbqt_scrubbed/Z1365840340.pdbqt
     RDKit          3D

 26 28  0  0  1  0  0  0  0  0999 V2000
    3.8724   42.8745   50.8621 C   0  0  0  0  0  0  0  0  0  0  0  0
    2.6503   42.2786   50.6003 C   0  0  0  0  0  3  0  0  0  0  0  0
    2.4850   41.4216   49.5307 C   0  0  0  0  0  3  0  0  0  0  0  0
    3.5615   41.1524   48.7036 C   0  0  0  0  0  3  0  0  0  0  0  0
    4.7682   41.7583   48.9853 C   0  0  0  0  0  3  0  0  0  0  0  0
    4.9561   42.6163   50.0465 C   0  0  0  0  0  0  0  0  0  0  0  0
    3.9639   43.7263   51.9569 O   0  0  0  0  0  0  0  0  0  0  0  0
    3.0602   44.8147   52.0201 C   0  0  0  0  0  2  0  0  0  0  0  0
    3.4041   45.7132   53.1920 C   0  0  0  0  0  2  0  0  0  0  0  0
    2.2168   46.0610   53.8748 O   0  0  0  0  0  0  0  0  0  0  0  0
    2.1995   45.3718   55.0938 C   0  0  0  0  0  1  0  0  0  0  0  0
    6.2538   43.2380   50.3096 C   0  0  0  0  0  0  0  0  0  0  0  0
    7.2968   43.0409   49.3747 N   0  0  0  0  0  0  0  0  0  0  0  0
    6.3746   43.9211   51.3630 O   0  0  0  0  0  0  0  0  0  0  0  0
    8.6800   43.3827   49.6164 C   0  0  0  0  0  3  0  0  0  0  0  0
    9.3744   43.5537   48.2867 C   0  0  0  0  0  1  0  0  0  0  0  0
    8.7798   44.6388   50.4044 C   0  0  0  0  0  0  0  0  0  0  0  0
    7.8586   45.5510   50.7091 N   0  0  0  0  0  0  0  0  0  0  0  0
    9.9115   45.0416   50.9534 O   0  0  0  0  0  0  0  0  0  0  0  0
    8.4300   46.5302   51.4563 C   0  0  0  0  0  0  0  0  0  0  0  0
    9.7262   46.1783   51.5923 N   0  0  0  0  0  0  0  0  0  0  0  0
    7.7940   47.7494   52.0237 C   0  0  0  0  0  3  0  0  0  0  0  0
    8.8355   48.5590   52.7656 C   0  0  0  0  0  2  0  0  0  0  0  0
    6.8667   47.3072   53.1295 C   0  0  0  0  0  2  0  0  0  0  0  0
    9.1070   47.6671   53.9758 C   0  0  0  0  0  2  0  0  0  0  0  0
    7.8349   46.8798   54.2085 C   0  0  0  0  0  2  0  0  0  0  0  0
  1  7  1  0
  2  1  2  0
  3  2  1  0
  4  5  1  0
  4  3  2  0
  5  6  2  0
  6 12  1  0
  6  1  1  0
  7  8  1  0
  8  9  1  0
  9 10  1  0
 10 11  1  0
 12 13  1  0
 13 15  1  0
 14 12  2  0
 15 17  1  0
 15 16  1  0
 17 18  2  0
 19 21  1  0
 19 17  1  0
 20 18  1  0
 20 22  1  0
 21 20  2  0
 22 23  1  0
 23 25  1  0
 24 22  1  0
 24 26  1  0
 26 25  1  0
M  RAD  8   2   2   3   2   4   2   5   2   8   3   9   3  11   2  15   2
M  RAD  6  16   2  22   2  23   3  24   3  25   3  26   3
M  END
>  <REMARK>  (1) 
 SMILES COCCOc1ccccc1C(=O)NC(C)c1nc(C2CCCC2)no1
 SMILES IDX 6 1 7 2 8 3 9 4 10 5 11 6 5 7 4 8 3 9 2 10 1 11 12 12 14 13
 SMILES IDX 13 14 15 16 16 17 17 18 18 19 26 20 19 21 25 22 20 23 21 24
 SMILES IDX 24 25 22 26 23 27
 H PARENT 14 15

>  <TORSDO>  (1) 
F 8

$$$$
