/home/pchatterjee/Documents/git/vs_workflow/DiffDock/diffdock_run/pdbqt_scrubbed/Z1365840340.pdbqt
     RDKit          3D

 26 28  0  0  1  0  0  0  0  0999 V2000
   10.2756   68.1397   82.2910 C   0  0  0  0  0  0  0  0  0  0  0  0
   10.4431   69.2884   81.5363 C   0  0  0  0  0  3  0  0  0  0  0  0
   11.3848   69.3535   80.5289 C   0  0  0  0  0  3  0  0  0  0  0  0
   12.1774   68.2494   80.2679 C   0  0  0  0  0  3  0  0  0  0  0  0
   11.9914   67.1172   81.0334 C   0  0  0  0  0  3  0  0  0  0  0  0
   11.0583   67.0296   82.0431 C   0  0  0  0  0  0  0  0  0  0  0  0
    9.3075   68.1476   83.2885 O   0  0  0  0  0  0  0  0  0  0  0  0
    8.0959   68.8306   83.0231 C   0  0  0  0  0  2  0  0  0  0  0  0
    7.1341   68.6605   84.1830 C   0  0  0  0  0  2  0  0  0  0  0  0
    5.9605   69.4045   83.9263 O   0  0  0  0  0  0  0  0  0  0  0  0
    5.0969   69.2426   85.0169 C   0  0  0  0  0  1  0  0  0  0  0  0
   10.8937   65.8086   82.8315 C   0  0  0  0  0  0  0  0  0  0  0  0
    9.8771   64.8984   82.4588 N   0  0  0  0  0  0  0  0  0  0  0  0
   11.6720   65.6310   83.8080 O   0  0  0  0  0  0  0  0  0  0  0  0
    9.5513   63.6982   83.1949 C   0  0  0  0  0  3  0  0  0  0  0  0
    8.3967   63.0092   82.5081 C   0  0  0  0  0  1  0  0  0  0  0  0
   10.7225   62.7851   83.2540 C   0  0  0  0  0  0  0  0  0  0  0  0
   11.8316   62.7428   82.5180 N   0  0  0  0  0  0  0  0  0  0  0  0
   10.8119   61.8052   84.1350 O   0  0  0  0  0  0  0  0  0  0  0  0
   12.6160   61.7227   82.9510 C   0  0  0  0  0  0  0  0  0  0  0  0
   11.9434   61.1511   83.9725 N   0  0  0  0  0  0  0  0  0  0  0  0
   13.9434   61.2943   82.4339 C   0  0  0  0  0  3  0  0  0  0  0  0
   14.4817   60.1760   83.2999 C   0  0  0  0  0  2  0  0  0  0  0  0
   14.9184   62.4165   82.6955 C   0  0  0  0  0  2  0  0  0  0  0  0
   14.7951   60.9209   84.5964 C   0  0  0  0  0  2  0  0  0  0  0  0
   15.0869   62.3517   84.1961 C   0  0  0  0  0  2  0  0  0  0  0  0
  1  7  1  0
  2  1  2  0
  3  2  1  0
  4  5  1  0
  4  3  2  0
  5  6  2  0
  6 12  1  0
  6  1  1  0
  7  8  1  0
  8  9  1  0
  9 10  1  0
 10 11  1  0
 12 13  1  0
 13 15  1  0
 14 12  2  0
 15 17  1  0
 15 16  1  0
 17 18  2  0
 19 21  1  0
 19 17  1  0
 20 18  1  0
 20 22  1  0
 21 20  2  0
 22 23  1  0
 23 25  1  0
 24 22  1  0
 24 26  1  0
 26 25  1  0
M  RAD  8   2   2   3   2   4   2   5   2   8   3   9   3  11   2  15   2
M  RAD  6  16   2  22   2  23   3  24   3  25   3  26   3
M  END
>  <REMARK>  (1) 
 SMILES COCCOc1ccccc1C(=O)NC(C)c1nc(C2CCCC2)no1
 SMILES IDX 6 1 7 2 8 3 9 4 10 5 11 6 5 7 4 8 3 9 2 10 1 11 12 12 14 13
 SMILES IDX 13 14 15 16 16 17 17 18 18 19 26 20 19 21 25 22 20 23 21 24
 SMILES IDX 24 25 22 26 23 27
 H PARENT 14 15

>  <TORSDO>  (1) 
F 8

$$$$
