/home/pchatterjee/Documents/git/vs_workflow/DiffDock/diffdock_run/pdbqt_scrubbed/Z1365840340.pdbqt
     RDKit          3D

 26 28  0  0  1  0  0  0  0  0999 V2000
    5.9160   47.2525   54.1624 C   0  0  0  0  0  0  0  0  0  0  0  0
    5.4083   48.2422   54.9869 C   0  0  0  0  0  3  0  0  0  0  0  0
    6.0134   49.4798   55.0779 C   0  0  0  0  0  3  0  0  0  0  0  0
    7.1496   49.7367   54.3307 C   0  0  0  0  0  3  0  0  0  0  0  0
    7.6357   48.7346   53.5170 C   0  0  0  0  0  3  0  0  0  0  0  0
    7.0487   47.4929   53.4105 C   0  0  0  0  0  0  0  0  0  0  0  0
    5.2535   46.0310   54.1220 O   0  0  0  0  0  0  0  0  0  0  0  0
    3.8753   46.0412   53.7973 C   0  0  0  0  0  2  0  0  0  0  0  0
    3.3138   44.6339   53.8532 C   0  0  0  0  0  2  0  0  0  0  0  0
    1.9030   44.6980   53.9006 O   0  0  0  0  0  0  0  0  0  0  0  0
    1.4288   44.7994   52.5868 C   0  0  0  0  0  1  0  0  0  0  0  0
    7.5975   46.4578   52.5347 C   0  0  0  0  0  0  0  0  0  0  0  0
    8.9572   46.5479   52.1555 N   0  0  0  0  0  0  0  0  0  0  0  0
    6.8241   45.5338   52.1618 O   0  0  0  0  0  0  0  0  0  0  0  0
    9.6383   45.5726   51.3349 C   0  0  0  0  0  3  0  0  0  0  0  0
   10.4795   44.6930   52.2283 C   0  0  0  0  0  1  0  0  0  0  0  0
    8.6593   44.7430   50.5850 C   0  0  0  0  0  0  0  0  0  0  0  0
    7.3381   44.8546   50.4606 N   0  0  0  0  0  0  0  0  0  0  0  0
    9.0208   43.6866   49.8796 O   0  0  0  0  0  0  0  0  0  0  0  0
    6.8783   43.8532   49.6674 C   0  0  0  0  0  0  0  0  0  0  0  0
    7.9657   43.1339   49.3175 N   0  0  0  0  0  0  0  0  0  0  0  0
    5.4780   43.5747   49.2495 C   0  0  0  0  0  3  0  0  0  0  0  0
    4.6502   43.2296   50.4685 C   0  0  0  0  0  2  0  0  0  0  0  0
    5.4828   42.2802   48.4733 C   0  0  0  0  0  2  0  0  0  0  0  0
    5.2195   41.8626   50.8442 C   0  0  0  0  0  2  0  0  0  0  0  0
    5.7375   41.2575   49.5567 C   0  0  0  0  0  2  0  0  0  0  0  0
  1  7  1  0
  2  1  2  0
  3  2  1  0
  4  5  1  0
  4  3  2  0
  5  6  2  0
  6 12  1  0
  6  1  1  0
  7  8  1  0
  8  9  1  0
  9 10  1  0
 10 11  1  0
 12 13  1  0
 13 15  1  0
 14 12  2  0
 15 17  1  0
 15 16  1  0
 17 18  2  0
 19 21  1  0
 19 17  1  0
 20 18  1  0
 20 22  1  0
 21 20  2  0
 22 23  1  0
 23 25  1  0
 24 22  1  0
 24 26  1  0
 26 25  1  0
M  RAD  8   2   2   3   2   4   2   5   2   8   3   9   3  11   2  15   2
M  RAD  6  16   2  22   2  23   3  24   3  25   3  26   3
M  END
>  <REMARK>  (1) 
 SMILES COCCOc1ccccc1C(=O)NC(C)c1nc(C2CCCC2)no1
 SMILES IDX 6 1 7 2 8 3 9 4 10 5 11 6 5 7 4 8 3 9 2 10 1 11 12 12 14 13
 SMILES IDX 13 14 15 16 16 17 17 18 18 19 26 20 19 21 25 22 20 23 21 24
 SMILES IDX 24 25 22 26 23 27
 H PARENT 14 15

>  <TORSDO>  (1) 
F 8

$$$$
