/home/pchatterjee/Documents/git/vs_workflow/DiffDock/diffdock_run/pdbqt_scrubbed/Z1365840340.pdbqt
     RDKit          3D

 26 28  0  0  1  0  0  0  0  0999 V2000
    3.0535   43.4727   51.3488 C   0  0  0  0  0  0  0  0  0  0  0  0
    1.7614   43.0637   51.6322 C   0  0  0  0  0  3  0  0  0  0  0  0
    1.2380   41.9100   51.0836 C   0  0  0  0  0  3  0  0  0  0  0  0
    2.0195   41.1470   50.2337 C   0  0  0  0  0  3  0  0  0  0  0  0
    3.3032   41.5756   49.9670 C   0  0  0  0  0  3  0  0  0  0  0  0
    3.8460   42.7227   50.5028 C   0  0  0  0  0  0  0  0  0  0  0  0
    3.5127   44.6452   51.9377 O   0  0  0  0  0  0  0  0  0  0  0  0
    2.5805   45.4238   52.6657 C   0  0  0  0  0  2  0  0  0  0  0  0
    3.2705   46.6241   53.2838 C   0  0  0  0  0  2  0  0  0  0  0  0
    3.2105   46.5205   54.6918 O   0  0  0  0  0  0  0  0  0  0  0  0
    4.1336   45.5477   55.0951 C   0  0  0  0  0  1  0  0  0  0  0  0
    5.2130   43.1413   50.1934 C   0  0  0  0  0  0  0  0  0  0  0  0
    5.8253   42.6312   49.0247 N   0  0  0  0  0  0  0  0  0  0  0  0
    5.7769   43.9401   50.9902 O   0  0  0  0  0  0  0  0  0  0  0  0
    7.1966   42.8877   48.6477 C   0  0  0  0  0  3  0  0  0  0  0  0
    7.2125   43.4813   47.2595 C   0  0  0  0  0  1  0  0  0  0  0  0
    7.8373   43.8255   49.6062 C   0  0  0  0  0  0  0  0  0  0  0  0
    7.3843   44.3548   50.7412 N   0  0  0  0  0  0  0  0  0  0  0  0
    9.0591   44.2942   49.4279 O   0  0  0  0  0  0  0  0  0  0  0  0
    8.3399   45.1611   51.2704 C   0  0  0  0  0  0  0  0  0  0  0  0
    9.3843   45.1008   50.4171 N   0  0  0  0  0  0  0  0  0  0  0  0
    8.2845   45.9594   52.5245 C   0  0  0  0  0  3  0  0  0  0  0  0
    7.2123   47.0197   52.3968 C   0  0  0  0  0  2  0  0  0  0  0  0
    9.5519   46.7755   52.6018 C   0  0  0  0  0  2  0  0  0  0  0  0
    7.8375   47.9605   51.3683 C   0  0  0  0  0  2  0  0  0  0  0  0
    9.3362   47.8064   51.5178 C   0  0  0  0  0  2  0  0  0  0  0  0
  1  7  1  0
  2  1  2  0
  3  2  1  0
  4  5  1  0
  4  3  2  0
  5  6  2  0
  6 12  1  0
  6  1  1  0
  7  8  1  0
  8  9  1  0
  9 10  1  0
 10 11  1  0
 12 13  1  0
 13 15  1  0
 14 12  2  0
 15 17  1  0
 15 16  1  0
 17 18  2  0
 19 21  1  0
 19 17  1  0
 20 18  1  0
 20 22  1  0
 21 20  2  0
 22 23  1  0
 23 25  1  0
 24 22  1  0
 24 26  1  0
 26 25  1  0
M  RAD  8   2   2   3   2   4   2   5   2   8   3   9   3  11   2  15   2
M  RAD  6  16   2  22   2  23   3  24   3  25   3  26   3
M  END
>  <REMARK>  (1) 
 SMILES COCCOc1ccccc1C(=O)NC(C)c1nc(C2CCCC2)no1
 SMILES IDX 6 1 7 2 8 3 9 4 10 5 11 6 5 7 4 8 3 9 2 10 1 11 12 12 14 13
 SMILES IDX 13 14 15 16 16 17 17 18 18 19 26 20 19 21 25 22 20 23 21 24
 SMILES IDX 24 25 22 26 23 27
 H PARENT 14 15

>  <TORSDO>  (1) 
F 8

$$$$
