/home/pchatterjee/Documents/git/vs_workflow/DiffDock/diffdock_run/pdbqt_scrubbed/Z1365840340.pdbqt
     RDKit          3D

 26 28  0  0  1  0  0  0  0  0999 V2000
    2.0764   42.5833   49.8413 C   0  0  0  0  0  0  0  0  0  0  0  0
    0.7831   42.9379   50.1859 C   0  0  0  0  0  3  0  0  0  0  0  0
    0.4718   43.3620   51.4623 C   0  0  0  0  0  3  0  0  0  0  0  0
    1.4716   43.4344   52.4165 C   0  0  0  0  0  3  0  0  0  0  0  0
    2.7518   43.0759   52.0486 C   0  0  0  0  0  3  0  0  0  0  0  0
    3.0852   42.6500   50.7816 C   0  0  0  0  0  0  0  0  0  0  0  0
    2.3149   42.1658   48.5370 O   0  0  0  0  0  0  0  0  0  0  0  0
    1.3749   41.2869   47.9461 C   0  0  0  0  0  2  0  0  0  0  0  0
    1.8129   40.9193   46.5418 C   0  0  0  0  0  2  0  0  0  0  0  0
    0.6697   40.7349   45.7318 O   0  0  0  0  0  0  0  0  0  0  0  0
    0.2551   41.9917   45.2738 C   0  0  0  0  0  1  0  0  0  0  0  0
    4.4565   42.2789   50.4334 C   0  0  0  0  0  0  0  0  0  0  0  0
    5.1728   43.1097   49.5402 N   0  0  0  0  0  0  0  0  0  0  0  0
    4.9306   41.2311   50.9512 O   0  0  0  0  0  0  0  0  0  0  0  0
    6.5268   42.8563   49.1035 C   0  0  0  0  0  3  0  0  0  0  0  0
    6.5600   42.8819   47.5942 C   0  0  0  0  0  1  0  0  0  0  0  0
    7.4539   43.8828   49.6473 C   0  0  0  0  0  0  0  0  0  0  0  0
    7.2111   45.0076   50.3177 N   0  0  0  0  0  0  0  0  0  0  0  0
    8.7651   43.7921   49.5168 O   0  0  0  0  0  0  0  0  0  0  0  0
    8.3889   45.6192   50.6047 C   0  0  0  0  0  0  0  0  0  0  0  0
    9.3500   44.8262   50.0853 N   0  0  0  0  0  0  0  0  0  0  0  0
    8.6131   46.8953   51.3357 C   0  0  0  0  0  3  0  0  0  0  0  0
   10.0319   46.9293   51.8613 C   0  0  0  0  0  2  0  0  0  0  0  0
    7.7909   46.8466   52.6005 C   0  0  0  0  0  2  0  0  0  0  0  0
    9.9756   45.8636   52.9544 C   0  0  0  0  0  2  0  0  0  0  0  0
    8.5388   45.8287   53.4304 C   0  0  0  0  0  2  0  0  0  0  0  0
  1  7  1  0
  2  1  2  0
  3  2  1  0
  4  5  1  0
  4  3  2  0
  5  6  2  0
  6 12  1  0
  6  1  1  0
  7  8  1  0
  8  9  1  0
  9 10  1  0
 10 11  1  0
 12 13  1  0
 13 15  1  0
 14 12  2  0
 15 17  1  0
 15 16  1  0
 17 18  2  0
 19 21  1  0
 19 17  1  0
 20 18  1  0
 20 22  1  0
 21 20  2  0
 22 23  1  0
 23 25  1  0
 24 22  1  0
 24 26  1  0
 26 25  1  0
M  RAD  8   2   2   3   2   4   2   5   2   8   3   9   3  11   2  15   2
M  RAD  6  16   2  22   2  23   3  24   3  25   3  26   3
M  END
>  <REMARK>  (1) 
 SMILES COCCOc1ccccc1C(=O)NC(C)c1nc(C2CCCC2)no1
 SMILES IDX 6 1 7 2 8 3 9 4 10 5 11 6 5 7 4 8 3 9 2 10 1 11 12 12 14 13
 SMILES IDX 13 14 15 16 16 17 17 18 18 19 26 20 19 21 25 22 20 23 21 24
 SMILES IDX 24 25 22 26 23 27
 H PARENT 14 15

>  <TORSDO>  (1) 
F 8

$$$$
