/home/pchatterjee/Documents/git/vs_workflow/DiffDock/diffdock_run/pdbqt_scrubbed/Z1365840340.pdbqt
     RDKit          3D

 26 28  0  0  1  0  0  0  0  0999 V2000
    2.5412   44.1091   50.8109 C   0  0  0  0  0  0  0  0  0  0  0  0
    1.2664   44.5475   51.1270 C   0  0  0  0  0  3  0  0  0  0  0  0
    1.0594   45.5185   52.0863 C   0  0  0  0  0  3  0  0  0  0  0  0
    2.1469   46.0648   52.7452 C   0  0  0  0  0  3  0  0  0  0  0  0
    3.4064   45.6114   52.4125 C   0  0  0  0  0  3  0  0  0  0  0  0
    3.6365   44.6441   51.4592 C   0  0  0  0  0  0  0  0  0  0  0  0
    2.6725   43.1285   49.8345 O   0  0  0  0  0  0  0  0  0  0  0  0
    2.0879   41.8643   50.0899 C   0  0  0  0  0  2  0  0  0  0  0  0
    2.4993   40.8716   49.0201 C   0  0  0  0  0  2  0  0  0  0  0  0
    1.4789   39.9065   48.8647 O   0  0  0  0  0  0  0  0  0  0  0  0
    1.8006   38.8023   49.6638 C   0  0  0  0  0  1  0  0  0  0  0  0
    4.9897   44.1916   51.1367 C   0  0  0  0  0  0  0  0  0  0  0  0
    5.2582   43.7580   49.8174 N   0  0  0  0  0  0  0  0  0  0  0  0
    5.8507   44.2122   52.0582 O   0  0  0  0  0  0  0  0  0  0  0  0
    6.5482   43.2924   49.3617 C   0  0  0  0  0  3  0  0  0  0  0  0
    6.6886   43.6190   47.8943 C   0  0  0  0  0  1  0  0  0  0  0  0
    7.6416   43.9414   50.1312 C   0  0  0  0  0  0  0  0  0  0  0  0
    7.6955   44.3389   51.4011 N   0  0  0  0  0  0  0  0  0  0  0  0
    8.8114   44.2313   49.5910 O   0  0  0  0  0  0  0  0  0  0  0  0
    8.9154   44.8815   51.6477 C   0  0  0  0  0  0  0  0  0  0  0  0
    9.5956   44.7981   50.4846 N   0  0  0  0  0  0  0  0  0  0  0  0
    9.4308   45.4570   52.9190 C   0  0  0  0  0  3  0  0  0  0  0  0
    8.4188   46.4369   53.4722 C   0  0  0  0  0  2  0  0  0  0  0  0
   10.6013   46.3459   52.5755 C   0  0  0  0  0  2  0  0  0  0  0  0
    8.5202   47.5793   52.4629 C   0  0  0  0  0  2  0  0  0  0  0  0
    9.9264   47.5202   51.9049 C   0  0  0  0  0  2  0  0  0  0  0  0
  1  7  1  0
  2  1  2  0
  3  2  1  0
  4  5  1  0
  4  3  2  0
  5  6  2  0
  6 12  1  0
  6  1  1  0
  7  8  1  0
  8  9  1  0
  9 10  1  0
 10 11  1  0
 12 13  1  0
 13 15  1  0
 14 12  2  0
 15 17  1  0
 15 16  1  0
 17 18  2  0
 19 21  1  0
 19 17  1  0
 20 18  1  0
 20 22  1  0
 21 20  2  0
 22 23  1  0
 23 25  1  0
 24 22  1  0
 24 26  1  0
 26 25  1  0
M  RAD  8   2   2   3   2   4   2   5   2   8   3   9   3  11   2  15   2
M  RAD  6  16   2  22   2  23   3  24   3  25   3  26   3
M  END
>  <REMARK>  (1) 
 SMILES COCCOc1ccccc1C(=O)NC(C)c1nc(C2CCCC2)no1
 SMILES IDX 6 1 7 2 8 3 9 4 10 5 11 6 5 7 4 8 3 9 2 10 1 11 12 12 14 13
 SMILES IDX 13 14 15 16 16 17 17 18 18 19 26 20 19 21 25 22 20 23 21 24
 SMILES IDX 24 25 22 26 23 27
 H PARENT 14 15

>  <TORSDO>  (1) 
F 8

$$$$
