/home/pchatterjee/Documents/git/vs_workflow/DiffDock/diffdock_run/pdbqt_scrubbed/Z1365840340.pdbqt
     RDKit          3D

 26 28  0  0  1  0  0  0  0  0999 V2000
    5.7998   47.2274   53.8935 C   0  0  0  0  0  0  0  0  0  0  0  0
    5.2705   47.8804   54.9938 C   0  0  0  0  0  3  0  0  0  0  0  0
    5.9595   48.8972   55.6240 C   0  0  0  0  0  3  0  0  0  0  0  0
    7.2037   49.2716   55.1474 C   0  0  0  0  0  3  0  0  0  0  0  0
    7.7093   48.6059   54.0501 C   0  0  0  0  0  3  0  0  0  0  0  0
    7.0398   47.5890   53.4057 C   0  0  0  0  0  0  0  0  0  0  0  0
    5.0486   46.2133   53.3107 O   0  0  0  0  0  0  0  0  0  0  0  0
    3.9454   45.7095   54.0416 C   0  0  0  0  0  2  0  0  0  0  0  0
    3.3221   44.5383   53.3076 C   0  0  0  0  0  2  0  0  0  0  0  0
    1.9151   44.6237   53.4062 O   0  0  0  0  0  0  0  0  0  0  0  0
    1.4607   45.4819   52.3971 C   0  0  0  0  0  1  0  0  0  0  0  0
    7.6128   46.9089   52.2443 C   0  0  0  0  0  0  0  0  0  0  0  0
    8.9106   46.3581   52.3590 N   0  0  0  0  0  0  0  0  0  0  0  0
    6.9147   46.8492   51.1955 O   0  0  0  0  0  0  0  0  0  0  0  0
    9.5857   45.6418   51.3010 C   0  0  0  0  0  3  0  0  0  0  0  0
   10.6685   44.7854   51.9124 C   0  0  0  0  0  1  0  0  0  0  0  0
    8.6277   44.7875   50.5519 C   0  0  0  0  0  0  0  0  0  0  0  0
    7.3037   44.6768   50.6439 N   0  0  0  0  0  0  0  0  0  0  0  0
    9.0157   43.9494   49.6077 O   0  0  0  0  0  0  0  0  0  0  0  0
    6.8690   43.7577   49.7440 C   0  0  0  0  0  0  0  0  0  0  0  0
    7.9745   43.3177   49.1062 N   0  0  0  0  0  0  0  0  0  0  0  0
    5.4758   43.3045   49.4860 C   0  0  0  0  0  3  0  0  0  0  0  0
    4.8869   42.7430   50.7620 C   0  0  0  0  0  2  0  0  0  0  0  0
    5.5495   42.0910   48.5915 C   0  0  0  0  0  2  0  0  0  0  0  0
    5.6884   41.4526   50.9234 C   0  0  0  0  0  2  0  0  0  0  0  0
    6.0960   41.0363   49.5260 C   0  0  0  0  0  2  0  0  0  0  0  0
  1  7  1  0
  2  1  2  0
  3  2  1  0
  4  5  1  0
  4  3  2  0
  5  6  2  0
  6 12  1  0
  6  1  1  0
  7  8  1  0
  8  9  1  0
  9 10  1  0
 10 11  1  0
 12 13  1  0
 13 15  1  0
 14 12  2  0
 15 17  1  0
 15 16  1  0
 17 18  2  0
 19 21  1  0
 19 17  1  0
 20 18  1  0
 20 22  1  0
 21 20  2  0
 22 23  1  0
 23 25  1  0
 24 22  1  0
 24 26  1  0
 26 25  1  0
M  RAD  8   2   2   3   2   4   2   5   2   8   3   9   3  11   2  15   2
M  RAD  6  16   2  22   2  23   3  24   3  25   3  26   3
M  END
>  <REMARK>  (1) 
 SMILES COCCOc1ccccc1C(=O)NC(C)c1nc(C2CCCC2)no1
 SMILES IDX 6 1 7 2 8 3 9 4 10 5 11 6 5 7 4 8 3 9 2 10 1 11 12 12 14 13
 SMILES IDX 13 14 15 16 16 17 17 18 18 19 26 20 19 21 25 22 20 23 21 24
 SMILES IDX 24 25 22 26 23 27
 H PARENT 14 15

>  <TORSDO>  (1) 
F 8

$$$$
