/home/pchatterjee/Documents/git/vs_workflow/DiffDock/diffdock_run/pdbqt_scrubbed/Z1365840340.pdbqt
     RDKit          3D

 26 28  0  0  1  0  0  0  0  0999 V2000
    5.4412   47.1630   53.5891 C   0  0  0  0  0  0  0  0  0  0  0  0
    4.9291   47.7787   54.7186 C   0  0  0  0  0  3  0  0  0  0  0  0
    5.7264   48.5548   55.5359 C   0  0  0  0  0  3  0  0  0  0  0  0
    7.0636   48.7211   55.2206 C   0  0  0  0  0  3  0  0  0  0  0  0
    7.5498   48.0976   54.0903 C   0  0  0  0  0  3  0  0  0  0  0  0
    6.7731   47.3190   53.2607 C   0  0  0  0  0  0  0  0  0  0  0  0
    4.5786   46.3967   52.8137 O   0  0  0  0  0  0  0  0  0  0  0  0
    3.8780   45.3456   53.4537 C   0  0  0  0  0  2  0  0  0  0  0  0
    3.1006   44.5373   52.4333 C   0  0  0  0  0  2  0  0  0  0  0  0
    1.7174   44.6741   52.6883 O   0  0  0  0  0  0  0  0  0  0  0  0
    1.3690   43.7621   53.6923 C   0  0  0  0  0  1  0  0  0  0  0  0
    7.3293   46.6752   52.0708 C   0  0  0  0  0  0  0  0  0  0  0  0
    8.6891   46.2858   52.0893 N   0  0  0  0  0  0  0  0  0  0  0  0
    6.5620   46.5002   51.0852 O   0  0  0  0  0  0  0  0  0  0  0  0
    9.3801   45.6937   50.9666 C   0  0  0  0  0  3  0  0  0  0  0  0
   10.7226   45.1886   51.4379 C   0  0  0  0  0  1  0  0  0  0  0  0
    8.5892   44.5719   50.3966 C   0  0  0  0  0  0  0  0  0  0  0  0
    7.6418   43.8100   50.9402 N   0  0  0  0  0  0  0  0  0  0  0  0
    8.7486   44.1536   49.1540 O   0  0  0  0  0  0  0  0  0  0  0  0
    7.2107   42.9093   50.0201 C   0  0  0  0  0  0  0  0  0  0  0  0
    7.9294   43.1531   48.9037 N   0  0  0  0  0  0  0  0  0  0  0  0
    6.1679   41.8595   50.1731 C   0  0  0  0  0  3  0  0  0  0  0  0
    5.8735   41.2448   48.8219 C   0  0  0  0  0  2  0  0  0  0  0  0
    4.8706   42.5517   50.5135 C   0  0  0  0  0  2  0  0  0  0  0  0
    5.1607   42.3958   48.1142 C   0  0  0  0  0  2  0  0  0  0  0  0
    4.5103   43.2188   49.2060 C   0  0  0  0  0  2  0  0  0  0  0  0
  1  7  1  0
  2  1  2  0
  3  2  1  0
  4  5  1  0
  4  3  2  0
  5  6  2  0
  6 12  1  0
  6  1  1  0
  7  8  1  0
  8  9  1  0
  9 10  1  0
 10 11  1  0
 12 13  1  0
 13 15  1  0
 14 12  2  0
 15 17  1  0
 15 16  1  0
 17 18  2  0
 19 21  1  0
 19 17  1  0
 20 18  1  0
 20 22  1  0
 21 20  2  0
 22 23  1  0
 23 25  1  0
 24 22  1  0
 24 26  1  0
 26 25  1  0
M  RAD  8   2   2   3   2   4   2   5   2   8   3   9   3  11   2  15   2
M  RAD  6  16   2  22   2  23   3  24   3  25   3  26   3
M  END
>  <REMARK>  (1) 
 SMILES COCCOc1ccccc1C(=O)NC(C)c1nc(C2CCCC2)no1
 SMILES IDX 6 1 7 2 8 3 9 4 10 5 11 6 5 7 4 8 3 9 2 10 1 11 12 12 14 13
 SMILES IDX 13 14 15 16 16 17 17 18 18 19 26 20 19 21 25 22 20 23 21 24
 SMILES IDX 24 25 22 26 23 27
 H PARENT 14 15

>  <TORSDO>  (1) 
F 8

$$$$
