/home/pchatterjee/Documents/git/vs_workflow/DiffDock/diffdock_run/pdbqt_scrubbed/Z1365840340.pdbqt
     RDKit          3D

 26 28  0  0  1  0  0  0  0  0999 V2000
    8.5367   67.4319   82.6528 C   0  0  0  0  0  0  0  0  0  0  0  0
    8.1230   68.5045   81.8811 C   0  0  0  0  0  3  0  0  0  0  0  0
    8.8487   68.9194   80.7824 C   0  0  0  0  0  3  0  0  0  0  0  0
   10.0125   68.2507   80.4453 C   0  0  0  0  0  3  0  0  0  0  0  0
   10.4034   67.1855   81.2297 C   0  0  0  0  0  3  0  0  0  0  0  0
    9.6954   66.7542   82.3298 C   0  0  0  0  0  0  0  0  0  0  0  0
    7.7550   67.0711   83.7443 O   0  0  0  0  0  0  0  0  0  0  0  0
    6.5496   66.3738   83.4875 C   0  0  0  0  0  2  0  0  0  0  0  0
    5.9124   65.9324   84.7907 C   0  0  0  0  0  2  0  0  0  0  0  0
    4.7356   65.2028   84.5087 O   0  0  0  0  0  0  0  0  0  0  0  0
    4.1138   64.8951   85.7253 C   0  0  0  0  0  1  0  0  0  0  0  0
   10.1459   65.6191   83.1351 C   0  0  0  0  0  0  0  0  0  0  0  0
   10.9518   64.6337   82.5183 N   0  0  0  0  0  0  0  0  0  0  0  0
    9.7895   65.5791   84.3443 O   0  0  0  0  0  0  0  0  0  0  0  0
   12.0293   63.9343   83.1803 C   0  0  0  0  0  3  0  0  0  0  0  0
   12.4097   62.7342   82.3468 C   0  0  0  0  0  1  0  0  0  0  0  0
   13.2064   64.8255   83.3507 C   0  0  0  0  0  0  0  0  0  0  0  0
   13.3161   66.1497   83.2610 N   0  0  0  0  0  0  0  0  0  0  0  0
   14.4085   64.3621   83.6414 O   0  0  0  0  0  0  0  0  0  0  0  0
   14.6037   66.5081   83.4998 C   0  0  0  0  0  0  0  0  0  0  0  0
   15.2670   65.3564   83.7365 N   0  0  0  0  0  0  0  0  0  0  0  0
   15.1966   67.8724   83.5079 C   0  0  0  0  0  3  0  0  0  0  0  0
   14.6622   68.6582   82.3300 C   0  0  0  0  0  2  0  0  0  0  0  0
   16.6630   67.7341   83.1778 C   0  0  0  0  0  2  0  0  0  0  0  0
   15.3418   67.9494   81.1596 C   0  0  0  0  0  2  0  0  0  0  0  0
   16.6289   67.3731   81.7106 C   0  0  0  0  0  2  0  0  0  0  0  0
  1  7  1  0
  2  1  2  0
  3  2  1  0
  4  5  1  0
  4  3  2  0
  5  6  2  0
  6 12  1  0
  6  1  1  0
  7  8  1  0
  8  9  1  0
  9 10  1  0
 10 11  1  0
 12 13  1  0
 13 15  1  0
 14 12  2  0
 15 17  1  0
 15 16  1  0
 17 18  2  0
 19 21  1  0
 19 17  1  0
 20 18  1  0
 20 22  1  0
 21 20  2  0
 22 23  1  0
 23 25  1  0
 24 22  1  0
 24 26  1  0
 26 25  1  0
M  RAD  8   2   2   3   2   4   2   5   2   8   3   9   3  11   2  15   2
M  RAD  6  16   2  22   2  23   3  24   3  25   3  26   3
M  END
>  <REMARK>  (1) 
 SMILES COCCOc1ccccc1C(=O)NC(C)c1nc(C2CCCC2)no1
 SMILES IDX 6 1 7 2 8 3 9 4 10 5 11 6 5 7 4 8 3 9 2 10 1 11 12 12 14 13
 SMILES IDX 13 14 15 16 16 17 17 18 18 19 26 20 19 21 25 22 20 23 21 24
 SMILES IDX 24 25 22 26 23 27
 H PARENT 14 15

>  <TORSDO>  (1) 
F 8

$$$$
