/home/pchatterjee/Documents/git/vs_workflow/DiffDock/diffdock_run/pdbqt_scrubbed/Z407410718.pdbqt
     RDKit          3D

 29 32  0  0  1  0  0  0  0  0999 V2000
    8.3443   47.9739   52.0765 C   0  0  0  0  0  2  0  0  0  0  0  0
    7.4549   48.0226   53.2714 C   0  0  0  0  0  0  0  0  0  0  0  0
    6.0619   48.2229   53.0362 N   0  0  0  0  0  0  0  0  0  0  0  0
    7.9424   47.8895   54.4255 O   0  0  0  0  0  0  0  0  0  0  0  0
    5.0322   47.7633   53.9402 C   0  0  0  0  0  3  0  0  0  0  0  0
    3.9832   47.0601   53.1725 C   0  0  0  0  0  0  0  0  0  0  0  0
    2.8995   47.7401   52.6776 C   0  0  0  0  0  3  0  0  0  0  0  0
    4.1032   45.6923   52.9534 C   0  0  0  0  0  3  0  0  0  0  0  0
    1.9180   47.0870   51.9604 C   0  0  0  0  0  3  0  0  0  0  0  0
    3.1268   45.0346   52.2383 C   0  0  0  0  0  3  0  0  0  0  0  0
    2.0424   45.7254   51.7452 C   0  0  0  0  0  3  0  0  0  0  0  0
    5.6351   46.8543   54.9751 C   0  0  0  0  0  3  0  0  0  0  0  0
    5.4694   47.4606   56.3313 C   0  0  0  0  0  2  0  0  0  0  0  0
    5.0085   45.4759   54.9717 C   0  0  0  0  0  2  0  0  0  0  0  0
    4.0487   47.6248   56.7629 C   0  0  0  0  0  2  0  0  0  0  0  0
    3.8437   45.3540   55.9054 C   0  0  0  0  0  2  0  0  0  0  0  0
    3.1432   46.7093   55.9838 C   0  0  0  0  0  2  0  0  0  0  0  0
    9.1197   46.6960   52.1088 C   0  0  0  0  0  2  0  0  0  0  0  0
    8.4725   45.6188   51.3118 C   0  0  0  0  0  0  0  0  0  0  0  0
    7.2492   45.1324   51.6017 N   0  0  0  0  0  0  0  0  0  0  0  0
    9.1329   45.1096   50.2609 N   0  0  0  0  0  0  0  0  0  0  0  0
    6.6480   44.1658   50.9007 C   0  0  0  0  0  0  0  0  0  0  0  0
    8.5753   44.1226   49.5059 C   0  0  0  0  0  0  0  0  0  0  0  0
    5.3944   43.6659   51.1960 C   0  0  0  0  0  3  0  0  0  0  0  0
    7.3117   43.6207   49.8058 C   0  0  0  0  0  0  0  0  0  0  0  0
    4.8196   42.6618   50.4332 C   0  0  0  0  0  3  0  0  0  0  0  0
    6.7240   42.6211   49.0572 C   0  0  0  0  0  3  0  0  0  0  0  0
    5.4628   42.1173   49.3533 C   0  0  0  0  0  3  0  0  0  0  0  0
    9.1916   43.6501   48.5282 O   0  0  0  0  0  0  0  0  0  0  0  0
  1 18  1  0
  2  1  1  0
  3  2  1  0
  4  2  2  0
  5  3  1  0
  5 12  1  0
  6  8  1  0
  6  5  1  0
  7  6  2  0
  9 11  2  0
  9  7  1  0
 10  8  2  0
 11 10  1  0
 12 13  1  0
 14 12  1  0
 15 13  1  0
 16 17  1  0
 16 14  1  0
 17 15  1  0
 18 19  1  0
 19 20  2  0
 20 22  1  0
 21 23  1  0
 21 19  1  0
 22 24  2  0
 23 25  1  0
 24 26  1  0
 25 22  1  0
 25 27  2  0
 27 28  1  0
 28 26  2  0
 29 23  2  0
M  RAD  8   1   3   5   2   7   2   8   2   9   2  10   2  11   2  12   2
M  RAD  8  13   3  14   3  15   3  16   3  17   3  18   3  24   2  26   2
M  RAD  2  27   2  28   2
M  END
>  <REMARK>  (1) 
 SMILES O=C(CCc1nc2ccccc2c(=O)[nH]1)NC(c1ccccc1)C1CCCCC1
 SMILES IDX 3 1 2 2 16 3 1 4 17 6 18 7 19 8 23 9 20 10 22 11 21 12 24 13
 SMILES IDX 25 14 29 15 26 16 28 17 27 18 4 19 5 20 6 21 15 22 7 23
 SMILES IDX 13 24 8 25 12 26 9 27 11 28 10 29 14 31
 H PARENT 16 5 15 30

>  <TORSDO>  (1) 
F 6

$$$$
