/home/pchatterjee/Documents/git/vs_workflow/DiffDock/diffdock_run/pdbqt_scrubbed/Z407410718.pdbqt
     RDKit          3D

 29 32  0  0  1  0  0  0  0  0999 V2000
    7.2919   46.7334   52.8670 C   0  0  0  0  0  2  0  0  0  0  0  0
    7.8803   47.7303   53.8058 C   0  0  0  0  0  0  0  0  0  0  0  0
    7.1871   48.9683   53.9564 N   0  0  0  0  0  0  0  0  0  0  0  0
    8.9443   47.4614   54.4244 O   0  0  0  0  0  0  0  0  0  0  0  0
    5.9043   49.0827   54.6121 C   0  0  0  0  0  3  0  0  0  0  0  0
    5.0154   47.9986   54.1441 C   0  0  0  0  0  0  0  0  0  0  0  0
    4.9688   46.7952   54.8010 C   0  0  0  0  0  3  0  0  0  0  0  0
    4.2195   48.2085   53.0235 C   0  0  0  0  0  3  0  0  0  0  0  0
    4.1401   45.7806   54.3671 C   0  0  0  0  0  3  0  0  0  0  0  0
    3.3903   47.1997   52.5854 C   0  0  0  0  0  3  0  0  0  0  0  0
    3.3501   45.9949   53.2512 C   0  0  0  0  0  3  0  0  0  0  0  0
    6.0889   49.0144   56.1027 C   0  0  0  0  0  3  0  0  0  0  0  0
    7.4149   49.5984   56.4700 C   0  0  0  0  0  2  0  0  0  0  0  0
    5.0008   49.7499   56.8560 C   0  0  0  0  0  2  0  0  0  0  0  0
    7.5606   51.0488   56.1435 C   0  0  0  0  0  2  0  0  0  0  0  0
    5.3381   51.1831   57.1314 C   0  0  0  0  0  2  0  0  0  0  0  0
    6.2130   51.7014   55.9914 C   0  0  0  0  0  2  0  0  0  0  0  0
    8.3604   46.2699   51.9296 C   0  0  0  0  0  2  0  0  0  0  0  0
    7.9142   45.1350   51.0766 C   0  0  0  0  0  0  0  0  0  0  0  0
    6.7210   44.5287   51.2359 N   0  0  0  0  0  0  0  0  0  0  0  0
    8.7327   44.6963   50.1084 N   0  0  0  0  0  0  0  0  0  0  0  0
    6.2988   43.5083   50.4823 C   0  0  0  0  0  0  0  0  0  0  0  0
    8.3616   43.6601   49.3060 C   0  0  0  0  0  0  0  0  0  0  0  0
    5.0764   42.8854   50.6438 C   0  0  0  0  0  3  0  0  0  0  0  0
    7.1289   43.0342   49.4711 C   0  0  0  0  0  0  0  0  0  0  0  0
    4.6908   41.8305   49.8321 C   0  0  0  0  0  3  0  0  0  0  0  0
    6.7287   41.9824   48.6720 C   0  0  0  0  0  3  0  0  0  0  0  0
    5.4990   41.3549   48.8335 C   0  0  0  0  0  3  0  0  0  0  0  0
    9.1249   43.2533   48.4056 O   0  0  0  0  0  0  0  0  0  0  0  0
  1 18  1  0
  2  1  1  0
  3  2  1  0
  4  2  2  0
  5  3  1  0
  5 12  1  0
  6  8  1  0
  6  5  1  0
  7  6  2  0
  9 11  2  0
  9  7  1  0
 10  8  2  0
 11 10  1  0
 12 13  1  0
 14 12  1  0
 15 13  1  0
 16 17  1  0
 16 14  1  0
 17 15  1  0
 18 19  1  0
 19 20  2  0
 20 22  1  0
 21 23  1  0
 21 19  1  0
 22 24  2  0
 23 25  1  0
 24 26  1  0
 25 22  1  0
 25 27  2  0
 27 28  1  0
 28 26  2  0
 29 23  2  0
M  RAD  8   1   3   5   2   7   2   8   2   9   2  10   2  11   2  12   2
M  RAD  8  13   3  14   3  15   3  16   3  17   3  18   3  24   2  26   2
M  RAD  2  27   2  28   2
M  END
>  <REMARK>  (1) 
 SMILES O=C(CCc1nc2ccccc2c(=O)[nH]1)NC(c1ccccc1)C1CCCCC1
 SMILES IDX 3 1 2 2 16 3 1 4 17 6 18 7 19 8 23 9 20 10 22 11 21 12 24 13
 SMILES IDX 25 14 29 15 26 16 28 17 27 18 4 19 5 20 6 21 15 22 7 23
 SMILES IDX 13 24 8 25 12 26 9 27 11 28 10 29 14 31
 H PARENT 16 5 15 30

>  <TORSDO>  (1) 
F 6

$$$$
