/home/pchatterjee/Documents/git/vs_workflow/DiffDock/diffdock_run/pdbqt_scrubbed/Z407410718.pdbqt
     RDKit          3D

 29 32  0  0  1  0  0  0  0  0999 V2000
   11.9388   86.7673   69.5165 C   0  0  0  0  0  2  0  0  0  0  0  0
   11.2775   85.4417   69.3523 C   0  0  0  0  0  0  0  0  0  0  0  0
   12.0803   84.2836   69.5759 N   0  0  0  0  0  0  0  0  0  0  0  0
   10.0613   85.3802   69.0296 O   0  0  0  0  0  0  0  0  0  0  0  0
   11.8933   83.3958   70.7008 C   0  0  0  0  0  3  0  0  0  0  0  0
   13.2089   82.9083   71.1654 C   0  0  0  0  0  0  0  0  0  0  0  0
   13.5448   81.5826   71.0588 C   0  0  0  0  0  3  0  0  0  0  0  0
   14.1120   83.8107   71.7162 C   0  0  0  0  0  3  0  0  0  0  0  0
   14.7722   81.1237   71.4915 C   0  0  0  0  0  3  0  0  0  0  0  0
   15.3388   83.3589   72.1500 C   0  0  0  0  0  3  0  0  0  0  0  0
   15.6674   82.0262   72.0390 C   0  0  0  0  0  3  0  0  0  0  0  0
   11.1734   84.1203   71.8042 C   0  0  0  0  0  3  0  0  0  0  0  0
   10.0762   83.2567   72.3375 C   0  0  0  0  0  2  0  0  0  0  0  0
   12.0948   84.5054   72.9424 C   0  0  0  0  0  2  0  0  0  0  0  0
   10.5443   81.9870   72.9702 C   0  0  0  0  0  2  0  0  0  0  0  0
   12.1734   83.4648   74.0169 C   0  0  0  0  0  2  0  0  0  0  0  0
   11.9904   82.0913   73.3737 C   0  0  0  0  0  2  0  0  0  0  0  0
   11.4405   87.6864   68.4477 C   0  0  0  0  0  2  0  0  0  0  0  0
   12.3915   88.7953   68.1637 C   0  0  0  0  0  0  0  0  0  0  0  0
   13.5529   88.9481   68.8305 N   0  0  0  0  0  0  0  0  0  0  0  0
   12.0811   89.6802   67.2044 N   0  0  0  0  0  0  0  0  0  0  0  0
   14.4224   89.9356   68.5931 C   0  0  0  0  0  0  0  0  0  0  0  0
   12.9246   90.7095   66.9139 C   0  0  0  0  0  0  0  0  0  0  0  0
   15.6131   90.0941   69.2752 C   0  0  0  0  0  3  0  0  0  0  0  0
   14.1241   90.8668   67.6031 C   0  0  0  0  0  0  0  0  0  0  0  0
   16.4771   91.1383   68.9862 C   0  0  0  0  0  3  0  0  0  0  0  0
   14.9963   91.9007   67.3284 C   0  0  0  0  0  3  0  0  0  0  0  0
   16.1948   92.0612   68.0141 C   0  0  0  0  0  3  0  0  0  0  0  0
   12.6338   91.5320   66.0207 O   0  0  0  0  0  0  0  0  0  0  0  0
  1 18  1  0
  2  1  1  0
  3  2  1  0
  4  2  2  0
  5  3  1  0
  5 12  1  0
  6  8  1  0
  6  5  1  0
  7  6  2  0
  9 11  2  0
  9  7  1  0
 10  8  2  0
 11 10  1  0
 12 13  1  0
 14 12  1  0
 15 13  1  0
 16 17  1  0
 16 14  1  0
 17 15  1  0
 18 19  1  0
 19 20  2  0
 20 22  1  0
 21 23  1  0
 21 19  1  0
 22 24  2  0
 23 25  1  0
 24 26  1  0
 25 22  1  0
 25 27  2  0
 27 28  1  0
 28 26  2  0
 29 23  2  0
M  RAD  8   1   3   5   2   7   2   8   2   9   2  10   2  11   2  12   2
M  RAD  8  13   3  14   3  15   3  16   3  17   3  18   3  24   2  26   2
M  RAD  2  27   2  28   2
M  END
>  <REMARK>  (1) 
 SMILES O=C(CCc1nc2ccccc2c(=O)[nH]1)NC(c1ccccc1)C1CCCCC1
 SMILES IDX 3 1 2 2 16 3 1 4 17 6 18 7 19 8 23 9 20 10 22 11 21 12 24 13
 SMILES IDX 25 14 29 15 26 16 28 17 27 18 4 19 5 20 6 21 15 22 7 23
 SMILES IDX 13 24 8 25 12 26 9 27 11 28 10 29 14 31
 H PARENT 16 5 15 30

>  <TORSDO>  (1) 
F 6

$$$$
