/home/pchatterjee/Documents/git/vs_workflow/DiffDock/diffdock_run/pdbqt_scrubbed/Z407410718.pdbqt
     RDKit          3D

 29 32  0  0  1  0  0  0  0  0999 V2000
    6.8031   47.1090   52.4720 C   0  0  0  0  0  2  0  0  0  0  0  0
    7.1272   48.0445   53.5860 C   0  0  0  0  0  0  0  0  0  0  0  0
    6.4723   49.3121   53.5807 N   0  0  0  0  0  0  0  0  0  0  0  0
    7.9479   47.7013   54.4782 O   0  0  0  0  0  0  0  0  0  0  0  0
    5.1085   49.5005   54.0200 C   0  0  0  0  0  3  0  0  0  0  0  0
    4.3990   48.2043   53.9883 C   0  0  0  0  0  0  0  0  0  0  0  0
    4.5835   47.2777   54.9828 C   0  0  0  0  0  3  0  0  0  0  0  0
    3.5356   47.9280   52.9340 C   0  0  0  0  0  3  0  0  0  0  0  0
    3.9229   46.0664   54.9566 C   0  0  0  0  0  3  0  0  0  0  0  0
    2.8732   46.7208   52.9021 C   0  0  0  0  0  3  0  0  0  0  0  0
    3.0646   45.7965   53.9049 C   0  0  0  0  0  3  0  0  0  0  0  0
    5.0983   50.0797   55.4076 C   0  0  0  0  0  3  0  0  0  0  0  0
    6.1259   51.1608   55.5062 C   0  0  0  0  0  2  0  0  0  0  0  0
    3.7475   50.6475   55.7889 C   0  0  0  0  0  2  0  0  0  0  0  0
    5.8755   52.3316   54.6128 C   0  0  0  0  0  2  0  0  0  0  0  0
    3.6005   52.0996   55.4520 C   0  0  0  0  0  2  0  0  0  0  0  0
    4.4288   52.3919   54.2021 C   0  0  0  0  0  2  0  0  0  0  0  0
    7.9058   46.1064   52.3527 C   0  0  0  0  0  2  0  0  0  0  0  0
    7.6066   45.0502   51.3480 C   0  0  0  0  0  0  0  0  0  0  0  0
    6.3655   44.5631   51.1500 N   0  0  0  0  0  0  0  0  0  0  0  0
    8.6133   44.5617   50.6077 N   0  0  0  0  0  0  0  0  0  0  0  0
    6.0728   43.6151   50.2540 C   0  0  0  0  0  0  0  0  0  0  0  0
    8.3813   43.5944   49.6774 C   0  0  0  0  0  0  0  0  0  0  0  0
    4.8016   43.1145   50.0495 C   0  0  0  0  0  3  0  0  0  0  0  0
    7.0990   43.0916   49.4734 C   0  0  0  0  0  0  0  0  0  0  0  0
    4.5566   42.1303   49.1051 C   0  0  0  0  0  3  0  0  0  0  0  0
    6.8369   42.1117   48.5375 C   0  0  0  0  0  3  0  0  0  0  0  0
    5.5582   41.6072   48.3308 C   0  0  0  0  0  3  0  0  0  0  0  0
    9.3195   43.1411   48.9895 O   0  0  0  0  0  0  0  0  0  0  0  0
  1 18  1  0
  2  1  1  0
  3  2  1  0
  4  2  2  0
  5  3  1  0
  5 12  1  0
  6  8  1  0
  6  5  1  0
  7  6  2  0
  9 11  2  0
  9  7  1  0
 10  8  2  0
 11 10  1  0
 12 13  1  0
 14 12  1  0
 15 13  1  0
 16 17  1  0
 16 14  1  0
 17 15  1  0
 18 19  1  0
 19 20  2  0
 20 22  1  0
 21 23  1  0
 21 19  1  0
 22 24  2  0
 23 25  1  0
 24 26  1  0
 25 22  1  0
 25 27  2  0
 27 28  1  0
 28 26  2  0
 29 23  2  0
M  RAD  8   1   3   5   2   7   2   8   2   9   2  10   2  11   2  12   2
M  RAD  8  13   3  14   3  15   3  16   3  17   3  18   3  24   2  26   2
M  RAD  2  27   2  28   2
M  END
>  <REMARK>  (1) 
 SMILES O=C(CCc1nc2ccccc2c(=O)[nH]1)NC(c1ccccc1)C1CCCCC1
 SMILES IDX 3 1 2 2 16 3 1 4 17 6 18 7 19 8 23 9 20 10 22 11 21 12 24 13
 SMILES IDX 25 14 29 15 26 16 28 17 27 18 4 19 5 20 6 21 15 22 7 23
 SMILES IDX 13 24 8 25 12 26 9 27 11 28 10 29 14 31
 H PARENT 16 5 15 30

>  <TORSDO>  (1) 
F 6

$$$$
