/home/pchatterjee/Documents/git/vs_workflow/DiffDock/diffdock_run/pdbqt_scrubbed/Z407410718.pdbqt
     RDKit          3D

 29 32  0  0  1  0  0  0  0  0999 V2000
    4.4960   43.3080   50.3470 C   0  0  0  0  0  2  0  0  0  0  0  0
    3.4727   42.3748   49.7963 C   0  0  0  0  0  0  0  0  0  0  0  0
    2.1900   42.9222   49.4950 N   0  0  0  0  0  0  0  0  0  0  0  0
    3.7590   41.1612   49.6161 O   0  0  0  0  0  0  0  0  0  0  0  0
    1.1650   43.1324   50.4919 C   0  0  0  0  0  3  0  0  0  0  0  0
    0.0535   42.1862   50.2602 C   0  0  0  0  0  0  0  0  0  0  0  0
   -1.2318   42.6377   50.0996 C   0  0  0  0  0  3  0  0  0  0  0  0
    0.3219   40.8230   50.2057 C   0  0  0  0  0  3  0  0  0  0  0  0
   -2.2722   41.7573   49.8831 C   0  0  0  0  0  3  0  0  0  0  0  0
   -0.7122   39.9391   49.9899 C   0  0  0  0  0  3  0  0  0  0  0  0
   -1.9995   40.4014   49.8298 C   0  0  0  0  0  3  0  0  0  0  0  0
    1.7474   42.9444   51.8653 C   0  0  0  0  0  3  0  0  0  0  0  0
    2.5376   44.1554   52.2439 C   0  0  0  0  0  2  0  0  0  0  0  0
    0.6857   42.7003   52.9168 C   0  0  0  0  0  2  0  0  0  0  0  0
    1.7312   45.4083   52.3505 C   0  0  0  0  0  2  0  0  0  0  0  0
    0.1991   43.9581   53.5684 C   0  0  0  0  0  2  0  0  0  0  0  0
    0.2731   45.0914   52.5467 C   0  0  0  0  0  2  0  0  0  0  0  0
    5.8543   42.7808   50.0121 C   0  0  0  0  0  2  0  0  0  0  0  0
    6.9393   43.7279   50.3869 C   0  0  0  0  0  0  0  0  0  0  0  0
    6.7318   44.7958   51.1827 N   0  0  0  0  0  0  0  0  0  0  0  0
    8.1758   43.5108   49.9138 N   0  0  0  0  0  0  0  0  0  0  0  0
    7.6901   45.6598   51.5328 C   0  0  0  0  0  0  0  0  0  0  0  0
    9.1964   44.3541   50.2334 C   0  0  0  0  0  0  0  0  0  0  0  0
    7.4797   46.7549   52.3481 C   0  0  0  0  0  3  0  0  0  0  0  0
    8.9815   45.4571   51.0555 C   0  0  0  0  0  0  0  0  0  0  0  0
    8.5124   47.6180   52.6784 C   0  0  0  0  0  3  0  0  0  0  0  0
    9.9980   46.3270   51.3945 C   0  0  0  0  0  3  0  0  0  0  0  0
    9.7875   47.4292   52.2149 C   0  0  0  0  0  3  0  0  0  0  0  0
   10.3465   44.1503   49.7921 O   0  0  0  0  0  0  0  0  0  0  0  0
  1 18  1  0
  2  1  1  0
  3  2  1  0
  4  2  2  0
  5  3  1  0
  5 12  1  0
  6  8  1  0
  6  5  1  0
  7  6  2  0
  9 11  2  0
  9  7  1  0
 10  8  2  0
 11 10  1  0
 12 13  1  0
 14 12  1  0
 15 13  1  0
 16 17  1  0
 16 14  1  0
 17 15  1  0
 18 19  1  0
 19 20  2  0
 20 22  1  0
 21 23  1  0
 21 19  1  0
 22 24  2  0
 23 25  1  0
 24 26  1  0
 25 22  1  0
 25 27  2  0
 27 28  1  0
 28 26  2  0
 29 23  2  0
M  RAD  8   1   3   5   2   7   2   8   2   9   2  10   2  11   2  12   2
M  RAD  8  13   3  14   3  15   3  16   3  17   3  18   3  24   2  26   2
M  RAD  2  27   2  28   2
M  END
>  <REMARK>  (1) 
 SMILES O=C(CCc1nc2ccccc2c(=O)[nH]1)NC(c1ccccc1)C1CCCCC1
 SMILES IDX 3 1 2 2 16 3 1 4 17 6 18 7 19 8 23 9 20 10 22 11 21 12 24 13
 SMILES IDX 25 14 29 15 26 16 28 17 27 18 4 19 5 20 6 21 15 22 7 23
 SMILES IDX 13 24 8 25 12 26 9 27 11 28 10 29 14 31
 H PARENT 16 5 15 30

>  <TORSDO>  (1) 
F 6

$$$$
