/home/pchatterjee/Documents/git/vs_workflow/DiffDock/diffdock_run/pdbqt_scrubbed/Z407410718.pdbqt
     RDKit          3D

 29 32  0  0  1  0  0  0  0  0999 V2000
    4.9624   43.5825   50.5854 C   0  0  0  0  0  2  0  0  0  0  0  0
    3.7468   42.9471   50.0024 C   0  0  0  0  0  0  0  0  0  0  0  0
    3.9459   41.7992   49.1787 N   0  0  0  0  0  0  0  0  0  0  0  0
    2.6074   43.4265   50.2453 O   0  0  0  0  0  0  0  0  0  0  0  0
    3.0262   41.4036   48.1364 C   0  0  0  0  0  3  0  0  0  0  0  0
    3.5584   41.8285   46.8247 C   0  0  0  0  0  0  0  0  0  0  0  0
    4.8856   41.6657   46.5188 C   0  0  0  0  0  3  0  0  0  0  0  0
    2.6970   42.3994   45.8946 C   0  0  0  0  0  3  0  0  0  0  0  0
    5.3863   42.0611   45.2951 C   0  0  0  0  0  3  0  0  0  0  0  0
    3.1905   42.7962   44.6714 C   0  0  0  0  0  3  0  0  0  0  0  0
    4.5245   42.6289   44.3729 C   0  0  0  0  0  3  0  0  0  0  0  0
    2.8282   39.9135   48.1739 C   0  0  0  0  0  3  0  0  0  0  0  0
    3.5583   39.3409   49.3459 C   0  0  0  0  0  2  0  0  0  0  0  0
    1.3676   39.5249   48.2655 C   0  0  0  0  0  2  0  0  0  0  0  0
    3.0616   39.8154   50.6724 C   0  0  0  0  0  2  0  0  0  0  0  0
    0.8838   39.3729   49.6748 C   0  0  0  0  0  2  0  0  0  0  0  0
    1.6586   40.3481   50.5595 C   0  0  0  0  0  2  0  0  0  0  0  0
    4.5377   44.7329   51.4407 C   0  0  0  0  0  2  0  0  0  0  0  0
    5.6863   45.3849   52.1265 C   0  0  0  0  0  0  0  0  0  0  0  0
    6.9673   45.1712   51.7659 N   0  0  0  0  0  0  0  0  0  0  0  0
    5.4376   46.2204   53.1463 N   0  0  0  0  0  0  0  0  0  0  0  0
    8.0147   45.7451   52.3666 C   0  0  0  0  0  0  0  0  0  0  0  0
    6.4610   46.8372   53.8002 C   0  0  0  0  0  0  0  0  0  0  0  0
    9.3283   45.5275   51.9986 C   0  0  0  0  0  3  0  0  0  0  0  0
    7.7840   46.6160   53.4272 C   0  0  0  0  0  0  0  0  0  0  0  0
   10.3756   46.1508   52.6584 C   0  0  0  0  0  3  0  0  0  0  0  0
    8.8392   47.2281   54.0729 C   0  0  0  0  0  3  0  0  0  0  0  0
   10.1613   47.0099   53.7036 C   0  0  0  0  0  3  0  0  0  0  0  0
    6.2274   47.6144   54.7491 O   0  0  0  0  0  0  0  0  0  0  0  0
  1 18  1  0
  2  1  1  0
  3  2  1  0
  4  2  2  0
  5  3  1  0
  5 12  1  0
  6  8  1  0
  6  5  1  0
  7  6  2  0
  9 11  2  0
  9  7  1  0
 10  8  2  0
 11 10  1  0
 12 13  1  0
 14 12  1  0
 15 13  1  0
 16 17  1  0
 16 14  1  0
 17 15  1  0
 18 19  1  0
 19 20  2  0
 20 22  1  0
 21 23  1  0
 21 19  1  0
 22 24  2  0
 23 25  1  0
 24 26  1  0
 25 22  1  0
 25 27  2  0
 27 28  1  0
 28 26  2  0
 29 23  2  0
M  RAD  8   1   3   5   2   7   2   8   2   9   2  10   2  11   2  12   2
M  RAD  8  13   3  14   3  15   3  16   3  17   3  18   3  24   2  26   2
M  RAD  2  27   2  28   2
M  END
>  <REMARK>  (1) 
 SMILES O=C(CCc1nc2ccccc2c(=O)[nH]1)NC(c1ccccc1)C1CCCCC1
 SMILES IDX 3 1 2 2 16 3 1 4 17 6 18 7 19 8 23 9 20 10 22 11 21 12 24 13
 SMILES IDX 25 14 29 15 26 16 28 17 27 18 4 19 5 20 6 21 15 22 7 23
 SMILES IDX 13 24 8 25 12 26 9 27 11 28 10 29 14 31
 H PARENT 16 5 15 30

>  <TORSDO>  (1) 
F 6

$$$$
