/home/pchatterjee/Documents/git/vs_workflow/DiffDock/diffdock_run/pdbqt_scrubbed/Z407410718.pdbqt
     RDKit          3D

 29 32  0  0  1  0  0  0  0  0999 V2000
    7.8468   46.6144   53.7991 C   0  0  0  0  0  2  0  0  0  0  0  0
    7.6479   48.0652   54.0764 C   0  0  0  0  0  0  0  0  0  0  0  0
    6.4512   48.4377   54.7582 N   0  0  0  0  0  0  0  0  0  0  0  0
    8.5170   48.9012   53.7118 O   0  0  0  0  0  0  0  0  0  0  0  0
    5.2821   48.9522   54.0821 C   0  0  0  0  0  3  0  0  0  0  0  0
    4.4004   47.8284   53.7025 C   0  0  0  0  0  0  0  0  0  0  0  0
    3.6341   47.8893   52.5664 C   0  0  0  0  0  3  0  0  0  0  0  0
    4.3524   46.6990   54.5121 C   0  0  0  0  0  3  0  0  0  0  0  0
    2.8096   46.8421   52.2087 C   0  0  0  0  0  3  0  0  0  0  0  0
    3.5314   45.6504   54.1605 C   0  0  0  0  0  3  0  0  0  0  0  0
    2.7656   45.7202   53.0181 C   0  0  0  0  0  3  0  0  0  0  0  0
    4.5595   49.9163   54.9815 C   0  0  0  0  0  3  0  0  0  0  0  0
    5.5242   50.9306   55.5060 C   0  0  0  0  0  2  0  0  0  0  0  0
    3.4279   50.6319   54.2745 C   0  0  0  0  0  2  0  0  0  0  0  0
    6.1416   51.7941   54.4550 C   0  0  0  0  0  2  0  0  0  0  0  0
    3.8483   51.9240   53.6441 C   0  0  0  0  0  2  0  0  0  0  0  0
    5.3054   51.7953   53.2037 C   0  0  0  0  0  2  0  0  0  0  0  0
    8.6516   46.4723   52.5471 C   0  0  0  0  0  2  0  0  0  0  0  0
    8.0849   45.4553   51.6202 C   0  0  0  0  0  0  0  0  0  0  0  0
    6.8179   45.0058   51.7179 N   0  0  0  0  0  0  0  0  0  0  0  0
    8.8665   44.9646   50.6465 N   0  0  0  0  0  0  0  0  0  0  0  0
    6.2872   44.0934   50.8974 C   0  0  0  0  0  0  0  0  0  0  0  0
    8.3858   44.0324   49.7776 C   0  0  0  0  0  0  0  0  0  0  0  0
    4.9890   43.6313   50.9957 C   0  0  0  0  0  3  0  0  0  0  0  0
    7.0770   43.5685   49.8790 C   0  0  0  0  0  0  0  0  0  0  0  0
    4.4917   42.6831   50.1159 C   0  0  0  0  0  3  0  0  0  0  0  0
    6.5652   42.6246   49.0117 C   0  0  0  0  0  3  0  0  0  0  0  0
    5.2592   42.1590   49.1096 C   0  0  0  0  0  3  0  0  0  0  0  0
    9.1149   43.5770   48.8721 O   0  0  0  0  0  0  0  0  0  0  0  0
  1 18  1  0
  2  1  1  0
  3  2  1  0
  4  2  2  0
  5  3  1  0
  5 12  1  0
  6  8  1  0
  6  5  1  0
  7  6  2  0
  9 11  2  0
  9  7  1  0
 10  8  2  0
 11 10  1  0
 12 13  1  0
 14 12  1  0
 15 13  1  0
 16 17  1  0
 16 14  1  0
 17 15  1  0
 18 19  1  0
 19 20  2  0
 20 22  1  0
 21 23  1  0
 21 19  1  0
 22 24  2  0
 23 25  1  0
 24 26  1  0
 25 22  1  0
 25 27  2  0
 27 28  1  0
 28 26  2  0
 29 23  2  0
M  RAD  8   1   3   5   2   7   2   8   2   9   2  10   2  11   2  12   2
M  RAD  8  13   3  14   3  15   3  16   3  17   3  18   3  24   2  26   2
M  RAD  2  27   2  28   2
M  END
>  <REMARK>  (1) 
 SMILES O=C(CCc1nc2ccccc2c(=O)[nH]1)NC(c1ccccc1)C1CCCCC1
 SMILES IDX 3 1 2 2 16 3 1 4 17 6 18 7 19 8 23 9 20 10 22 11 21 12 24 13
 SMILES IDX 25 14 29 15 26 16 28 17 27 18 4 19 5 20 6 21 15 22 7 23
 SMILES IDX 13 24 8 25 12 26 9 27 11 28 10 29 14 31
 H PARENT 16 5 15 30

>  <TORSDO>  (1) 
F 6

$$$$
