/home/pchatterjee/Documents/git/vs_workflow/DiffDock/diffdock_run/pdbqt_scrubbed/Z407410718.pdbqt
     RDKit          3D

 29 32  0  0  1  0  0  0  0  0999 V2000
    8.7987   47.7503   52.0518 C   0  0  0  0  0  2  0  0  0  0  0  0
    7.9831   47.5066   53.2751 C   0  0  0  0  0  0  0  0  0  0  0  0
    6.8446   48.3434   53.4738 N   0  0  0  0  0  0  0  0  0  0  0  0
    8.3109   46.5939   54.0793 O   0  0  0  0  0  0  0  0  0  0  0  0
    5.9084   48.1618   54.5597 C   0  0  0  0  0  3  0  0  0  0  0  0
    4.8772   49.2189   54.5008 C   0  0  0  0  0  0  0  0  0  0  0  0
    4.0723   49.4764   55.5813 C   0  0  0  0  0  3  0  0  0  0  0  0
    4.7271   49.9573   53.3323 C   0  0  0  0  0  3  0  0  0  0  0  0
    3.1084   50.4626   55.5301 C   0  0  0  0  0  3  0  0  0  0  0  0
    3.7668   50.9431   53.2748 C   0  0  0  0  0  3  0  0  0  0  0  0
    2.9632   51.1946   54.3645 C   0  0  0  0  0  3  0  0  0  0  0  0
    5.2805   46.7989   54.4651 C   0  0  0  0  0  3  0  0  0  0  0  0
    3.8028   46.9141   54.6589 C   0  0  0  0  0  2  0  0  0  0  0  0
    5.5521   46.1264   53.1359 C   0  0  0  0  0  2  0  0  0  0  0  0
    3.1052   47.7183   53.6110 C   0  0  0  0  0  2  0  0  0  0  0  0
    4.5013   46.4070   52.1061 C   0  0  0  0  0  2  0  0  0  0  0  0
    3.9369   47.8037   52.3596 C   0  0  0  0  0  2  0  0  0  0  0  0
    9.6017   46.5235   51.7596 C   0  0  0  0  0  2  0  0  0  0  0  0
    8.8125   45.4859   51.0419 C   0  0  0  0  0  0  0  0  0  0  0  0
    7.6112   45.0547   51.4751 N   0  0  0  0  0  0  0  0  0  0  0  0
    9.3166   44.9568   49.9168 N   0  0  0  0  0  0  0  0  0  0  0  0
    6.8844   44.1243   50.8477 C   0  0  0  0  0  0  0  0  0  0  0  0
    8.6257   44.0046   49.2304 C   0  0  0  0  0  0  0  0  0  0  0  0
    5.6531   43.6810   51.2899 C   0  0  0  0  0  3  0  0  0  0  0  0
    7.3848   43.5596   49.6785 C   0  0  0  0  0  0  0  0  0  0  0  0
    4.9433   42.7126   50.5978 C   0  0  0  0  0  3  0  0  0  0  0  0
    6.6643   42.5962   49.0019 C   0  0  0  0  0  3  0  0  0  0  0  0
    5.4252   42.1493   49.4459 C   0  0  0  0  0  3  0  0  0  0  0  0
    9.0966   43.5135   48.1835 O   0  0  0  0  0  0  0  0  0  0  0  0
  1 18  1  0
  2  1  1  0
  3  2  1  0
  4  2  2  0
  5  3  1  0
  5 12  1  0
  6  8  1  0
  6  5  1  0
  7  6  2  0
  9 11  2  0
  9  7  1  0
 10  8  2  0
 11 10  1  0
 12 13  1  0
 14 12  1  0
 15 13  1  0
 16 17  1  0
 16 14  1  0
 17 15  1  0
 18 19  1  0
 19 20  2  0
 20 22  1  0
 21 23  1  0
 21 19  1  0
 22 24  2  0
 23 25  1  0
 24 26  1  0
 25 22  1  0
 25 27  2  0
 27 28  1  0
 28 26  2  0
 29 23  2  0
M  RAD  8   1   3   5   2   7   2   8   2   9   2  10   2  11   2  12   2
M  RAD  8  13   3  14   3  15   3  16   3  17   3  18   3  24   2  26   2
M  RAD  2  27   2  28   2
M  END
>  <REMARK>  (1) 
 SMILES O=C(CCc1nc2ccccc2c(=O)[nH]1)NC(c1ccccc1)C1CCCCC1
 SMILES IDX 3 1 2 2 16 3 1 4 17 6 18 7 19 8 23 9 20 10 22 11 21 12 24 13
 SMILES IDX 25 14 29 15 26 16 28 17 27 18 4 19 5 20 6 21 15 22 7 23
 SMILES IDX 13 24 8 25 12 26 9 27 11 28 10 29 14 31
 H PARENT 16 5 15 30

>  <TORSDO>  (1) 
F 6

$$$$
