/home/pchatterjee/Documents/git/vs_workflow/DiffDock/diffdock_run/pdbqt_scrubbed/Z407410718.pdbqt
     RDKit          3D

 29 32  0  0  1  0  0  0  0  0999 V2000
    9.1085   45.9849   51.8977 C   0  0  0  0  0  2  0  0  0  0  0  0
    8.4394   47.2187   52.3989 C   0  0  0  0  0  0  0  0  0  0  0  0
    8.3294   47.3686   53.8136 N   0  0  0  0  0  0  0  0  0  0  0  0
    8.0008   48.0731   51.5835 O   0  0  0  0  0  0  0  0  0  0  0  0
    7.2923   48.1495   54.4487 C   0  0  0  0  0  3  0  0  0  0  0  0
    5.9692   47.6293   54.0447 C   0  0  0  0  0  0  0  0  0  0  0  0
    5.5523   46.3844   54.4422 C   0  0  0  0  0  3  0  0  0  0  0  0
    5.1424   48.4175   53.2520 C   0  0  0  0  0  3  0  0  0  0  0  0
    4.3177   45.8953   54.0671 C   0  0  0  0  0  3  0  0  0  0  0  0
    3.9089   47.9350   52.8742 C   0  0  0  0  0  3  0  0  0  0  0  0
    3.4987   46.6840   53.2780 C   0  0  0  0  0  3  0  0  0  0  0  0
    7.4553   48.0893   55.9422 C   0  0  0  0  0  3  0  0  0  0  0  0
    8.7803   47.4838   56.2771 C   0  0  0  0  0  2  0  0  0  0  0  0
    7.3589   49.4539   56.5913 C   0  0  0  0  0  2  0  0  0  0  0  0
    9.9559   48.2762   55.8065 C   0  0  0  0  0  2  0  0  0  0  0  0
    8.6839   50.1393   56.7254 C   0  0  0  0  0  2  0  0  0  0  0  0
    9.5707   49.7097   55.5580 C   0  0  0  0  0  2  0  0  0  0  0  0
    8.9450   45.9212   50.4129 C   0  0  0  0  0  2  0  0  0  0  0  0
    8.0853   44.7845   49.9846 C   0  0  0  0  0  0  0  0  0  0  0  0
    7.0693   44.3157   50.7361 N   0  0  0  0  0  0  0  0  0  0  0  0
    8.3306   44.2014   48.8016 N   0  0  0  0  0  0  0  0  0  0  0  0
    6.2839   43.2966   50.3725 C   0  0  0  0  0  0  0  0  0  0  0  0
    7.5668   43.1582   48.3731 C   0  0  0  0  0  0  0  0  0  0  0  0
    5.2422   42.8145   51.1410 C   0  0  0  0  0  3  0  0  0  0  0  0
    6.5174   42.6744   49.1498 C   0  0  0  0  0  0  0  0  0  0  0  0
    4.4600   41.7536   50.7128 C   0  0  0  0  0  3  0  0  0  0  0  0
    5.7284   41.6190   48.7392 C   0  0  0  0  0  3  0  0  0  0  0  0
    4.6799   41.1330   49.5116 C   0  0  0  0  0  3  0  0  0  0  0  0
    7.7968   42.6169   47.2718 O   0  0  0  0  0  0  0  0  0  0  0  0
  1 18  1  0
  2  1  1  0
  3  2  1  0
  4  2  2  0
  5  3  1  0
  5 12  1  0
  6  8  1  0
  6  5  1  0
  7  6  2  0
  9 11  2  0
  9  7  1  0
 10  8  2  0
 11 10  1  0
 12 13  1  0
 14 12  1  0
 15 13  1  0
 16 17  1  0
 16 14  1  0
 17 15  1  0
 18 19  1  0
 19 20  2  0
 20 22  1  0
 21 23  1  0
 21 19  1  0
 22 24  2  0
 23 25  1  0
 24 26  1  0
 25 22  1  0
 25 27  2  0
 27 28  1  0
 28 26  2  0
 29 23  2  0
M  RAD  8   1   3   5   2   7   2   8   2   9   2  10   2  11   2  12   2
M  RAD  8  13   3  14   3  15   3  16   3  17   3  18   3  24   2  26   2
M  RAD  2  27   2  28   2
M  END
>  <REMARK>  (1) 
 SMILES O=C(CCc1nc2ccccc2c(=O)[nH]1)NC(c1ccccc1)C1CCCCC1
 SMILES IDX 3 1 2 2 16 3 1 4 17 6 18 7 19 8 23 9 20 10 22 11 21 12 24 13
 SMILES IDX 25 14 29 15 26 16 28 17 27 18 4 19 5 20 6 21 15 22 7 23
 SMILES IDX 13 24 8 25 12 26 9 27 11 28 10 29 14 31
 H PARENT 16 5 15 30

>  <TORSDO>  (1) 
F 6

$$$$
