/home/pchatterjee/Documents/git/vs_workflow/DiffDock/diffdock_run/pdbqt_scrubbed/Z407410718.pdbqt
     RDKit          3D

 29 32  0  0  1  0  0  0  0  0999 V2000
   13.7805   86.2688   69.3833 C   0  0  0  0  0  2  0  0  0  0  0  0
   14.5642   86.2325   68.1161 C   0  0  0  0  0  0  0  0  0  0  0  0
   15.9628   85.9719   68.2249 N   0  0  0  0  0  0  0  0  0  0  0  0
   13.9876   86.4275   67.0131 O   0  0  0  0  0  0  0  0  0  0  0  0
   16.6757   85.9881   69.4818 C   0  0  0  0  0  3  0  0  0  0  0  0
   16.5629   84.6633   70.1273 C   0  0  0  0  0  0  0  0  0  0  0  0
   15.4019   83.9376   70.0440 C   0  0  0  0  0  3  0  0  0  0  0  0
   17.6514   84.1530   70.8259 C   0  0  0  0  0  3  0  0  0  0  0  0
   15.2927   82.7003   70.6453 C   0  0  0  0  0  3  0  0  0  0  0  0
   17.5488   82.9186   71.4283 C   0  0  0  0  0  3  0  0  0  0  0  0
   16.3792   82.1971   71.3394 C   0  0  0  0  0  3  0  0  0  0  0  0
   18.1170   86.3433   69.2425 C   0  0  0  0  0  3  0  0  0  0  0  0
   18.9904   85.5157   70.1295 C   0  0  0  0  0  2  0  0  0  0  0  0
   18.5350   86.1313   67.8027 C   0  0  0  0  0  2  0  0  0  0  0  0
   18.9207   84.0471   69.8654 C   0  0  0  0  0  2  0  0  0  0  0  0
   19.0891   84.7641   67.5435 C   0  0  0  0  0  2  0  0  0  0  0  0
   18.3966   83.7763   68.4808 C   0  0  0  0  0  2  0  0  0  0  0  0
   12.4063   85.7466   69.1113 C   0  0  0  0  0  2  0  0  0  0  0  0
   11.7873   85.1241   70.3130 C   0  0  0  0  0  0  0  0  0  0  0  0
   12.3326   85.2126   71.5424 N   0  0  0  0  0  0  0  0  0  0  0  0
   10.6386   84.4462   70.1679 N   0  0  0  0  0  0  0  0  0  0  0  0
   11.7953   84.6621   72.6358 C   0  0  0  0  0  0  0  0  0  0  0  0
   10.0401   83.8618   71.2427 C   0  0  0  0  0  0  0  0  0  0  0  0
   12.3525   84.7517   73.8967 C   0  0  0  0  0  3  0  0  0  0  0  0
   10.6039   83.9537   72.5124 C   0  0  0  0  0  0  0  0  0  0  0  0
   11.7503   84.1601   74.9957 C   0  0  0  0  0  3  0  0  0  0  0  0
   10.0180   83.3708   73.6179 C   0  0  0  0  0  3  0  0  0  0  0  0
   10.5778   83.4603   74.8871 C   0  0  0  0  0  3  0  0  0  0  0  0
    8.9711   83.2314   71.1055 O   0  0  0  0  0  0  0  0  0  0  0  0
  1 18  1  0
  2  1  1  0
  3  2  1  0
  4  2  2  0
  5  3  1  0
  5 12  1  0
  6  8  1  0
  6  5  1  0
  7  6  2  0
  9 11  2  0
  9  7  1  0
 10  8  2  0
 11 10  1  0
 12 13  1  0
 14 12  1  0
 15 13  1  0
 16 17  1  0
 16 14  1  0
 17 15  1  0
 18 19  1  0
 19 20  2  0
 20 22  1  0
 21 23  1  0
 21 19  1  0
 22 24  2  0
 23 25  1  0
 24 26  1  0
 25 22  1  0
 25 27  2  0
 27 28  1  0
 28 26  2  0
 29 23  2  0
M  RAD  8   1   3   5   2   7   2   8   2   9   2  10   2  11   2  12   2
M  RAD  8  13   3  14   3  15   3  16   3  17   3  18   3  24   2  26   2
M  RAD  2  27   2  28   2
M  END
>  <REMARK>  (1) 
 SMILES O=C(CCc1nc2ccccc2c(=O)[nH]1)NC(c1ccccc1)C1CCCCC1
 SMILES IDX 3 1 2 2 16 3 1 4 17 6 18 7 19 8 23 9 20 10 22 11 21 12 24 13
 SMILES IDX 25 14 29 15 26 16 28 17 27 18 4 19 5 20 6 21 15 22 7 23
 SMILES IDX 13 24 8 25 12 26 9 27 11 28 10 29 14 31
 H PARENT 16 5 15 30

>  <TORSDO>  (1) 
F 6

$$$$
