/home/pchatterjee/Documents/git/vs_workflow/DiffDock/diffdock_run/pdbqt_scrubbed/Z1883550081.pdbqt
     RDKit          3D

 24 27  0  0  1  0  0  0  0  0999 V2000
    4.0370   41.2487   48.7868 C   0  0  0  0  0  0  0  0  0  0  0  0
    5.0374   40.8414   47.8883 C   0  0  0  0  0  3  0  0  0  0  0  0
    6.2784   41.4341   47.9391 C   0  0  0  0  0  3  0  0  0  0  0  0
    6.5514   42.4369   48.8820 C   0  0  0  0  0  0  0  0  0  0  0  0
    5.5833   42.8528   49.7787 C   0  0  0  0  0  3  0  0  0  0  0  0
    4.3331   42.2314   49.6975 C   0  0  0  0  0  3  0  0  0  0  0  0
    2.7936   40.5960   48.6544 N   0  0  0  0  0  0  0  0  0  0  0  0
    1.5287   41.3256   48.4071 C   0  0  0  0  0  3  0  0  0  0  0  0
   -0.1065   41.3215   50.1456 C   0  0  0  0  0  0  0  0  0  0  0  0
    0.9776   41.7574   49.6516 N   0  0  0  0  0  0  0  0  0  0  0  0
   -0.9495   40.3501   49.4852 N   0  0  0  0  0  2  0  0  0  0  0  0
   -0.5321   39.8557   48.1916 C   0  0  0  0  0  0  0  0  0  0  0  0
    0.6442   40.3729   47.7198 C   0  0  0  0  0  0  0  0  0  0  0  0
   -1.0718   38.9929   47.3084 N   0  0  0  0  0  0  0  0  0  0  0  0
    0.8046   39.7704   46.4729 C   0  0  0  0  0  3  0  0  0  0  0  0
   -0.2446   38.9285   46.2208 C   0  0  0  0  0  3  0  0  0  0  0  0
   -0.6000   41.8245   51.4433 C   0  0  0  0  0  1  0  0  0  0  0  0
    7.8545   42.9793   48.8246 N   0  0  0  0  0  0  0  0  0  0  0  0
    8.3369   43.9182   49.7609 C   0  0  0  0  0  0  0  0  0  0  0  0
    7.4716   44.5008   50.6071 N   0  0  0  0  0  0  0  0  0  0  0  0
    9.6595   44.2207   49.8088 N   0  0  0  0  0  0  0  0  0  0  0  0
    7.9057   45.4021   51.5250 C   0  0  0  0  0  3  0  0  0  0  0  0
   10.1123   45.1217   50.7212 C   0  0  0  0  0  3  0  0  0  0  0  0
    9.2407   45.7303   51.5989 C   0  0  0  0  0  3  0  0  0  0  0  0
  1  6  1  0
  1  7  1  0
  2  1  2  0
  3  4  2  0
  3  2  1  0
  4  5  1  0
  5  6  2  0
  8  7  1  0
  8 10  1  0
  9 10  2  0
  9 17  1  0
 11  9  1  0
 12 13  2  0
 12 11  1  0
 13  8  1  0
 14 12  1  0
 15 13  1  0
 16 14  1  0
 16 15  2  0
 18  4  1  0
 19 18  1  0
 20 19  2  0
 21 19  1  0
 22 20  1  0
 23 21  2  0
 24 22  2  0
 24 23  1  0
M  RAD  8   2   2   3   2   5   2   6   2   8   2  11   2  15   2  16   2
M  RAD  4  17   2  22   2  23   2  24   2
M  END
>  <REMARK>  (1) 
 SMILES Cc1nc(Nc2ccc(Nc3ncccn3)cc2)c2cc[nH]c2n1
 SMILES IDX 6 1 7 2 8 3 9 4 17 5 18 6 5 7 4 9 2 10 3 11 24 12 23 13
 SMILES IDX 19 14 22 15 20 16 21 17 1 18 10 20 11 22 12 23 16 24 13 25
 SMILES IDX 15 26 14 27
 H PARENT 5 8 22 19 10 21

>  <TORSDO>  (1) 
F 4

$$$$
