/home/pchatterjee/Documents/git/vs_workflow/DiffDock/diffdock_run/pdbqt_scrubbed/Z1883550081.pdbqt
     RDKit          3D

 24 27  0  0  1  0  0  0  0  0999 V2000
    5.0172   42.9332   49.9110 C   0  0  0  0  0  0  0  0  0  0  0  0
    6.2186   42.6866   49.2256 C   0  0  0  0  0  3  0  0  0  0  0  0
    7.3504   43.3933   49.5627 C   0  0  0  0  0  3  0  0  0  0  0  0
    7.3133   44.3529   50.5859 C   0  0  0  0  0  0  0  0  0  0  0  0
    6.1427   44.6114   51.2766 C   0  0  0  0  0  3  0  0  0  0  0  0
    5.0113   43.8774   50.9066 C   0  0  0  0  0  3  0  0  0  0  0  0
    3.9064   42.1721   49.4910 N   0  0  0  0  0  0  0  0  0  0  0  0
    4.0192   40.7574   49.0675 C   0  0  0  0  0  3  0  0  0  0  0  0
    4.1943   40.3157   46.7285 C   0  0  0  0  0  0  0  0  0  0  0  0
    4.7163   40.6876   47.8232 N   0  0  0  0  0  0  0  0  0  0  0  0
    2.8228   39.8739   46.6092 N   0  0  0  0  0  2  0  0  0  0  0  0
    2.0089   39.8531   47.8046 C   0  0  0  0  0  0  0  0  0  0  0  0
    2.6392   40.2635   48.9482 C   0  0  0  0  0  0  0  0  0  0  0  0
    0.7376   39.4843   48.0567 N   0  0  0  0  0  0  0  0  0  0  0  0
    1.6688   40.1254   49.9395 C   0  0  0  0  0  3  0  0  0  0  0  0
    0.5075   39.6479   49.3952 C   0  0  0  0  0  3  0  0  0  0  0  0
    4.9925   40.2772   45.4868 C   0  0  0  0  0  1  0  0  0  0  0  0
    8.5331   45.0230   50.8280 N   0  0  0  0  0  0  0  0  0  0  0  0
    8.7195   45.9110   51.9086 C   0  0  0  0  0  0  0  0  0  0  0  0
    9.9473   46.4006   52.1475 N   0  0  0  0  0  0  0  0  0  0  0  0
    7.6688   46.2700   52.6898 N   0  0  0  0  0  0  0  0  0  0  0  0
   10.1579   47.2633   53.1745 C   0  0  0  0  0  3  0  0  0  0  0  0
    7.8611   47.1326   53.7234 C   0  0  0  0  0  3  0  0  0  0  0  0
    9.1130   47.6468   53.9849 C   0  0  0  0  0  3  0  0  0  0  0  0
  1  6  1  0
  1  7  1  0
  2  1  2  0
  3  4  2  0
  3  2  1  0
  4  5  1  0
  5  6  2  0
  8  7  1  0
  8 10  1  0
  9 10  2  0
  9 17  1  0
 11  9  1  0
 12 13  2  0
 12 11  1  0
 13  8  1  0
 14 12  1  0
 15 13  1  0
 16 14  1  0
 16 15  2  0
 18  4  1  0
 19 18  1  0
 20 19  2  0
 21 19  1  0
 22 20  1  0
 23 21  2  0
 24 22  2  0
 24 23  1  0
M  RAD  8   2   2   3   2   5   2   6   2   8   2  11   2  15   2  16   2
M  RAD  4  17   2  22   2  23   2  24   2
M  END
>  <REMARK>  (1) 
 SMILES Cc1nc(Nc2ccc(Nc3ncccn3)cc2)c2cc[nH]c2n1
 SMILES IDX 6 1 7 2 8 3 9 4 17 5 18 6 5 7 4 9 2 10 3 11 24 12 23 13
 SMILES IDX 19 14 22 15 20 16 21 17 1 18 10 20 11 22 12 23 16 24 13 25
 SMILES IDX 15 26 14 27
 H PARENT 5 8 22 19 10 21

>  <TORSDO>  (1) 
F 4

$$$$
