/home/pchatterjee/Documents/git/vs_workflow/DiffDock/diffdock_run/pdbqt_scrubbed/Z1883550081.pdbqt
     RDKit          3D

 24 27  0  0  1  0  0  0  0  0999 V2000
    5.9225   42.7576   49.3819 C   0  0  0  0  0  0  0  0  0  0  0  0
    6.1997   42.1628   48.1397 C   0  0  0  0  0  3  0  0  0  0  0  0
    5.3409   41.2135   47.6343 C   0  0  0  0  0  3  0  0  0  0  0  0
    4.1919   40.8397   48.3478 C   0  0  0  0  0  0  0  0  0  0  0  0
    3.8965   41.4132   49.5717 C   0  0  0  0  0  3  0  0  0  0  0  0
    4.7917   42.3720   50.0567 C   0  0  0  0  0  3  0  0  0  0  0  0
    6.8627   43.7103   49.8270 N   0  0  0  0  0  0  0  0  0  0  0  0
    7.1930   43.9010   51.2581 C   0  0  0  0  0  3  0  0  0  0  0  0
    6.0720   45.6548   52.4260 C   0  0  0  0  0  0  0  0  0  0  0  0
    6.0776   44.4874   51.9297 N   0  0  0  0  0  0  0  0  0  0  0  0
    7.2196   46.5340   52.4078 N   0  0  0  0  0  2  0  0  0  0  0  0
    8.4366   46.0505   51.7938 C   0  0  0  0  0  0  0  0  0  0  0  0
    8.3701   44.7820   51.2837 C   0  0  0  0  0  0  0  0  0  0  0  0
    9.6666   46.5758   51.6296 N   0  0  0  0  0  0  0  0  0  0  0  0
    9.6511   44.5483   50.7857 C   0  0  0  0  0  3  0  0  0  0  0  0
   10.4436   45.6436   50.9984 C   0  0  0  0  0  3  0  0  0  0  0  0
    4.8693   46.1812   53.1019 C   0  0  0  0  0  1  0  0  0  0  0  0
    3.3986   39.8448   47.7341 N   0  0  0  0  0  0  0  0  0  0  0  0
    1.9964   39.9471   47.6143 C   0  0  0  0  0  0  0  0  0  0  0  0
    1.3654   40.9834   48.1902 N   0  0  0  0  0  0  0  0  0  0  0  0
    1.2981   39.0133   46.9188 N   0  0  0  0  0  0  0  0  0  0  0  0
    0.0180   41.1145   48.0862 C   0  0  0  0  0  3  0  0  0  0  0  0
   -0.0521   39.1280   46.8047 C   0  0  0  0  0  3  0  0  0  0  0  0
   -0.7186   40.1844   47.3878 C   0  0  0  0  0  3  0  0  0  0  0  0
  1  6  1  0
  1  7  1  0
  2  1  2  0
  3  4  2  0
  3  2  1  0
  4  5  1  0
  5  6  2  0
  8  7  1  0
  8 10  1  0
  9 10  2  0
  9 17  1  0
 11  9  1  0
 12 13  2  0
 12 11  1  0
 13  8  1  0
 14 12  1  0
 15 13  1  0
 16 14  1  0
 16 15  2  0
 18  4  1  0
 19 18  1  0
 20 19  2  0
 21 19  1  0
 22 20  1  0
 23 21  2  0
 24 22  2  0
 24 23  1  0
M  RAD  8   2   2   3   2   5   2   6   2   8   2  11   2  15   2  16   2
M  RAD  4  17   2  22   2  23   2  24   2
M  END
>  <REMARK>  (1) 
 SMILES Cc1nc(Nc2ccc(Nc3ncccn3)cc2)c2cc[nH]c2n1
 SMILES IDX 6 1 7 2 8 3 9 4 17 5 18 6 5 7 4 9 2 10 3 11 24 12 23 13
 SMILES IDX 19 14 22 15 20 16 21 17 1 18 10 20 11 22 12 23 16 24 13 25
 SMILES IDX 15 26 14 27
 H PARENT 5 8 22 19 10 21

>  <TORSDO>  (1) 
F 4

$$$$
