/home/pchatterjee/Documents/git/vs_workflow/DiffDock/diffdock_run/pdbqt_scrubbed/Z1883550081.pdbqt
     RDKit          3D

 24 27  0  0  1  0  0  0  0  0999 V2000
    4.8137   44.4595   51.6483 C   0  0  0  0  0  0  0  0  0  0  0  0
    4.6958   43.0608   51.7088 C   0  0  0  0  0  3  0  0  0  0  0  0
    3.4467   42.4831   51.6939 C   0  0  0  0  0  3  0  0  0  0  0  0
    2.2940   43.2794   51.6153 C   0  0  0  0  0  0  0  0  0  0  0  0
    2.3849   44.6585   51.5522 C   0  0  0  0  0  3  0  0  0  0  0  0
    3.6689   45.2122   51.5722 C   0  0  0  0  0  3  0  0  0  0  0  0
    6.1305   44.9640   51.6813 N   0  0  0  0  0  0  0  0  0  0  0  0
    6.9194   45.2232   50.4549 C   0  0  0  0  0  3  0  0  0  0  0  0
    8.0050   43.3631   49.4265 C   0  0  0  0  0  0  0  0  0  0  0  0
    6.9574   44.0410   49.6551 N   0  0  0  0  0  0  0  0  0  0  0  0
    9.3138   43.7276   49.9209 N   0  0  0  0  0  2  0  0  0  0  0  0
    9.4298   44.9317   50.7138 C   0  0  0  0  0  0  0  0  0  0  0  0
    8.2602   45.6135   50.9159 C   0  0  0  0  0  0  0  0  0  0  0  0
   10.4677   45.5655   51.2940 N   0  0  0  0  0  0  0  0  0  0  0  0
    8.6399   46.7245   51.6675 C   0  0  0  0  0  3  0  0  0  0  0  0
    9.9888   46.6961   51.8971 C   0  0  0  0  0  3  0  0  0  0  0  0
    7.9497   42.1490   48.5877 C   0  0  0  0  0  1  0  0  0  0  0  0
    1.0712   42.5720   51.6243 N   0  0  0  0  0  0  0  0  0  0  0  0
    0.6364   41.7771   50.5426 C   0  0  0  0  0  0  0  0  0  0  0  0
    1.4882   41.5214   49.5360 N   0  0  0  0  0  0  0  0  0  0  0  0
   -0.6238   41.2724   50.5260 N   0  0  0  0  0  0  0  0  0  0  0  0
    1.1028   40.7533   48.4849 C   0  0  0  0  0  3  0  0  0  0  0  0
   -1.0275   40.5015   49.4810 C   0  0  0  0  0  3  0  0  0  0  0  0
   -0.1685   40.2268   48.4385 C   0  0  0  0  0  3  0  0  0  0  0  0
  1  6  1  0
  1  7  1  0
  2  1  2  0
  3  4  2  0
  3  2  1  0
  4  5  1  0
  5  6  2  0
  8  7  1  0
  8 10  1  0
  9 10  2  0
  9 17  1  0
 11  9  1  0
 12 13  2  0
 12 11  1  0
 13  8  1  0
 14 12  1  0
 15 13  1  0
 16 14  1  0
 16 15  2  0
 18  4  1  0
 19 18  1  0
 20 19  2  0
 21 19  1  0
 22 20  1  0
 23 21  2  0
 24 22  2  0
 24 23  1  0
M  RAD  8   2   2   3   2   5   2   6   2   8   2  11   2  15   2  16   2
M  RAD  4  17   2  22   2  23   2  24   2
M  END
>  <REMARK>  (1) 
 SMILES Cc1nc(Nc2ccc(Nc3ncccn3)cc2)c2cc[nH]c2n1
 SMILES IDX 6 1 7 2 8 3 9 4 17 5 18 6 5 7 4 9 2 10 3 11 24 12 23 13
 SMILES IDX 19 14 22 15 20 16 21 17 1 18 10 20 11 22 12 23 16 24 13 25
 SMILES IDX 15 26 14 27
 H PARENT 5 8 22 19 10 21

>  <TORSDO>  (1) 
F 4

$$$$
