/home/pchatterjee/Documents/git/vs_workflow/DiffDock/diffdock_run/pdbqt_scrubbed/Z1883550081.pdbqt
     RDKit          3D

 24 27  0  0  1  0  0  0  0  0999 V2000
    4.6423   44.6797   52.1546 C   0  0  0  0  0  0  0  0  0  0  0  0
    4.4069   43.5065   52.8909 C   0  0  0  0  0  3  0  0  0  0  0  0
    3.1197   43.0405   53.0332 C   0  0  0  0  0  3  0  0  0  0  0  0
    2.0447   43.7255   52.4464 C   0  0  0  0  0  0  0  0  0  0  0  0
    2.2519   44.8813   51.7147 C   0  0  0  0  0  3  0  0  0  0  0  0
    3.5715   45.3279   51.5924 C   0  0  0  0  0  3  0  0  0  0  0  0
    5.9895   45.0893   52.0715 N   0  0  0  0  0  0  0  0  0  0  0  0
    6.6462   45.4254   50.7872 C   0  0  0  0  0  3  0  0  0  0  0  0
    7.4421   43.6175   49.4477 C   0  0  0  0  0  0  0  0  0  0  0  0
    6.4897   44.3387   49.8743 N   0  0  0  0  0  0  0  0  0  0  0  0
    8.8263   43.8317   49.8062 N   0  0  0  0  0  2  0  0  0  0  0  0
    9.1362   44.9299   50.6949 C   0  0  0  0  0  0  0  0  0  0  0  0
    8.0602   45.6665   51.1113 C   0  0  0  0  0  0  0  0  0  0  0  0
   10.2851   45.4208   51.1996 N   0  0  0  0  0  0  0  0  0  0  0  0
    8.6183   46.6583   51.9165 C   0  0  0  0  0  3  0  0  0  0  0  0
    9.9777   46.5092   51.9691 C   0  0  0  0  0  3  0  0  0  0  0  0
    7.1860   42.5102   48.5049 C   0  0  0  0  0  1  0  0  0  0  0  0
    0.7714   43.1587   52.6767 N   0  0  0  0  0  0  0  0  0  0  0  0
   -0.1962   43.7583   53.5105 C   0  0  0  0  0  0  0  0  0  0  0  0
    0.0148   45.0047   53.9645 N   0  0  0  0  0  0  0  0  0  0  0  0
   -1.3277   43.0851   53.8413 N   0  0  0  0  0  0  0  0  0  0  0  0
   -0.9007   45.6123   54.7620 C   0  0  0  0  0  3  0  0  0  0  0  0
   -2.2556   43.6776   54.6395 C   0  0  0  0  0  3  0  0  0  0  0  0
   -2.0584   44.9562   55.1155 C   0  0  0  0  0  3  0  0  0  0  0  0
  1  6  1  0
  1  7  1  0
  2  1  2  0
  3  4  2  0
  3  2  1  0
  4  5  1  0
  5  6  2  0
  8  7  1  0
  8 10  1  0
  9 10  2  0
  9 17  1  0
 11  9  1  0
 12 13  2  0
 12 11  1  0
 13  8  1  0
 14 12  1  0
 15 13  1  0
 16 14  1  0
 16 15  2  0
 18  4  1  0
 19 18  1  0
 20 19  2  0
 21 19  1  0
 22 20  1  0
 23 21  2  0
 24 22  2  0
 24 23  1  0
M  RAD  8   2   2   3   2   5   2   6   2   8   2  11   2  15   2  16   2
M  RAD  4  17   2  22   2  23   2  24   2
M  END
>  <REMARK>  (1) 
 SMILES Cc1nc(Nc2ccc(Nc3ncccn3)cc2)c2cc[nH]c2n1
 SMILES IDX 6 1 7 2 8 3 9 4 17 5 18 6 5 7 4 9 2 10 3 11 24 12 23 13
 SMILES IDX 19 14 22 15 20 16 21 17 1 18 10 20 11 22 12 23 16 24 13 25
 SMILES IDX 15 26 14 27
 H PARENT 5 8 22 19 10 21

>  <TORSDO>  (1) 
F 4

$$$$
