/home/pchatterjee/Documents/git/vs_workflow/DiffDock/diffdock_run/pdbqt_scrubbed/Z1883550081.pdbqt
     RDKit          3D

 24 27  0  0  1  0  0  0  0  0999 V2000
    6.0830   43.9358   50.4982 C   0  0  0  0  0  0  0  0  0  0  0  0
    5.8611   44.8536   51.5385 C   0  0  0  0  0  3  0  0  0  0  0  0
    6.8997   45.6382   51.9854 C   0  0  0  0  0  3  0  0  0  0  0  0
    8.1741   45.5304   51.4080 C   0  0  0  0  0  0  0  0  0  0  0  0
    8.4164   44.6358   50.3808 C   0  0  0  0  0  3  0  0  0  0  0  0
    7.3396   43.8525   49.9533 C   0  0  0  0  0  3  0  0  0  0  0  0
    4.9656   43.1657   50.1135 N   0  0  0  0  0  0  0  0  0  0  0  0
    5.0653   41.7306   49.7613 C   0  0  0  0  0  3  0  0  0  0  0  0
    5.2141   41.1695   47.4463 C   0  0  0  0  0  0  0  0  0  0  0  0
    5.7494   41.5930   48.5155 N   0  0  0  0  0  0  0  0  0  0  0  0
    3.8387   40.7316   47.3628 N   0  0  0  0  0  2  0  0  0  0  0  0
    3.0368   40.7770   48.5656 C   0  0  0  0  0  0  0  0  0  0  0  0
    3.6812   41.2407   49.6807 C   0  0  0  0  0  0  0  0  0  0  0  0
    1.7658   40.4301   48.8484 N   0  0  0  0  0  0  0  0  0  0  0  0
    2.7199   41.1597   50.6871 C   0  0  0  0  0  3  0  0  0  0  0  0
    1.5502   40.6630   50.1791 C   0  0  0  0  0  3  0  0  0  0  0  0
    5.9997   41.0627   46.2004 C   0  0  0  0  0  1  0  0  0  0  0  0
    9.1605   46.3759   51.9628 N   0  0  0  0  0  0  0  0  0  0  0  0
    8.9504   47.1351   53.1335 C   0  0  0  0  0  0  0  0  0  0  0  0
    9.9929   47.7654   53.6992 N   0  0  0  0  0  0  0  0  0  0  0  0
    7.7088   47.2318   53.6741 N   0  0  0  0  0  0  0  0  0  0  0  0
    9.8221   48.5102   54.8214 C   0  0  0  0  0  3  0  0  0  0  0  0
    7.5190   47.9729   54.7983 C   0  0  0  0  0  3  0  0  0  0  0  0
    8.5755   48.6280   55.3939 C   0  0  0  0  0  3  0  0  0  0  0  0
  1  6  1  0
  1  7  1  0
  2  1  2  0
  3  4  2  0
  3  2  1  0
  4  5  1  0
  5  6  2  0
  8  7  1  0
  8 10  1  0
  9 10  2  0
  9 17  1  0
 11  9  1  0
 12 13  2  0
 12 11  1  0
 13  8  1  0
 14 12  1  0
 15 13  1  0
 16 14  1  0
 16 15  2  0
 18  4  1  0
 19 18  1  0
 20 19  2  0
 21 19  1  0
 22 20  1  0
 23 21  2  0
 24 22  2  0
 24 23  1  0
M  RAD  8   2   2   3   2   5   2   6   2   8   2  11   2  15   2  16   2
M  RAD  4  17   2  22   2  23   2  24   2
M  END
>  <REMARK>  (1) 
 SMILES Cc1nc(Nc2ccc(Nc3ncccn3)cc2)c2cc[nH]c2n1
 SMILES IDX 6 1 7 2 8 3 9 4 17 5 18 6 5 7 4 9 2 10 3 11 24 12 23 13
 SMILES IDX 19 14 22 15 20 16 21 17 1 18 10 20 11 22 12 23 16 24 13 25
 SMILES IDX 15 26 14 27
 H PARENT 5 8 22 19 10 21

>  <TORSDO>  (1) 
F 4

$$$$
