/home/pchatterjee/Documents/git/vs_workflow/DiffDock/diffdock_run/pdbqt_scrubbed/Z1883550081.pdbqt
     RDKit          3D

 24 27  0  0  1  0  0  0  0  0999 V2000
    5.5732   45.6417   52.5915 C   0  0  0  0  0  0  0  0  0  0  0  0
    6.3716   45.7507   53.7424 C   0  0  0  0  0  3  0  0  0  0  0  0
    6.1079   46.7411   54.6609 C   0  0  0  0  0  3  0  0  0  0  0  0
    5.0477   47.6377   54.4577 C   0  0  0  0  0  0  0  0  0  0  0  0
    4.2462   47.5487   53.3335 C   0  0  0  0  0  3  0  0  0  0  0  0
    4.5438   46.5326   52.4199 C   0  0  0  0  0  3  0  0  0  0  0  0
    5.9235   44.6061   51.7002 N   0  0  0  0  0  0  0  0  0  0  0  0
    6.5811   44.8592   50.3975 C   0  0  0  0  0  3  0  0  0  0  0  0
    7.2331   42.9633   49.1027 C   0  0  0  0  0  0  0  0  0  0  0  0
    6.3379   43.7592   49.5202 N   0  0  0  0  0  0  0  0  0  0  0  0
    8.6340   43.0941   49.4356 N   0  0  0  0  0  2  0  0  0  0  0  0
    9.0305   44.1946   50.2863 C   0  0  0  0  0  0  0  0  0  0  0  0
    8.0129   45.0139   50.6948 C   0  0  0  0  0  0  0  0  0  0  0  0
   10.2175   44.6217   50.7600 N   0  0  0  0  0  0  0  0  0  0  0  0
    8.6487   45.9891   51.4617 C   0  0  0  0  0  3  0  0  0  0  0  0
    9.9958   45.7505   51.5003 C   0  0  0  0  0  3  0  0  0  0  0  0
    6.8887   41.8485   48.1976 C   0  0  0  0  0  1  0  0  0  0  0  0
    4.8877   48.6190   55.4613 N   0  0  0  0  0  0  0  0  0  0  0  0
    5.8565   49.6098   55.7273 C   0  0  0  0  0  0  0  0  0  0  0  0
    7.0980   49.4577   55.2378 N   0  0  0  0  0  0  0  0  0  0  0  0
    5.5329   50.7049   56.4615 N   0  0  0  0  0  0  0  0  0  0  0  0
    8.0504   50.3972   55.4693 C   0  0  0  0  0  3  0  0  0  0  0  0
    6.4741   51.6560   56.7040 C   0  0  0  0  0  3  0  0  0  0  0  0
    7.7539   51.5191   56.2103 C   0  0  0  0  0  3  0  0  0  0  0  0
  1  6  1  0
  1  7  1  0
  2  1  2  0
  3  4  2  0
  3  2  1  0
  4  5  1  0
  5  6  2  0
  8  7  1  0
  8 10  1  0
  9 10  2  0
  9 17  1  0
 11  9  1  0
 12 13  2  0
 12 11  1  0
 13  8  1  0
 14 12  1  0
 15 13  1  0
 16 14  1  0
 16 15  2  0
 18  4  1  0
 19 18  1  0
 20 19  2  0
 21 19  1  0
 22 20  1  0
 23 21  2  0
 24 22  2  0
 24 23  1  0
M  RAD  8   2   2   3   2   5   2   6   2   8   2  11   2  15   2  16   2
M  RAD  4  17   2  22   2  23   2  24   2
M  END
>  <REMARK>  (1) 
 SMILES Cc1nc(Nc2ccc(Nc3ncccn3)cc2)c2cc[nH]c2n1
 SMILES IDX 6 1 7 2 8 3 9 4 17 5 18 6 5 7 4 9 2 10 3 11 24 12 23 13
 SMILES IDX 19 14 22 15 20 16 21 17 1 18 10 20 11 22 12 23 16 24 13 25
 SMILES IDX 15 26 14 27
 H PARENT 5 8 22 19 10 21

>  <TORSDO>  (1) 
F 4

$$$$
