/home/pchatterjee/Documents/git/vs_workflow/DiffDock/diffdock_run/pdbqt_scrubbed/Z1883550081.pdbqt
     RDKit          3D

 24 27  0  0  1  0  0  0  0  0999 V2000
    4.0743   41.7031   48.9482 C   0  0  0  0  0  0  0  0  0  0  0  0
    4.4874   42.6004   49.9472 C   0  0  0  0  0  3  0  0  0  0  0  0
    5.7893   43.0465   49.9636 C   0  0  0  0  0  3  0  0  0  0  0  0
    6.7029   42.6151   48.9897 C   0  0  0  0  0  0  0  0  0  0  0  0
    6.3188   41.7339   47.9947 C   0  0  0  0  0  3  0  0  0  0  0  0
    4.9898   41.2988   48.0095 C   0  0  0  0  0  3  0  0  0  0  0  0
    2.7273   41.2901   49.0164 N   0  0  0  0  0  0  0  0  0  0  0  0
    2.2817   39.9404   48.6000 C   0  0  0  0  0  3  0  0  0  0  0  0
    2.0525   39.5261   46.2607 C   0  0  0  0  0  0  0  0  0  0  0  0
    2.7795   39.6577   47.2919 N   0  0  0  0  0  0  0  0  0  0  0  0
    0.6093   39.6085   46.2874 N   0  0  0  0  0  2  0  0  0  0  0  0
   -0.0344   39.8499   47.5599 C   0  0  0  0  0  0  0  0  0  0  0  0
    0.8119   39.9772   48.6283 C   0  0  0  0  0  0  0  0  0  0  0  0
   -1.3214   39.9548   47.9450 N   0  0  0  0  0  0  0  0  0  0  0  0
   -0.0395   40.1705   49.7151 C   0  0  0  0  0  3  0  0  0  0  0  0
   -1.3428   40.1552   49.2980 C   0  0  0  0  0  3  0  0  0  0  0  0
    2.6558   39.2363   44.9445 C   0  0  0  0  0  1  0  0  0  0  0  0
    8.0119   43.1294   49.1217 N   0  0  0  0  0  0  0  0  0  0  0  0
    8.3583   44.1115   50.0738 C   0  0  0  0  0  0  0  0  0  0  0  0
    7.4096   44.5858   50.8979 N   0  0  0  0  0  0  0  0  0  0  0  0
    9.6357   44.5633   50.1587 N   0  0  0  0  0  0  0  0  0  0  0  0
    7.7127   45.5252   51.8301 C   0  0  0  0  0  3  0  0  0  0  0  0
    9.9576   45.5046   51.0859 C   0  0  0  0  0  3  0  0  0  0  0  0
    8.9988   46.0037   51.9414 C   0  0  0  0  0  3  0  0  0  0  0  0
  1  6  1  0
  1  7  1  0
  2  1  2  0
  3  4  2  0
  3  2  1  0
  4  5  1  0
  5  6  2  0
  8  7  1  0
  8 10  1  0
  9 10  2  0
  9 17  1  0
 11  9  1  0
 12 13  2  0
 12 11  1  0
 13  8  1  0
 14 12  1  0
 15 13  1  0
 16 14  1  0
 16 15  2  0
 18  4  1  0
 19 18  1  0
 20 19  2  0
 21 19  1  0
 22 20  1  0
 23 21  2  0
 24 22  2  0
 24 23  1  0
M  RAD  8   2   2   3   2   5   2   6   2   8   2  11   2  15   2  16   2
M  RAD  4  17   2  22   2  23   2  24   2
M  END
>  <REMARK>  (1) 
 SMILES Cc1nc(Nc2ccc(Nc3ncccn3)cc2)c2cc[nH]c2n1
 SMILES IDX 6 1 7 2 8 3 9 4 17 5 18 6 5 7 4 9 2 10 3 11 24 12 23 13
 SMILES IDX 19 14 22 15 20 16 21 17 1 18 10 20 11 22 12 23 16 24 13 25
 SMILES IDX 15 26 14 27
 H PARENT 5 8 22 19 10 21

>  <TORSDO>  (1) 
F 4

$$$$
