/home/pchatterjee/Documents/git/vs_workflow/DiffDock/diffdock_run/pdbqt_scrubbed/Z1883550081.pdbqt
     RDKit          3D

 24 27  0  0  1  0  0  0  0  0999 V2000
    4.7377   44.4203   51.4717 C   0  0  0  0  0  0  0  0  0  0  0  0
    4.7608   43.0158   51.4974 C   0  0  0  0  0  3  0  0  0  0  0  0
    3.5782   42.3154   51.4265 C   0  0  0  0  0  3  0  0  0  0  0  0
    2.3535   42.9930   51.3251 C   0  0  0  0  0  0  0  0  0  0  0  0
    2.3056   44.3753   51.2953 C   0  0  0  0  0  3  0  0  0  0  0  0
    3.5253   45.0552   51.3720 C   0  0  0  0  0  3  0  0  0  0  0  0
    5.9945   45.0542   51.5614 N   0  0  0  0  0  0  0  0  0  0  0  0
    6.8291   45.3490   50.3740 C   0  0  0  0  0  3  0  0  0  0  0  0
    7.9627   43.5210   49.3397 C   0  0  0  0  0  0  0  0  0  0  0  0
    6.9038   44.1887   49.5452 N   0  0  0  0  0  0  0  0  0  0  0  0
    9.2496   43.8772   49.8941 N   0  0  0  0  0  2  0  0  0  0  0  0
    9.3290   45.0602   50.7225 C   0  0  0  0  0  0  0  0  0  0  0  0
    8.1491   45.7319   50.8970 C   0  0  0  0  0  0  0  0  0  0  0  0
   10.3405   45.6823   51.3593 N   0  0  0  0  0  0  0  0  0  0  0  0
    8.4941   46.8239   51.6919 C   0  0  0  0  0  3  0  0  0  0  0  0
    9.8331   46.7946   51.9730 C   0  0  0  0  0  3  0  0  0  0  0  0
    7.9458   42.3296   48.4674 C   0  0  0  0  0  1  0  0  0  0  0  0
    1.2095   42.1657   51.2760 N   0  0  0  0  0  0  0  0  0  0  0  0
    0.5860   41.7890   50.0676 C   0  0  0  0  0  0  0  0  0  0  0  0
    1.1154   42.1999   48.9036 N   0  0  0  0  0  0  0  0  0  0  0  0
   -0.5294   41.0151   50.0841 N   0  0  0  0  0  0  0  0  0  0  0  0
    0.5437   41.8477   47.7236 C   0  0  0  0  0  3  0  0  0  0  0  0
   -1.1159   40.6530   48.9119 C   0  0  0  0  0  3  0  0  0  0  0  0
   -0.5880   41.0637   47.7066 C   0  0  0  0  0  3  0  0  0  0  0  0
  1  6  1  0
  1  7  1  0
  2  1  2  0
  3  4  2  0
  3  2  1  0
  4  5  1  0
  5  6  2  0
  8  7  1  0
  8 10  1  0
  9 10  2  0
  9 17  1  0
 11  9  1  0
 12 13  2  0
 12 11  1  0
 13  8  1  0
 14 12  1  0
 15 13  1  0
 16 14  1  0
 16 15  2  0
 18  4  1  0
 19 18  1  0
 20 19  2  0
 21 19  1  0
 22 20  1  0
 23 21  2  0
 24 22  2  0
 24 23  1  0
M  RAD  8   2   2   3   2   5   2   6   2   8   2  11   2  15   2  16   2
M  RAD  4  17   2  22   2  23   2  24   2
M  END
>  <REMARK>  (1) 
 SMILES Cc1nc(Nc2ccc(Nc3ncccn3)cc2)c2cc[nH]c2n1
 SMILES IDX 6 1 7 2 8 3 9 4 17 5 18 6 5 7 4 9 2 10 3 11 24 12 23 13
 SMILES IDX 19 14 22 15 20 16 21 17 1 18 10 20 11 22 12 23 16 24 13 25
 SMILES IDX 15 26 14 27
 H PARENT 5 8 22 19 10 21

>  <TORSDO>  (1) 
F 4

$$$$
