/home/pchatterjee/Documents/git/vs_workflow/DiffDock/diffdock_run/pdbqt_scrubbed/Z1883550081.pdbqt
     RDKit          3D

 24 27  0  0  1  0  0  0  0  0999 V2000
    4.8194   44.0247   51.4640 C   0  0  0  0  0  0  0  0  0  0  0  0
    3.5876   44.6527   51.7136 C   0  0  0  0  0  3  0  0  0  0  0  0
    2.4256   43.9179   51.6519 C   0  0  0  0  0  3  0  0  0  0  0  0
    2.4632   42.5490   51.3458 C   0  0  0  0  0  0  0  0  0  0  0  0
    3.6641   41.9080   51.0987 C   0  0  0  0  0  3  0  0  0  0  0  0
    4.8249   42.6850   51.1672 C   0  0  0  0  0  3  0  0  0  0  0  0
    5.9559   44.8569   51.5370 N   0  0  0  0  0  0  0  0  0  0  0  0
    6.7874   45.1819   50.3553 C   0  0  0  0  0  3  0  0  0  0  0  0
    7.8566   43.3715   49.2258 C   0  0  0  0  0  0  0  0  0  0  0  0
    6.8199   44.0594   49.4733 N   0  0  0  0  0  0  0  0  0  0  0  0
    9.1587   43.6642   49.7819 N   0  0  0  0  0  2  0  0  0  0  0  0
    9.2808   44.8047   50.6628 C   0  0  0  0  0  0  0  0  0  0  0  0
    8.1231   45.5017   50.8809 C   0  0  0  0  0  0  0  0  0  0  0  0
   10.3163   45.3672   51.3164 N   0  0  0  0  0  0  0  0  0  0  0  0
    8.5077   46.5453   51.7213 C   0  0  0  0  0  3  0  0  0  0  0  0
    9.8479   46.4641   51.9861 C   0  0  0  0  0  3  0  0  0  0  0  0
    7.7962   42.2227   48.3000 C   0  0  0  0  0  1  0  0  0  0  0  0
    1.2054   41.9079   51.2961 N   0  0  0  0  0  0  0  0  0  0  0  0
    0.5034   41.6876   50.0921 C   0  0  0  0  0  0  0  0  0  0  0  0
    1.0232   42.1424   48.9401 N   0  0  0  0  0  0  0  0  0  0  0  0
   -0.6774   41.0176   50.1000 N   0  0  0  0  0  0  0  0  0  0  0  0
    0.3761   41.9394   47.7639 C   0  0  0  0  0  3  0  0  0  0  0  0
   -1.3399   40.8055   48.9315 C   0  0  0  0  0  3  0  0  0  0  0  0
   -0.8232   41.2637   47.7385 C   0  0  0  0  0  3  0  0  0  0  0  0
  1  6  1  0
  1  7  1  0
  2  1  2  0
  3  4  2  0
  3  2  1  0
  4  5  1  0
  5  6  2  0
  8  7  1  0
  8 10  1  0
  9 10  2  0
  9 17  1  0
 11  9  1  0
 12 13  2  0
 12 11  1  0
 13  8  1  0
 14 12  1  0
 15 13  1  0
 16 14  1  0
 16 15  2  0
 18  4  1  0
 19 18  1  0
 20 19  2  0
 21 19  1  0
 22 20  1  0
 23 21  2  0
 24 22  2  0
 24 23  1  0
M  RAD  8   2   2   3   2   5   2   6   2   8   2  11   2  15   2  16   2
M  RAD  4  17   2  22   2  23   2  24   2
M  END
>  <REMARK>  (1) 
 SMILES Cc1nc(Nc2ccc(Nc3ncccn3)cc2)c2cc[nH]c2n1
 SMILES IDX 6 1 7 2 8 3 9 4 17 5 18 6 5 7 4 9 2 10 3 11 24 12 23 13
 SMILES IDX 19 14 22 15 20 16 21 17 1 18 10 20 11 22 12 23 16 24 13 25
 SMILES IDX 15 26 14 27
 H PARENT 5 8 22 19 10 21

>  <TORSDO>  (1) 
F 4

$$$$
