/home/pchatterjee/Documents/git/vs_workflow/DiffDock/diffdock_run/pdbqt_scrubbed/Z4464308327.pdbqt
     RDKit          3D

 28 31  0  0  1  0  0  0  0  0999 V2000
    6.8128   43.1326   49.1585 N   0  0  0  0  0  0  0  0  0  0  0  0
    6.6465   41.6790   49.0217 C   0  0  0  0  0  2  0  0  0  0  0  0
    5.2389   41.9498   48.4773 C   0  0  0  0  0  3  0  0  0  0  0  0
    5.6889   43.3733   48.2564 C   0  0  0  0  0  2  0  0  0  0  0  0
    7.7485   43.8934   49.9118 C   0  0  0  0  0  0  0  0  0  0  0  0
    8.2614   45.3553   51.6527 C   0  0  0  0  0  0  0  0  0  0  0  0
    9.5977   45.3176   51.2998 C   0  0  0  0  0  3  0  0  0  0  0  0
    7.3337   44.6458   50.9627 N   0  0  0  0  0  0  0  0  0  0  0  0
   10.0043   44.5495   50.2309 C   0  0  0  0  0  3  0  0  0  0  0  0
    9.0563   43.8593   49.5701 N   0  0  0  0  0  0  0  0  0  0  0  0
    7.8046   46.1368   52.7501 N   0  0  0  0  0  0  0  0  0  0  0  0
    8.3963   47.9738   54.1559 C   0  0  1  0  0  0  0  0  0  0  0  0
    6.9493   48.1864   54.4716 C   0  0  0  0  0  2  0  0  0  0  0  0
    8.6568   46.5250   53.8578 C   0  0  0  0  0  2  0  0  0  0  0  0
    6.0692   47.0061   54.1303 C   0  0  0  0  0  2  0  0  0  0  0  0
    6.4116   46.5487   52.7277 C   0  0  0  0  0  2  0  0  0  0  0  0
    8.7600   48.8001   52.9290 C   0  0  0  0  0  1  0  0  0  0  0  0
    9.2606   48.4762   55.2953 C   0  0  0  0  0  1  0  0  0  0  0  0
    4.1122   41.7341   49.8603 S   0  0  2  0  0  0  0  0  0  0  0  0
    4.2437   42.8457   50.8314 O   0  0  0  0  0  0  0  0  0  0  0  0
    4.3493   40.4366   50.5452 O   0  0  0  0  0  0  0  0  0  0  0  0
    2.5244   41.7187   49.1644 N   0  0  0  0  0  0  0  0  0  0  0  0
    2.2806   41.2152   47.8546 C   0  0  0  0  0  0  0  0  0  0  0  0
    2.2699   42.0228   46.7335 C   0  0  0  0  0  3  0  0  0  0  0  0
    2.0500   39.8382   47.7710 C   0  0  0  0  0  3  0  0  0  0  0  0
    2.0250   41.4393   45.5181 C   0  0  0  0  0  3  0  0  0  0  0  0
    1.8086   39.2855   46.5436 C   0  0  0  0  0  3  0  0  0  0  0  0
    1.7917   40.0664   45.4067 C   0  0  0  0  0  3  0  0  0  0  0  0
  1  4  1  0
  1  2  1  0
  2  3  1  0
  3 19  1  0
  4  3  1  0
  5  1  1  0
  6  8  1  0
  7  6  2  0
  7  9  1  0
  8  5  2  0
  9 10  2  0
 10  5  1  0
 11  6  1  0
 11 14  1  0
 12 18  1  1
 12 14  1  0
 13 15  1  0
 13 12  1  0
 15 16  1  0
 16 11  1  0
 17 12  1  0
 19 22  1  6
 19 20  2  0
 21 19  2  0
 22 23  1  0
 23 24  2  0
 24 26  1  0
 25 23  1  0
 25 27  2  0
 27 28  1  0
 28 26  2  0
M  RAD  8   2   3   3   2   4   3   7   2   9   2  13   3  14   3  15   3
M  RAD  8  16   3  17   2  18   2  24   2  25   2  26   2  27   2  28   2
M  END
>  <REMARK>  (1) 
 SMILES CC1(C)CCCN(c2ccnc(N3CC(S(=O)(=O)Nc4ccccc4)C3)n2)C1
 SMILES IDX 13 1 14 2 15 3 26 4 12 5 8 6 9 7 27 8 10 9 11 10 7 11 2 12
 SMILES IDX 4 13 28 14 5 15 6 16 1 17 3 18 16 19 17 20 18 21 19 22 20 24
 SMILES IDX 21 25 25 26 22 27 24 28 23 29
 H PARENT 19 23

>  <TORSDO>  (1) 
F 5

$$$$
