/home/pchatterjee/Documents/git/vs_workflow/DiffDock/diffdock_run/pdbqt_scrubbed/Z4464308327.pdbqt
     RDKit          3D

 28 31  0  0  1  0  0  0  0  0999 V2000
    6.7860   43.0586   48.9309 N   0  0  0  0  0  0  0  0  0  0  0  0
    6.8424   41.6114   48.6829 C   0  0  0  0  0  2  0  0  0  0  0  0
    5.4323   41.7167   48.0901 C   0  0  0  0  0  3  0  0  0  0  0  0
    5.6744   43.2032   47.9937 C   0  0  0  0  0  2  0  0  0  0  0  0
    7.5689   43.8861   49.7819 C   0  0  0  0  0  0  0  0  0  0  0  0
    7.7573   45.5516   51.4011 C   0  0  0  0  0  0  0  0  0  0  0  0
    9.1343   45.4295   51.3762 C   0  0  0  0  0  3  0  0  0  0  0  0
    6.9709   44.7830   50.6067 N   0  0  0  0  0  0  0  0  0  0  0  0
    9.7276   44.5149   50.5339 C   0  0  0  0  0  3  0  0  0  0  0  0
    8.9159   43.7700   49.7607 N   0  0  0  0  0  0  0  0  0  0  0  0
    7.1096   46.4847   52.2575 N   0  0  0  0  0  0  0  0  0  0  0  0
    5.1936   46.7770   53.6519 C   0  0  1  0  0  0  0  0  0  0  0  0
    5.9201   47.8422   54.4111 C   0  0  0  0  0  2  0  0  0  0  0  0
    5.6797   46.7265   52.2317 C   0  0  0  0  0  2  0  0  0  0  0  0
    7.1341   48.3850   53.6930 C   0  0  0  0  0  2  0  0  0  0  0  0
    7.9517   47.2132   53.1908 C   0  0  0  0  0  2  0  0  0  0  0  0
    5.4633   45.4305   54.3108 C   0  0  0  0  0  1  0  0  0  0  0  0
    3.6974   47.0094   53.7247 C   0  0  0  0  0  1  0  0  0  0  0  0
    4.2976   41.2333   49.3968 S   0  0  2  0  0  0  0  0  0  0  0  0
    3.8107   42.4173   50.1431 O   0  0  0  0  0  0  0  0  0  0  0  0
    4.9398   40.2759   50.3348 O   0  0  0  0  0  0  0  0  0  0  0  0
    2.9830   40.4363   48.5954 N   0  0  0  0  0  0  0  0  0  0  0  0
    2.2407   41.0665   47.5559 C   0  0  0  0  0  0  0  0  0  0  0  0
    1.1786   41.9148   47.8046 C   0  0  0  0  0  3  0  0  0  0  0  0
    2.6567   40.7715   46.2536 C   0  0  0  0  0  3  0  0  0  0  0  0
    0.5301   42.4706   46.7331 C   0  0  0  0  0  3  0  0  0  0  0  0
    1.9890   41.3420   45.2052 C   0  0  0  0  0  3  0  0  0  0  0  0
    0.9252   42.1926   45.4223 C   0  0  0  0  0  3  0  0  0  0  0  0
  1  4  1  0
  1  2  1  0
  2  3  1  0
  3 19  1  0
  4  3  1  0
  5  1  1  0
  6  8  1  0
  7  6  2  0
  7  9  1  0
  8  5  2  0
  9 10  2  0
 10  5  1  0
 11  6  1  0
 11 14  1  0
 12 18  1  6
 12 14  1  0
 13 15  1  0
 13 12  1  0
 15 16  1  0
 16 11  1  0
 17 12  1  0
 19 22  1  6
 19 20  2  0
 21 19  2  0
 22 23  1  0
 23 24  2  0
 24 26  1  0
 25 23  1  0
 25 27  2  0
 27 28  1  0
 28 26  2  0
M  RAD  8   2   3   3   2   4   3   7   2   9   2  13   3  14   3  15   3
M  RAD  8  16   3  17   2  18   2  24   2  25   2  26   2  27   2  28   2
M  END
>  <REMARK>  (1) 
 SMILES CC1(C)CCCN(c2ccnc(N3CC(S(=O)(=O)Nc4ccccc4)C3)n2)C1
 SMILES IDX 13 1 14 2 15 3 26 4 12 5 8 6 9 7 27 8 10 9 11 10 7 11 2 12
 SMILES IDX 4 13 28 14 5 15 6 16 1 17 3 18 16 19 17 20 18 21 19 22 20 24
 SMILES IDX 21 25 25 26 22 27 24 28 23 29
 H PARENT 19 23

>  <TORSDO>  (1) 
F 5

$$$$
