/home/pchatterjee/Documents/git/vs_workflow/DiffDock/diffdock_run/pdbqt_scrubbed/Z4464308327.pdbqt
     RDKit          3D

 28 31  0  0  1  0  0  0  0  0999 V2000
    6.8245   42.9427   49.0188 N   0  0  0  0  0  0  0  0  0  0  0  0
    6.8424   41.4934   48.7769 C   0  0  0  0  0  2  0  0  0  0  0  0
    5.4492   41.6389   48.1533 C   0  0  0  0  0  3  0  0  0  0  0  0
    5.7383   43.1170   48.0572 C   0  0  0  0  0  2  0  0  0  0  0  0
    7.6136   43.7496   49.8837 C   0  0  0  0  0  0  0  0  0  0  0  0
    7.8191   45.4276   51.4878 C   0  0  0  0  0  0  0  0  0  0  0  0
    9.1901   45.2505   51.5074 C   0  0  0  0  0  3  0  0  0  0  0  0
    7.0271   44.6805   50.6786 N   0  0  0  0  0  0  0  0  0  0  0  0
    9.7717   44.3018   50.6952 C   0  0  0  0  0  3  0  0  0  0  0  0
    8.9548   43.5796   49.9061 N   0  0  0  0  0  0  0  0  0  0  0  0
    7.1834   46.3971   52.3122 N   0  0  0  0  0  0  0  0  0  0  0  0
    5.2943   46.7461   53.7301 C   0  0  1  0  0  0  0  0  0  0  0  0
    6.0299   47.8495   54.4231 C   0  0  0  0  0  2  0  0  0  0  0  0
    5.7519   46.6306   52.3042 C   0  0  0  0  0  2  0  0  0  0  0  0
    7.2260   48.3634   53.6555 C   0  0  0  0  0  2  0  0  0  0  0  0
    8.0399   47.1730   53.1926 C   0  0  0  0  0  2  0  0  0  0  0  0
    5.5850   45.4336   54.4463 C   0  0  0  0  0  1  0  0  0  0  0  0
    3.7986   46.9745   53.8224 C   0  0  0  0  0  1  0  0  0  0  0  0
    4.2725   41.1952   49.4368 S   0  0  2  0  0  0  0  0  0  0  0  0
    3.7854   42.3989   50.1506 O   0  0  0  0  0  0  0  0  0  0  0  0
    4.8739   40.2434   50.4069 O   0  0  0  0  0  0  0  0  0  0  0  0
    2.9668   40.4061   48.6133 N   0  0  0  0  0  0  0  0  0  0  0  0
    2.3220   40.9927   47.4869 C   0  0  0  0  0  0  0  0  0  0  0  0
    1.1937   41.7824   47.5992 C   0  0  0  0  0  3  0  0  0  0  0  0
    2.9067   40.7179   46.2464 C   0  0  0  0  0  3  0  0  0  0  0  0
    0.6495   42.2997   46.4529 C   0  0  0  0  0  3  0  0  0  0  0  0
    2.3401   41.2489   45.1207 C   0  0  0  0  0  3  0  0  0  0  0  0
    1.2136   42.0408   45.2014 C   0  0  0  0  0  3  0  0  0  0  0  0
  1  4  1  0
  1  2  1  0
  2  3  1  0
  3 19  1  0
  4  3  1  0
  5  1  1  0
  6  8  1  0
  7  6  2  0
  7  9  1  0
  8  5  2  0
  9 10  2  0
 10  5  1  0
 11  6  1  0
 11 14  1  0
 12 18  1  6
 12 14  1  0
 13 15  1  0
 13 12  1  0
 15 16  1  0
 16 11  1  0
 17 12  1  0
 19 22  1  6
 19 20  2  0
 21 19  2  0
 22 23  1  0
 23 24  2  0
 24 26  1  0
 25 23  1  0
 25 27  2  0
 27 28  1  0
 28 26  2  0
M  RAD  8   2   3   3   2   4   3   7   2   9   2  13   3  14   3  15   3
M  RAD  8  16   3  17   2  18   2  24   2  25   2  26   2  27   2  28   2
M  END
>  <REMARK>  (1) 
 SMILES CC1(C)CCCN(c2ccnc(N3CC(S(=O)(=O)Nc4ccccc4)C3)n2)C1
 SMILES IDX 13 1 14 2 15 3 26 4 12 5 8 6 9 7 27 8 10 9 11 10 7 11 2 12
 SMILES IDX 4 13 28 14 5 15 6 16 1 17 3 18 16 19 17 20 18 21 19 22 20 24
 SMILES IDX 21 25 25 26 22 27 24 28 23 29
 H PARENT 19 23

>  <TORSDO>  (1) 
F 5

$$$$
