/home/pchatterjee/Documents/git/vs_workflow/DiffDock/diffdock_run/pdbqt_scrubbed/Z4464308327.pdbqt
     RDKit          3D

 28 31  0  0  1  0  0  0  0  0999 V2000
    6.8135   43.0725   48.9262 N   0  0  0  0  0  0  0  0  0  0  0  0
    6.8563   41.6325   48.6368 C   0  0  0  0  0  2  0  0  0  0  0  0
    5.4454   41.7673   48.0517 C   0  0  0  0  0  3  0  0  0  0  0  0
    5.7006   43.2537   47.9970 C   0  0  0  0  0  2  0  0  0  0  0  0
    7.6064   43.8684   49.7979 C   0  0  0  0  0  0  0  0  0  0  0  0
    7.8163   45.5038   51.4448 C   0  0  0  0  0  0  0  0  0  0  0  0
    9.1902   45.3502   51.4319 C   0  0  0  0  0  3  0  0  0  0  0  0
    7.0206   44.7661   50.6306 N   0  0  0  0  0  0  0  0  0  0  0  0
    9.7710   44.4352   50.5815 C   0  0  0  0  0  3  0  0  0  0  0  0
    8.9505   43.7214   49.7885 N   0  0  0  0  0  0  0  0  0  0  0  0
    7.1813   46.4384   52.3092 N   0  0  0  0  0  0  0  0  0  0  0  0
    5.3053   46.7205   53.7589 C   0  0  1  0  0  0  0  0  0  0  0  0
    6.0387   47.8062   54.4815 C   0  0  0  0  0  2  0  0  0  0  0  0
    5.7478   46.6586   52.3250 C   0  0  0  0  0  2  0  0  0  0  0  0
    7.2214   48.3575   53.7190 C   0  0  0  0  0  2  0  0  0  0  0  0
    8.0407   47.1914   53.2064 C   0  0  0  0  0  2  0  0  0  0  0  0
    5.6158   45.3869   54.4261 C   0  0  0  0  0  1  0  0  0  0  0  0
    3.8087   46.9316   53.8754 C   0  0  0  0  0  1  0  0  0  0  0  0
    4.3103   41.2568   49.3478 S   0  0  2  0  0  0  0  0  0  0  0  0
    3.8073   42.4270   50.1052 O   0  0  0  0  0  0  0  0  0  0  0  0
    4.9587   40.2959   50.2778 O   0  0  0  0  0  0  0  0  0  0  0  0
    3.0079   40.4548   48.5315 N   0  0  0  0  0  0  0  0  0  0  0  0
    2.2945   41.0710   47.4637 C   0  0  0  0  0  0  0  0  0  0  0  0
    1.2024   41.8919   47.6702 C   0  0  0  0  0  3  0  0  0  0  0  0
    2.7719   40.7915   46.1791 C   0  0  0  0  0  3  0  0  0  0  0  0
    0.5858   42.4360   46.5742 C   0  0  0  0  0  3  0  0  0  0  0  0
    2.1348   41.3497   45.1054 C   0  0  0  0  0  3  0  0  0  0  0  0
    1.0422   42.1732   45.2803 C   0  0  0  0  0  3  0  0  0  0  0  0
  1  4  1  0
  1  2  1  0
  2  3  1  0
  3 19  1  0
  4  3  1  0
  5  1  1  0
  6  8  1  0
  7  6  2  0
  7  9  1  0
  8  5  2  0
  9 10  2  0
 10  5  1  0
 11  6  1  0
 11 14  1  0
 12 18  1  6
 12 14  1  0
 13 15  1  0
 13 12  1  0
 15 16  1  0
 16 11  1  0
 17 12  1  0
 19 22  1  6
 19 20  2  0
 21 19  2  0
 22 23  1  0
 23 24  2  0
 24 26  1  0
 25 23  1  0
 25 27  2  0
 27 28  1  0
 28 26  2  0
M  RAD  8   2   3   3   2   4   3   7   2   9   2  13   3  14   3  15   3
M  RAD  8  16   3  17   2  18   2  24   2  25   2  26   2  27   2  28   2
M  END
>  <REMARK>  (1) 
 SMILES CC1(C)CCCN(c2ccnc(N3CC(S(=O)(=O)Nc4ccccc4)C3)n2)C1
 SMILES IDX 13 1 14 2 15 3 26 4 12 5 8 6 9 7 27 8 10 9 11 10 7 11 2 12
 SMILES IDX 4 13 28 14 5 15 6 16 1 17 3 18 16 19 17 20 18 21 19 22 20 24
 SMILES IDX 21 25 25 26 22 27 24 28 23 29
 H PARENT 19 23

>  <TORSDO>  (1) 
F 5

$$$$
