/home/pchatterjee/Documents/git/vs_workflow/DiffDock/diffdock_run/pdbqt_scrubbed/Z4464308327.pdbqt
     RDKit          3D

 28 31  0  0  1  0  0  0  0  0999 V2000
    6.7239   42.9613   48.9084 N   0  0  0  0  0  0  0  0  0  0  0  0
    6.7456   41.4994   48.7614 C   0  0  0  0  0  2  0  0  0  0  0  0
    5.3630   41.6029   48.1065 C   0  0  0  0  0  3  0  0  0  0  0  0
    5.6540   43.0719   47.9195 C   0  0  0  0  0  2  0  0  0  0  0  0
    7.4987   43.8232   49.7321 C   0  0  0  0  0  0  0  0  0  0  0  0
    7.6700   45.4814   51.3606 C   0  0  0  0  0  0  0  0  0  0  0  0
    9.0489   45.4368   51.2709 C   0  0  0  0  0  3  0  0  0  0  0  0
    6.8911   44.6776   50.5943 N   0  0  0  0  0  0  0  0  0  0  0  0
    9.6520   44.5646   50.3914 C   0  0  0  0  0  3  0  0  0  0  0  0
    8.8476   43.7828   49.6475 N   0  0  0  0  0  0  0  0  0  0  0  0
    7.0122   46.3689   52.2570 N   0  0  0  0  0  0  0  0  0  0  0  0
    5.1493   46.5412   53.7404 C   0  0  1  0  0  0  0  0  0  0  0  0
    5.8505   47.6373   54.4790 C   0  0  0  0  0  2  0  0  0  0  0  0
    5.5716   46.5316   52.2991 C   0  0  0  0  0  2  0  0  0  0  0  0
    6.9987   48.2534   53.7133 C   0  0  0  0  0  2  0  0  0  0  0  0
    7.8552   47.1335   53.1601 C   0  0  0  0  0  2  0  0  0  0  0  0
    5.5222   45.2052   54.3698 C   0  0  0  0  0  1  0  0  0  0  0  0
    3.6476   46.6899   53.8839 C   0  0  0  0  0  1  0  0  0  0  0  0
    4.1649   41.2424   49.3963 S   0  0  2  0  0  0  0  0  0  0  0  0
    3.7761   42.4755   50.1204 O   0  0  0  0  0  0  0  0  0  0  0  0
    4.6988   40.2417   50.3567 O   0  0  0  0  0  0  0  0  0  0  0  0
    2.7971   40.5601   48.5783 N   0  0  0  0  0  0  0  0  0  0  0  0
    2.2393   41.1602   47.4132 C   0  0  0  0  0  0  0  0  0  0  0  0
    2.7353   40.9308   46.1441 C   0  0  0  0  0  3  0  0  0  0  0  0
    1.1469   42.0052   47.6341 C   0  0  0  0  0  3  0  0  0  0  0  0
    2.1263   41.5574   45.0886 C   0  0  0  0  0  3  0  0  0  0  0  0
    0.5607   42.6160   46.5600 C   0  0  0  0  0  3  0  0  0  0  0  0
    1.0337   42.4063   45.2815 C   0  0  0  0  0  3  0  0  0  0  0  0
  1  4  1  0
  1  2  1  0
  2  3  1  0
  3 19  1  0
  4  3  1  0
  5  1  1  0
  6  8  1  0
  7  6  2  0
  7  9  1  0
  8  5  2  0
  9 10  2  0
 10  5  1  0
 11  6  1  0
 11 14  1  0
 12 18  1  6
 12 14  1  0
 13 15  1  0
 13 12  1  0
 15 16  1  0
 16 11  1  0
 17 12  1  0
 19 22  1  6
 19 20  2  0
 21 19  2  0
 22 23  1  0
 23 24  2  0
 24 26  1  0
 25 23  1  0
 25 27  2  0
 27 28  1  0
 28 26  2  0
M  RAD  8   2   3   3   2   4   3   7   2   9   2  13   3  14   3  15   3
M  RAD  8  16   3  17   2  18   2  24   2  25   2  26   2  27   2  28   2
M  END
>  <REMARK>  (1) 
 SMILES CC1(C)CCCN(c2ccnc(N3CC(S(=O)(=O)Nc4ccccc4)C3)n2)C1
 SMILES IDX 13 1 14 2 15 3 26 4 12 5 8 6 9 7 27 8 10 9 11 10 7 11 2 12
 SMILES IDX 4 13 28 14 5 15 6 16 1 17 3 18 16 19 17 20 18 21 19 22 20 24
 SMILES IDX 21 25 25 26 22 27 24 28 23 29
 H PARENT 19 23

>  <TORSDO>  (1) 
F 5

$$$$
