/home/pchatterjee/Documents/git/vs_workflow/DiffDock/diffdock_run/pdbqt_scrubbed/Z4464308327.pdbqt
     RDKit          3D

 28 31  0  0  1  0  0  0  0  0999 V2000
    6.7182   42.9919   48.9345 N   0  0  0  0  0  0  0  0  0  0  0  0
    6.7219   41.5302   48.7835 C   0  0  0  0  0  2  0  0  0  0  0  0
    5.3311   41.6504   48.1492 C   0  0  0  0  0  3  0  0  0  0  0  0
    5.6352   43.1167   47.9617 C   0  0  0  0  0  2  0  0  0  0  0  0
    7.5141   43.8432   49.7491 C   0  0  0  0  0  0  0  0  0  0  0  0
    7.7267   45.5356   51.3370 C   0  0  0  0  0  0  0  0  0  0  0  0
    9.1039   45.4326   51.2724 C   0  0  0  0  0  3  0  0  0  0  0  0
    6.9281   44.7440   50.5783 N   0  0  0  0  0  0  0  0  0  0  0  0
    9.6850   44.5137   50.4263 C   0  0  0  0  0  3  0  0  0  0  0  0
    8.8614   43.7458   49.6891 N   0  0  0  0  0  0  0  0  0  0  0  0
    7.0914   46.4725   52.1987 N   0  0  0  0  0  0  0  0  0  0  0  0
    5.2618   46.7317   53.7106 C   0  0  1  0  0  0  0  0  0  0  0  0
    5.9823   47.8628   54.3742 C   0  0  0  0  0  2  0  0  0  0  0  0
    5.6525   46.6433   52.2631 C   0  0  0  0  0  2  0  0  0  0  0  0
    7.1154   48.4322   53.5520 C   0  0  0  0  0  2  0  0  0  0  0  0
    7.9562   47.2807   53.0410 C   0  0  0  0  0  2  0  0  0  0  0  0
    5.6443   45.4297   54.4024 C   0  0  0  0  0  1  0  0  0  0  0  0
    3.7640   46.8942   53.8783 C   0  0  0  0  0  1  0  0  0  0  0  0
    4.1481   41.2993   49.4553 S   0  0  2  0  0  0  0  0  0  0  0  0
    3.6252   42.5519   50.0498 O   0  0  0  0  0  0  0  0  0  0  0  0
    4.7580   40.4551   50.5156 O   0  0  0  0  0  0  0  0  0  0  0  0
    2.8710   40.4075   48.6943 N   0  0  0  0  0  0  0  0  0  0  0  0
    2.2817   40.8320   47.4690 C   0  0  0  0  0  0  0  0  0  0  0  0
    1.1346   41.6007   47.4183 C   0  0  0  0  0  3  0  0  0  0  0  0
    2.9420   40.4191   46.3073 C   0  0  0  0  0  3  0  0  0  0  0  0
    0.6482   41.9565   46.1877 C   0  0  0  0  0  3  0  0  0  0  0  0
    2.4318   40.7905   45.0940 C   0  0  0  0  0  3  0  0  0  0  0  0
    1.2883   41.5574   45.0119 C   0  0  0  0  0  3  0  0  0  0  0  0
  1  4  1  0
  1  2  1  0
  2  3  1  0
  3 19  1  0
  4  3  1  0
  5  1  1  0
  6  8  1  0
  7  6  2  0
  7  9  1  0
  8  5  2  0
  9 10  2  0
 10  5  1  0
 11  6  1  0
 11 14  1  0
 12 18  1  6
 12 14  1  0
 13 15  1  0
 13 12  1  0
 15 16  1  0
 16 11  1  0
 17 12  1  0
 19 22  1  6
 19 20  2  0
 21 19  2  0
 22 23  1  0
 23 24  2  0
 24 26  1  0
 25 23  1  0
 25 27  2  0
 27 28  1  0
 28 26  2  0
M  RAD  8   2   3   3   2   4   3   7   2   9   2  13   3  14   3  15   3
M  RAD  8  16   3  17   2  18   2  24   2  25   2  26   2  27   2  28   2
M  END
>  <REMARK>  (1) 
 SMILES CC1(C)CCCN(c2ccnc(N3CC(S(=O)(=O)Nc4ccccc4)C3)n2)C1
 SMILES IDX 13 1 14 2 15 3 26 4 12 5 8 6 9 7 27 8 10 9 11 10 7 11 2 12
 SMILES IDX 4 13 28 14 5 15 6 16 1 17 3 18 16 19 17 20 18 21 19 22 20 24
 SMILES IDX 21 25 25 26 22 27 24 28 23 29
 H PARENT 19 23

>  <TORSDO>  (1) 
F 5

$$$$
