/home/pchatterjee/Documents/git/vs_workflow/DiffDock/diffdock_run/pdbqt_scrubbed/Z4464308327.pdbqt
     RDKit          3D

 28 31  0  0  1  0  0  0  0  0999 V2000
    6.7202   42.9406   48.9397 N   0  0  0  0  0  0  0  0  0  0  0  0
    6.7995   41.5113   48.6079 C   0  0  0  0  0  2  0  0  0  0  0  0
    5.3448   41.6007   48.1316 C   0  0  0  0  0  3  0  0  0  0  0  0
    5.5349   43.0975   48.0999 C   0  0  0  0  0  2  0  0  0  0  0  0
    7.5428   43.7474   49.7730 C   0  0  0  0  0  0  0  0  0  0  0  0
    7.8119   45.4297   51.3631 C   0  0  0  0  0  0  0  0  0  0  0  0
    9.1821   45.2478   51.3337 C   0  0  0  0  0  3  0  0  0  0  0  0
    6.9886   44.6829   50.5855 N   0  0  0  0  0  0  0  0  0  0  0  0
    9.7307   44.2945   50.5042 C   0  0  0  0  0  3  0  0  0  0  0  0
    8.8834   43.5727   49.7474 N   0  0  0  0  0  0  0  0  0  0  0  0
    7.2097   46.4041   52.2067 N   0  0  0  0  0  0  0  0  0  0  0  0
    5.3290   46.7927   53.6254 C   0  0  1  0  0  0  0  0  0  0  0  0
    6.1027   47.8517   54.3456 C   0  0  0  0  0  2  0  0  0  0  0  0
    5.7881   46.6918   52.1989 C   0  0  0  0  0  2  0  0  0  0  0  0
    7.3208   48.3369   53.5939 C   0  0  0  0  0  2  0  0  0  0  0  0
    8.0911   47.1271   53.1073 C   0  0  0  0  0  2  0  0  0  0  0  0
    5.5666   45.4545   54.3130 C   0  0  0  0  0  1  0  0  0  0  0  0
    3.8426   47.0756   53.7174 C   0  0  0  0  0  1  0  0  0  0  0  0
    4.3305   41.0106   49.4925 S   0  0  2  0  0  0  0  0  0  0  0  0
    4.2033   42.0434   50.5475 O   0  0  0  0  0  0  0  0  0  0  0  0
    4.8906   39.7629   50.0742 O   0  0  0  0  0  0  0  0  0  0  0  0
    2.7825   40.6585   48.7958 N   0  0  0  0  0  0  0  0  0  0  0  0
    2.4468   41.0505   47.4683 C   0  0  0  0  0  0  0  0  0  0  0  0
    3.0882   40.5432   46.3545 C   0  0  0  0  0  3  0  0  0  0  0  0
    1.4170   41.9906   47.3593 C   0  0  0  0  0  3  0  0  0  0  0  0
    2.6894   40.9861   45.1207 C   0  0  0  0  0  3  0  0  0  0  0  0
    1.0418   42.4130   46.1138 C   0  0  0  0  0  3  0  0  0  0  0  0
    1.6636   41.9245   44.9837 C   0  0  0  0  0  3  0  0  0  0  0  0
  1  4  1  0
  1  2  1  0
  2  3  1  0
  3 19  1  0
  4  3  1  0
  5  1  1  0
  6  8  1  0
  7  6  2  0
  7  9  1  0
  8  5  2  0
  9 10  2  0
 10  5  1  0
 11  6  1  0
 11 14  1  0
 12 18  1  6
 12 14  1  0
 13 15  1  0
 13 12  1  0
 15 16  1  0
 16 11  1  0
 17 12  1  0
 19 22  1  6
 19 20  2  0
 21 19  2  0
 22 23  1  0
 23 24  2  0
 24 26  1  0
 25 23  1  0
 25 27  2  0
 27 28  1  0
 28 26  2  0
M  RAD  8   2   3   3   2   4   3   7   2   9   2  13   3  14   3  15   3
M  RAD  8  16   3  17   2  18   2  24   2  25   2  26   2  27   2  28   2
M  END
>  <REMARK>  (1) 
 SMILES CC1(C)CCCN(c2ccnc(N3CC(S(=O)(=O)Nc4ccccc4)C3)n2)C1
 SMILES IDX 13 1 14 2 15 3 26 4 12 5 8 6 9 7 27 8 10 9 11 10 7 11 2 12
 SMILES IDX 4 13 28 14 5 15 6 16 1 17 3 18 16 19 17 20 18 21 19 22 20 24
 SMILES IDX 21 25 25 26 22 27 24 28 23 29
 H PARENT 19 23

>  <TORSDO>  (1) 
F 5

$$$$
