/home/pchatterjee/Documents/git/vs_workflow/DiffDock/diffdock_run/pdbqt_scrubbed/Z4464308327.pdbqt
     RDKit          3D

 28 31  0  0  1  0  0  0  0  0999 V2000
    6.8274   42.8588   48.9535 N   0  0  0  0  0  0  0  0  0  0  0  0
    6.8666   41.4097   48.7126 C   0  0  0  0  0  2  0  0  0  0  0  0
    5.4481   41.5249   48.1420 C   0  0  0  0  0  3  0  0  0  0  0  0
    5.7022   43.0086   48.0335 C   0  0  0  0  0  2  0  0  0  0  0  0
    7.6315   43.6835   49.7871 C   0  0  0  0  0  0  0  0  0  0  0  0
    7.8628   45.3743   51.3742 C   0  0  0  0  0  0  0  0  0  0  0  0
    9.2365   45.2196   51.3489 C   0  0  0  0  0  3  0  0  0  0  0  0
    7.0567   44.6096   50.5961 N   0  0  0  0  0  0  0  0  0  0  0  0
    9.8062   44.2756   50.5229 C   0  0  0  0  0  3  0  0  0  0  0  0
    8.9754   43.5355   49.7654 N   0  0  0  0  0  0  0  0  0  0  0  0
    7.2392   46.3382   52.2142 N   0  0  0  0  0  0  0  0  0  0  0  0
    5.3721   46.6768   53.6634 C   0  0  1  0  0  0  0  0  0  0  0  0
    6.1173   47.7769   54.3514 C   0  0  0  0  0  2  0  0  0  0  0  0
    5.8075   46.5702   52.2299 C   0  0  0  0  0  2  0  0  0  0  0  0
    7.3008   48.2966   53.5682 C   0  0  0  0  0  2  0  0  0  0  0  0
    8.1086   47.1099   53.0857 C   0  0  0  0  0  2  0  0  0  0  0  0
    5.6753   45.3604   54.3673 C   0  0  0  0  0  1  0  0  0  0  0  0
    3.8778   46.9031   53.7804 C   0  0  0  0  0  1  0  0  0  0  0  0
    4.3303   41.0590   49.4695 S   0  0  2  0  0  0  0  0  0  0  0  0
    4.0223   42.2200   50.3373 O   0  0  0  0  0  0  0  0  0  0  0  0
    4.9016   39.9570   50.2868 O   0  0  0  0  0  0  0  0  0  0  0  0
    2.8938   40.4880   48.6846 N   0  0  0  0  0  0  0  0  0  0  0  0
    2.4931   40.9673   47.4046 C   0  0  0  0  0  0  0  0  0  0  0  0
    3.1543   40.6289   46.2394 C   0  0  0  0  0  3  0  0  0  0  0  0
    1.3774   41.8107   47.3986 C   0  0  0  0  0  3  0  0  0  0  0  0
    2.6882   41.1440   45.0583 C   0  0  0  0  0  3  0  0  0  0  0  0
    0.9365   42.3087   46.2036 C   0  0  0  0  0  3  0  0  0  0  0  0
    1.5760   41.9886   45.0242 C   0  0  0  0  0  3  0  0  0  0  0  0
  1  4  1  0
  1  2  1  0
  2  3  1  0
  3 19  1  0
  4  3  1  0
  5  1  1  0
  6  8  1  0
  7  6  2  0
  7  9  1  0
  8  5  2  0
  9 10  2  0
 10  5  1  0
 11  6  1  0
 11 14  1  0
 12 18  1  6
 12 14  1  0
 13 15  1  0
 13 12  1  0
 15 16  1  0
 16 11  1  0
 17 12  1  0
 19 22  1  6
 19 20  2  0
 21 19  2  0
 22 23  1  0
 23 24  2  0
 24 26  1  0
 25 23  1  0
 25 27  2  0
 27 28  1  0
 28 26  2  0
M  RAD  8   2   3   3   2   4   3   7   2   9   2  13   3  14   3  15   3
M  RAD  8  16   3  17   2  18   2  24   2  25   2  26   2  27   2  28   2
M  END
>  <REMARK>  (1) 
 SMILES CC1(C)CCCN(c2ccnc(N3CC(S(=O)(=O)Nc4ccccc4)C3)n2)C1
 SMILES IDX 13 1 14 2 15 3 26 4 12 5 8 6 9 7 27 8 10 9 11 10 7 11 2 12
 SMILES IDX 4 13 28 14 5 15 6 16 1 17 3 18 16 19 17 20 18 21 19 22 20 24
 SMILES IDX 21 25 25 26 22 27 24 28 23 29
 H PARENT 19 23

>  <TORSDO>  (1) 
F 5

$$$$
