/home/pchatterjee/Documents/git/vs_workflow/DiffDock/diffdock_run/pdbqt_scrubbed/Z4464308327.pdbqt
     RDKit          3D

 28 31  0  0  1  0  0  0  0  0999 V2000
    6.7685   43.0131   49.0146 N   0  0  0  0  0  0  0  0  0  0  0  0
    6.7951   41.5636   48.7746 C   0  0  0  0  0  2  0  0  0  0  0  0
    5.3990   41.6993   48.1553 C   0  0  0  0  0  3  0  0  0  0  0  0
    5.6781   43.1791   48.0564 C   0  0  0  0  0  2  0  0  0  0  0  0
    7.5552   43.8262   49.8760 C   0  0  0  0  0  0  0  0  0  0  0  0
    7.7518   45.4778   51.5083 C   0  0  0  0  0  0  0  0  0  0  0  0
    9.1275   45.3416   51.4902 C   0  0  0  0  0  3  0  0  0  0  0  0
    6.9619   44.7233   50.7040 N   0  0  0  0  0  0  0  0  0  0  0  0
    9.7160   44.4269   50.6447 C   0  0  0  0  0  3  0  0  0  0  0  0
    8.9010   43.6961   49.8615 N   0  0  0  0  0  0  0  0  0  0  0  0
    7.1089   46.4115   52.3678 N   0  0  0  0  0  0  0  0  0  0  0  0
    5.2083   46.6997   53.7839 C   0  0  1  0  0  0  0  0  0  0  0  0
    5.9376   47.7730   54.5288 C   0  0  0  0  0  2  0  0  0  0  0  0
    5.6774   46.6447   52.3581 C   0  0  0  0  0  2  0  0  0  0  0  0
    7.1395   48.3192   53.7933 C   0  0  0  0  0  2  0  0  0  0  0  0
    7.9579   47.1497   53.2870 C   0  0  0  0  0  2  0  0  0  0  0  0
    5.4940   45.3581   54.4463 C   0  0  0  0  0  1  0  0  0  0  0  0
    3.7118   46.9236   53.8736 C   0  0  0  0  0  1  0  0  0  0  0  0
    4.2293   41.2496   49.4431 S   0  0  2  0  0  0  0  0  0  0  0  0
    3.7498   42.4496   50.1684 O   0  0  0  0  0  0  0  0  0  0  0  0
    4.8345   40.2896   50.4029 O   0  0  0  0  0  0  0  0  0  0  0  0
    2.9165   40.4694   48.6226 N   0  0  0  0  0  0  0  0  0  0  0  0
    2.2835   41.0531   47.4880 C   0  0  0  0  0  0  0  0  0  0  0  0
    1.1820   41.8812   47.5904 C   0  0  0  0  0  3  0  0  0  0  0  0
    2.8508   40.7337   46.2501 C   0  0  0  0  0  3  0  0  0  0  0  0
    0.6474   42.3919   46.4367 C   0  0  0  0  0  3  0  0  0  0  0  0
    2.2942   41.2593   45.1169 C   0  0  0  0  0  3  0  0  0  0  0  0
    1.1946   42.0889   45.1876 C   0  0  0  0  0  3  0  0  0  0  0  0
  1  4  1  0
  1  2  1  0
  2  3  1  0
  3 19  1  0
  4  3  1  0
  5  1  1  0
  6  8  1  0
  7  6  2  0
  7  9  1  0
  8  5  2  0
  9 10  2  0
 10  5  1  0
 11  6  1  0
 11 14  1  0
 12 18  1  6
 12 14  1  0
 13 15  1  0
 13 12  1  0
 15 16  1  0
 16 11  1  0
 17 12  1  0
 19 22  1  6
 19 20  2  0
 21 19  2  0
 22 23  1  0
 23 24  2  0
 24 26  1  0
 25 23  1  0
 25 27  2  0
 27 28  1  0
 28 26  2  0
M  RAD  8   2   3   3   2   4   3   7   2   9   2  13   3  14   3  15   3
M  RAD  8  16   3  17   2  18   2  24   2  25   2  26   2  27   2  28   2
M  END
>  <REMARK>  (1) 
 SMILES CC1(C)CCCN(c2ccnc(N3CC(S(=O)(=O)Nc4ccccc4)C3)n2)C1
 SMILES IDX 13 1 14 2 15 3 26 4 12 5 8 6 9 7 27 8 10 9 11 10 7 11 2 12
 SMILES IDX 4 13 28 14 5 15 6 16 1 17 3 18 16 19 17 20 18 21 19 22 20 24
 SMILES IDX 21 25 25 26 22 27 24 28 23 29
 H PARENT 19 23

>  <TORSDO>  (1) 
F 5

$$$$
