/home/pchatterjee/Documents/git/vs_workflow/DiffDock/diffdock_run/pdbqt_scrubbed/Z4464308327.pdbqt
     RDKit          3D

 28 31  0  0  1  0  0  0  0  0999 V2000
    6.7231   43.0554   48.9229 N   0  0  0  0  0  0  0  0  0  0  0  0
    6.7254   41.5936   48.7734 C   0  0  0  0  0  2  0  0  0  0  0  0
    5.3373   41.7149   48.1335 C   0  0  0  0  0  3  0  0  0  0  0  0
    5.6441   43.1806   47.9457 C   0  0  0  0  0  2  0  0  0  0  0  0
    7.5170   43.9065   49.7397 C   0  0  0  0  0  0  0  0  0  0  0  0
    7.7267   45.5394   51.3891 C   0  0  0  0  0  0  0  0  0  0  0  0
    9.1029   45.5001   51.2628 C   0  0  0  0  0  3  0  0  0  0  0  0
    6.9300   44.7455   50.6307 N   0  0  0  0  0  0  0  0  0  0  0  0
    9.6849   44.6436   50.3542 C   0  0  0  0  0  3  0  0  0  0  0  0
    8.8633   43.8712   49.6193 N   0  0  0  0  0  0  0  0  0  0  0  0
    7.0903   46.4108   52.3162 N   0  0  0  0  0  0  0  0  0  0  0  0
    5.2650   46.5553   53.8485 C   0  0  1  0  0  0  0  0  0  0  0  0
    5.9830   47.6405   54.5873 C   0  0  0  0  0  2  0  0  0  0  0  0
    5.6510   46.5702   52.3971 C   0  0  0  0  0  2  0  0  0  0  0  0
    7.1107   48.2711   53.8033 C   0  0  0  0  0  2  0  0  0  0  0  0
    7.9547   47.1621   53.2103 C   0  0  0  0  0  2  0  0  0  0  0  0
    5.6555   45.2098   54.4462 C   0  0  0  0  0  1  0  0  0  0  0  0
    3.7671   46.6989   54.0320 C   0  0  0  0  0  1  0  0  0  0  0  0
    4.1487   41.3669   49.4354 S   0  0  2  0  0  0  0  0  0  0  0  0
    3.7046   42.6159   50.0976 O   0  0  0  0  0  0  0  0  0  0  0  0
    4.7192   40.4372   50.4450 O   0  0  0  0  0  0  0  0  0  0  0  0
    2.8151   40.5886   48.6472 N   0  0  0  0  0  0  0  0  0  0  0  0
    2.2028   41.1371   47.4840 C   0  0  0  0  0  0  0  0  0  0  0  0
    2.6401   40.8525   46.2045 C   0  0  0  0  0  3  0  0  0  0  0  0
    1.1200   41.9909   47.7181 C   0  0  0  0  0  3  0  0  0  0  0  0
    1.9817   41.4324   45.1520 C   0  0  0  0  0  3  0  0  0  0  0  0
    0.4835   42.5541   46.6467 C   0  0  0  0  0  3  0  0  0  0  0  0
    0.8973   42.2887   45.3580 C   0  0  0  0  0  3  0  0  0  0  0  0
  1  4  1  0
  1  2  1  0
  2  3  1  0
  3 19  1  0
  4  3  1  0
  5  1  1  0
  6  8  1  0
  7  6  2  0
  7  9  1  0
  8  5  2  0
  9 10  2  0
 10  5  1  0
 11  6  1  0
 11 14  1  0
 12 18  1  6
 12 14  1  0
 13 15  1  0
 13 12  1  0
 15 16  1  0
 16 11  1  0
 17 12  1  0
 19 22  1  6
 19 20  2  0
 21 19  2  0
 22 23  1  0
 23 24  2  0
 24 26  1  0
 25 23  1  0
 25 27  2  0
 27 28  1  0
 28 26  2  0
M  RAD  8   2   3   3   2   4   3   7   2   9   2  13   3  14   3  15   3
M  RAD  8  16   3  17   2  18   2  24   2  25   2  26   2  27   2  28   2
M  END
>  <REMARK>  (1) 
 SMILES CC1(C)CCCN(c2ccnc(N3CC(S(=O)(=O)Nc4ccccc4)C3)n2)C1
 SMILES IDX 13 1 14 2 15 3 26 4 12 5 8 6 9 7 27 8 10 9 11 10 7 11 2 12
 SMILES IDX 4 13 28 14 5 15 6 16 1 17 3 18 16 19 17 20 18 21 19 22 20 24
 SMILES IDX 21 25 25 26 22 27 24 28 23 29
 H PARENT 19 23

>  <TORSDO>  (1) 
F 5

$$$$
