/home/pchatterjee/Documents/git/vs_workflow/DiffDock/diffdock_run/pdbqt_scrubbed/Z107740192.pdbqt
     RDKit          3D

 31 34  0  0  1  0  0  0  0  0999 V2000
    9.0974   64.8361   83.1175 C   0  0  0  0  0  0  0  0  0  0  0  0
    8.6600   65.9157   83.7881 N   0  0  0  0  0  0  0  0  0  0  0  0
    7.3544   65.9789   84.1555 C   0  0  0  0  0  0  0  0  0  0  0  0
    6.8639   67.0634   84.8475 C   0  0  0  0  0  3  0  0  0  0  0  0
    5.5622   67.1758   85.2437 C   0  0  0  0  0  3  0  0  0  0  0  0
    4.6921   66.1344   84.9279 C   0  0  0  0  0  3  0  0  0  0  0  0
    5.1761   65.0392   84.2316 C   0  0  0  0  0  3  0  0  0  0  0  0
    6.4923   64.9451   83.8411 C   0  0  0  0  0  0  0  0  0  0  0  0
    6.9523   63.8733   83.1685 N   0  0  0  0  0  0  0  0  0  0  0  0
    8.2541   63.7745   82.7844 C   0  0  0  0  0  0  0  0  0  0  0  0
   10.5166   64.6841   82.6659 C   0  0  0  0  0  3  0  0  0  0  0  0
   10.9760   63.4023   83.2047 C   0  0  0  0  0  0  0  0  0  0  0  0
   11.3411   62.3816   83.6459 N   0  0  0  0  0  0  0  0  0  0  0  0
   11.4426   66.0422   83.2756 S   0  0  2  0  0  0  0  0  0  0  0  0
   12.8003   65.5386   83.7070 O   0  0  0  0  0  0  0  0  0  0  0  0
   10.7385   66.6439   84.4663 O   0  0  0  0  0  0  0  0  0  0  0  0
   11.7097   67.2982   82.0963 C   0  0  0  0  0  0  0  0  0  0  0  0
   12.9406   67.6419   81.6123 C   0  0  0  0  0  3  0  0  0  0  0  0
   10.5782   67.9779   81.6455 C   0  0  0  0  0  3  0  0  0  0  0  0
   13.0044   68.6644   80.6836 C   0  0  0  0  0  3  0  0  0  0  0  0
   10.6641   68.9836   80.7287 C   0  0  0  0  0  3  0  0  0  0  0  0
   11.9098   69.3448   80.2274 C   0  0  0  0  0  0  0  0  0  0  0  0
   11.9490   70.3466   79.3209 F   0  0  0  0  0  0  0  0  0  0  0  0
    8.7377   62.6399   82.0833 N   0  0  0  0  0  0  0  0  0  0  0  0
    7.8290   61.5358   81.8321 C   0  0  0  0  0  2  0  0  0  0  0  0
    7.5376   60.9235   83.1860 C   0  0  0  0  0  3  0  0  0  0  0  0
    6.2696   60.0982   83.1571 C   0  0  0  0  0  2  0  0  0  0  0  0
    8.7018   60.1859   83.7656 C   0  0  0  0  0  2  0  0  0  0  0  0
    6.5272   58.7557   82.4785 C   0  0  0  0  0  2  0  0  0  0  0  0
    8.7898   58.7438   83.3469 C   0  0  0  0  0  2  0  0  0  0  0  0
    7.4660   58.0141   83.4071 C   0  0  0  0  0  2  0  0  0  0  0  0
  1 11  1  0
  1 10  1  0
  2  1  2  0
  3  2  1  0
  3  8  2  0
  4  3  1  0
  5  4  2  0
  5  6  1  0
  6  7  2  0
  7  8  1  0
  8  9  1  0
  9 10  2  0
 10 24  1  0
 11 12  1  0
 14 11  1  6
 13 12  3  0
 14 16  2  0
 14 17  1  0
 15 14  2  0
 17 19  1  0
 18 17  2  0
 18 20  1  0
 19 21  2  0
 20 22  2  0
 22 21  1  0
 22 23  1  0
 24 25  1  0
 25 26  1  0
 26 27  1  0
 26 28  1  0
 27 29  1  0
 28 30  1  0
 29 31  1  0
 30 31  1  0
M  RAD  8   4   2   5   2   6   2   7   2  11   2  18   2  19   2  20   2
M  RAD  8  21   2  25   3  26   2  27   3  28   3  29   3  30   3  31   3
M  END
>  <REMARK>  (1) 
 SMILES N#CC(c1nc2ccccc2nc1NCC1CCCCC1)S(=O)(=O)c1ccc(F)cc1
 SMILES IDX 4 1 5 2 6 3 7 4 8 5 9 6 10 7 11 8 12 9 13 10 3 11 2 12 1 13
 SMILES IDX 22 14 23 15 24 16 25 17 26 18 31 19 27 20 30 21 28 22 29 23
 SMILES IDX 14 24 15 26 16 27 17 28 21 29 18 30 20 31 19 32
 H PARENT 14 25

>  <TORSDO>  (1) 
F 7

$$$$
