/home/pchatterjee/Documents/git/vs_workflow/DiffDock/diffdock_run/pdbqt_scrubbed/Z107740192.pdbqt
     RDKit          3D

 31 34  0  0  1  0  0  0  0  0999 V2000
   14.5161   87.0481   69.9472 C   0  0  0  0  0  0  0  0  0  0  0  0
   15.1122   87.8349   69.0349 N   0  0  0  0  0  0  0  0  0  0  0  0
   14.3778   88.3164   67.9993 C   0  0  0  0  0  0  0  0  0  0  0  0
   14.9458   89.1294   67.0443 C   0  0  0  0  0  3  0  0  0  0  0  0
   14.2528   89.6429   65.9861 C   0  0  0  0  0  3  0  0  0  0  0  0
   12.9013   89.3234   65.8747 C   0  0  0  0  0  3  0  0  0  0  0  0
   12.3207   88.5059   66.8303 C   0  0  0  0  0  3  0  0  0  0  0  0
   13.0370   87.9982   67.8900 C   0  0  0  0  0  0  0  0  0  0  0  0
   12.4607   87.2081   68.8154 N   0  0  0  0  0  0  0  0  0  0  0  0
   13.1645   86.7075   69.8671 C   0  0  0  0  0  0  0  0  0  0  0  0
   15.2482   86.4665   71.1163 C   0  0  0  0  0  3  0  0  0  0  0  0
   14.6554   87.0774   72.3077 C   0  0  0  0  0  0  0  0  0  0  0  0
   14.1754   87.5726   73.2533 N   0  0  0  0  0  0  0  0  0  0  0  0
   16.9530   86.8382   70.9456 S   0  0  2  0  0  0  0  0  0  0  0  0
   17.5528   86.9709   72.3260 O   0  0  0  0  0  0  0  0  0  0  0  0
   17.1172   88.1442   70.2088 O   0  0  0  0  0  0  0  0  0  0  0  0
   17.8607   85.6096   70.1052 C   0  0  0  0  0  0  0  0  0  0  0  0
   17.9393   84.3069   70.5105 C   0  0  0  0  0  3  0  0  0  0  0  0
   18.5412   86.0159   68.9575 C   0  0  0  0  0  3  0  0  0  0  0  0
   18.7030   83.4411   69.7494 C   0  0  0  0  0  3  0  0  0  0  0  0
   19.2891   85.1450   68.2215 C   0  0  0  0  0  3  0  0  0  0  0  0
   19.3788   83.8163   68.6217 C   0  0  0  0  0  0  0  0  0  0  0  0
   20.1307   82.9876   67.8634 F   0  0  0  0  0  0  0  0  0  0  0  0
   12.5524   85.8822   70.8453 N   0  0  0  0  0  0  0  0  0  0  0  0
   11.1677   85.4882   70.6577 C   0  0  0  0  0  2  0  0  0  0  0  0
   11.0771   84.0542   71.1355 C   0  0  0  0  0  3  0  0  0  0  0  0
   11.8521   83.8503   72.4191 C   0  0  0  0  0  2  0  0  0  0  0  0
    9.6743   83.5427   71.2122 C   0  0  0  0  0  2  0  0  0  0  0  0
   11.0721   84.4139   73.6036 C   0  0  0  0  0  2  0  0  0  0  0  0
    8.9867   83.8198   72.5211 C   0  0  0  0  0  2  0  0  0  0  0  0
    9.8482   83.5309   73.7306 C   0  0  0  0  0  2  0  0  0  0  0  0
  1 11  1  0
  1 10  1  0
  2  1  2  0
  3  2  1  0
  3  8  2  0
  4  3  1  0
  5  4  2  0
  5  6  1  0
  6  7  2  0
  7  8  1  0
  8  9  1  0
  9 10  2  0
 10 24  1  0
 11 12  1  0
 14 11  1  1
 13 12  3  0
 14 16  2  0
 14 17  1  0
 15 14  2  0
 17 19  1  0
 18 17  2  0
 18 20  1  0
 19 21  2  0
 20 22  2  0
 22 21  1  0
 22 23  1  0
 24 25  1  0
 25 26  1  0
 26 27  1  0
 26 28  1  0
 27 29  1  0
 28 30  1  0
 29 31  1  0
 30 31  1  0
M  RAD  8   4   2   5   2   6   2   7   2  11   2  18   2  19   2  20   2
M  RAD  8  21   2  25   3  26   2  27   3  28   3  29   3  30   3  31   3
M  END
>  <REMARK>  (1) 
 SMILES N#CC(c1nc2ccccc2nc1NCC1CCCCC1)S(=O)(=O)c1ccc(F)cc1
 SMILES IDX 4 1 5 2 6 3 7 4 8 5 9 6 10 7 11 8 12 9 13 10 3 11 2 12 1 13
 SMILES IDX 22 14 23 15 24 16 25 17 26 18 31 19 27 20 30 21 28 22 29 23
 SMILES IDX 14 24 15 26 16 27 17 28 21 29 18 30 20 31 19 32
 H PARENT 14 25

>  <TORSDO>  (1) 
F 7

$$$$
