/home/pchatterjee/Documents/git/vs_workflow/DiffDock/diffdock_run/pdbqt_scrubbed/Z107740192.pdbqt
     RDKit          3D

 31 34  0  0  1  0  0  0  0  0999 V2000
    3.7623   44.1072   51.6638 C   0  0  0  0  0  0  0  0  0  0  0  0
    3.1532   43.0357   51.1276 N   0  0  0  0  0  0  0  0  0  0  0  0
    3.7612   42.3725   50.1106 C   0  0  0  0  0  0  0  0  0  0  0  0
    3.1762   41.2673   49.5345 C   0  0  0  0  0  3  0  0  0  0  0  0
    3.7454   40.5625   48.5130 C   0  0  0  0  0  3  0  0  0  0  0  0
    4.9823   40.9901   48.0355 C   0  0  0  0  0  3  0  0  0  0  0  0
    5.5788   42.1013   48.6084 C   0  0  0  0  0  3  0  0  0  0  0  0
    4.9884   42.7982   49.6376 C   0  0  0  0  0  0  0  0  0  0  0  0
    5.5799   43.8743   50.1898 N   0  0  0  0  0  0  0  0  0  0  0  0
    5.0014   44.5637   51.2105 C   0  0  0  0  0  0  0  0  0  0  0  0
    3.1635   44.9033   52.7814 C   0  0  0  0  0  3  0  0  0  0  0  0
    4.2254   45.0623   53.7771 C   0  0  0  0  0  0  0  0  0  0  0  0
    5.0779   45.1787   54.5704 N   0  0  0  0  0  0  0  0  0  0  0  0
    1.7785   44.0293   53.4068 S   0  0  2  0  0  0  0  0  0  0  0  0
    1.3346   44.6936   54.6892 O   0  0  0  0  0  0  0  0  0  0  0  0
    2.1682   42.6018   53.7000 O   0  0  0  0  0  0  0  0  0  0  0  0
    0.4073   44.0196   52.3301 C   0  0  0  0  0  0  0  0  0  0  0  0
    0.0574   42.9544   51.5489 C   0  0  0  0  0  3  0  0  0  0  0  0
   -0.3536   45.1877   52.2825 C   0  0  0  0  0  3  0  0  0  0  0  0
   -1.0528   43.0898   50.7357 C   0  0  0  0  0  3  0  0  0  0  0  0
   -1.4451   45.2997   51.4729 C   0  0  0  0  0  3  0  0  0  0  0  0
   -1.8132   44.2243   50.6720 C   0  0  0  0  0  0  0  0  0  0  0  0
   -2.9012   44.3785   49.8850 F   0  0  0  0  0  0  0  0  0  0  0  0
    5.6312   45.6921   51.7959 N   0  0  0  0  0  0  0  0  0  0  0  0
    6.8673   46.1815   51.2125 C   0  0  0  0  0  2  0  0  0  0  0  0
    7.9834   45.5019   51.9775 C   0  0  0  0  0  3  0  0  0  0  0  0
    9.2893   45.5584   51.2149 C   0  0  0  0  0  2  0  0  0  0  0  0
    8.1099   45.9783   53.3890 C   0  0  0  0  0  2  0  0  0  0  0  0
    9.9068   46.9497   51.3253 C   0  0  0  0  0  2  0  0  0  0  0  0
    8.9907   47.1861   53.5566 C   0  0  0  0  0  2  0  0  0  0  0  0
   10.2881   47.1013   52.7833 C   0  0  0  0  0  2  0  0  0  0  0  0
  1 11  1  0
  1 10  1  0
  2  1  2  0
  3  2  1  0
  3  8  2  0
  4  3  1  0
  5  4  2  0
  5  6  1  0
  6  7  2  0
  7  8  1  0
  8  9  1  0
  9 10  2  0
 10 24  1  0
 11 12  1  0
 14 11  1  6
 13 12  3  0
 14 16  2  0
 14 17  1  0
 15 14  2  0
 17 19  1  0
 18 17  2  0
 18 20  1  0
 19 21  2  0
 20 22  2  0
 22 21  1  0
 22 23  1  0
 24 25  1  0
 25 26  1  0
 26 27  1  0
 26 28  1  0
 27 29  1  0
 28 30  1  0
 29 31  1  0
 30 31  1  0
M  RAD  8   4   2   5   2   6   2   7   2  11   2  18   2  19   2  20   2
M  RAD  8  21   2  25   3  26   2  27   3  28   3  29   3  30   3  31   3
M  END
>  <REMARK>  (1) 
 SMILES N#CC(c1nc2ccccc2nc1NCC1CCCCC1)S(=O)(=O)c1ccc(F)cc1
 SMILES IDX 4 1 5 2 6 3 7 4 8 5 9 6 10 7 11 8 12 9 13 10 3 11 2 12 1 13
 SMILES IDX 22 14 23 15 24 16 25 17 26 18 31 19 27 20 30 21 28 22 29 23
 SMILES IDX 14 24 15 26 16 27 17 28 21 29 18 30 20 31 19 32
 H PARENT 14 25

>  <TORSDO>  (1) 
F 7

$$$$
