/home/pchatterjee/Documents/git/vs_workflow/DiffDock/diffdock_run/pdbqt_scrubbed/Z107740192.pdbqt
     RDKit          3D

 31 34  0  0  1  0  0  0  0  0999 V2000
    9.3100   63.0367   83.7090 C   0  0  0  0  0  0  0  0  0  0  0  0
    8.5186   62.4254   84.6072 N   0  0  0  0  0  0  0  0  0  0  0  0
    7.4742   63.1107   85.1394 C   0  0  0  0  0  0  0  0  0  0  0  0
    6.6350   62.5229   86.0591 C   0  0  0  0  0  3  0  0  0  0  0  0
    5.5696   63.1648   86.6219 C   0  0  0  0  0  3  0  0  0  0  0  0
    5.3256   64.4822   86.2398 C   0  0  0  0  0  3  0  0  0  0  0  0
    6.1645   65.0824   85.3153 C   0  0  0  0  0  3  0  0  0  0  0  0
    7.2337   64.4179   84.7595 C   0  0  0  0  0  0  0  0  0  0  0  0
    8.0397   65.0102   83.8582 N   0  0  0  0  0  0  0  0  0  0  0  0
    9.0954   64.3551   83.3031 C   0  0  0  0  0  0  0  0  0  0  0  0
   10.4876   62.3624   83.0767 C   0  0  0  0  0  3  0  0  0  0  0  0
   10.0021   61.8051   81.8125 C   0  0  0  0  0  0  0  0  0  0  0  0
    9.6112   61.3702   80.7987 N   0  0  0  0  0  0  0  0  0  0  0  0
   11.0779   61.1294   84.1743 S   0  0  2  0  0  0  0  0  0  0  0  0
   12.0020   60.2116   83.4082 O   0  0  0  0  0  0  0  0  0  0  0  0
    9.9177   60.3270   84.7089 O   0  0  0  0  0  0  0  0  0  0  0  0
   11.9826   61.7625   85.5235 C   0  0  0  0  0  0  0  0  0  0  0  0
   11.4742   61.9059   86.7837 C   0  0  0  0  0  3  0  0  0  0  0  0
   13.2997   62.1420   85.2650 C   0  0  0  0  0  3  0  0  0  0  0  0
   12.3051   62.4295   87.7572 C   0  0  0  0  0  3  0  0  0  0  0  0
   14.1019   62.6564   86.2403 C   0  0  0  0  0  3  0  0  0  0  0  0
   13.5984   62.8086   87.5275 C   0  0  0  0  0  0  0  0  0  0  0  0
   14.4276   63.3223   88.4632 F   0  0  0  0  0  0  0  0  0  0  0  0
    9.9378   64.9793   82.3473 N   0  0  0  0  0  0  0  0  0  0  0  0
    9.7131   66.3775   82.0273 C   0  0  0  0  0  2  0  0  0  0  0  0
   10.5983   66.6767   80.8357 C   0  0  0  0  0  3  0  0  0  0  0  0
   10.0892   67.8693   80.0557 C   0  0  0  0  0  2  0  0  0  0  0  0
   12.0478   66.7832   81.1864 C   0  0  0  0  0  2  0  0  0  0  0  0
   10.4366   69.1650   80.7833 C   0  0  0  0  0  2  0  0  0  0  0  0
   12.4811   68.1600   81.6102 C   0  0  0  0  0  2  0  0  0  0  0  0
   11.9469   69.2627   80.7231 C   0  0  0  0  0  2  0  0  0  0  0  0
  1 11  1  0
  1 10  1  0
  2  1  2  0
  3  2  1  0
  3  8  2  0
  4  3  1  0
  5  4  2  0
  5  6  1  0
  6  7  2  0
  7  8  1  0
  8  9  1  0
  9 10  2  0
 10 24  1  0
 11 12  1  0
 14 11  1  6
 13 12  3  0
 14 16  2  0
 14 17  1  0
 15 14  2  0
 17 19  1  0
 18 17  2  0
 18 20  1  0
 19 21  2  0
 20 22  2  0
 22 21  1  0
 22 23  1  0
 24 25  1  0
 25 26  1  0
 26 27  1  0
 26 28  1  0
 27 29  1  0
 28 30  1  0
 29 31  1  0
 30 31  1  0
M  RAD  8   4   2   5   2   6   2   7   2  11   2  18   2  19   2  20   2
M  RAD  8  21   2  25   3  26   2  27   3  28   3  29   3  30   3  31   3
M  END
>  <REMARK>  (1) 
 SMILES N#CC(c1nc2ccccc2nc1NCC1CCCCC1)S(=O)(=O)c1ccc(F)cc1
 SMILES IDX 4 1 5 2 6 3 7 4 8 5 9 6 10 7 11 8 12 9 13 10 3 11 2 12 1 13
 SMILES IDX 22 14 23 15 24 16 25 17 26 18 31 19 27 20 30 21 28 22 29 23
 SMILES IDX 14 24 15 26 16 27 17 28 21 29 18 30 20 31 19 32
 H PARENT 14 25

>  <TORSDO>  (1) 
F 7

$$$$
