/home/pchatterjee/Documents/git/vs_workflow/DiffDock/diffdock_run/pdbqt_scrubbed/Z107740192.pdbqt
     RDKit          3D

 31 34  0  0  1  0  0  0  0  0999 V2000
    9.7612   63.3408   84.0518 C   0  0  0  0  0  0  0  0  0  0  0  0
    8.7569   62.7648   84.7346 N   0  0  0  0  0  0  0  0  0  0  0  0
    7.4968   63.2483   84.5862 C   0  0  0  0  0  0  0  0  0  0  0  0
    6.4372   62.6865   85.2623 C   0  0  0  0  0  3  0  0  0  0  0  0
    5.1515   63.1309   85.1467 C   0  0  0  0  0  3  0  0  0  0  0  0
    4.9078   64.2086   84.2981 C   0  0  0  0  0  3  0  0  0  0  0  0
    5.9674   64.7809   83.6137 C   0  0  0  0  0  3  0  0  0  0  0  0
    7.2567   64.3180   83.7441 C   0  0  0  0  0  0  0  0  0  0  0  0
    8.2780   64.8795   83.0702 N   0  0  0  0  0  0  0  0  0  0  0  0
    9.5537   64.4220   83.1931 C   0  0  0  0  0  0  0  0  0  0  0  0
   11.1816   62.8801   84.1593 C   0  0  0  0  0  3  0  0  0  0  0  0
   11.4989   62.2491   82.8765 C   0  0  0  0  0  0  0  0  0  0  0  0
   11.7540   61.7348   81.8567 N   0  0  0  0  0  0  0  0  0  0  0  0
   11.3042   61.7658   85.5071 S   0  0  2  0  0  0  0  0  0  0  0  0
   10.4710   60.5448   85.1940 O   0  0  0  0  0  0  0  0  0  0  0  0
   10.7705   62.4197   86.7574 O   0  0  0  0  0  0  0  0  0  0  0  0
   12.9285   61.2149   85.8197 C   0  0  0  0  0  0  0  0  0  0  0  0
   13.8889   61.9745   86.4265 C   0  0  0  0  0  3  0  0  0  0  0  0
   13.2350   59.9183   85.4071 C   0  0  0  0  0  3  0  0  0  0  0  0
   15.1387   61.4101   86.6043 C   0  0  0  0  0  3  0  0  0  0  0  0
   14.4746   59.3813   85.5923 C   0  0  0  0  0  3  0  0  0  0  0  0
   15.4623   60.1422   86.2080 C   0  0  0  0  0  0  0  0  0  0  0  0
   16.6763   59.5710   86.3714 F   0  0  0  0  0  0  0  0  0  0  0  0
   10.6265   65.0103   82.4751 N   0  0  0  0  0  0  0  0  0  0  0  0
   10.3229   65.9817   81.4396 C   0  0  0  0  0  2  0  0  0  0  0  0
   10.5412   67.3409   82.0704 C   0  0  0  0  0  3  0  0  0  0  0  0
   11.9837   67.5309   82.4863 C   0  0  0  0  0  2  0  0  0  0  0  0
   10.0185   68.4698   81.2411 C   0  0  0  0  0  2  0  0  0  0  0  0
   12.8510   67.8311   81.2669 C   0  0  0  0  0  2  0  0  0  0  0  0
   10.9974   68.9965   80.2277 C   0  0  0  0  0  2  0  0  0  0  0  0
   12.3934   69.1895   80.7778 C   0  0  0  0  0  2  0  0  0  0  0  0
  1 11  1  0
  1 10  1  0
  2  1  2  0
  3  2  1  0
  3  8  2  0
  4  3  1  0
  5  4  2  0
  5  6  1  0
  6  7  2  0
  7  8  1  0
  8  9  1  0
  9 10  2  0
 10 24  1  0
 11 12  1  0
 14 11  1  6
 13 12  3  0
 14 16  2  0
 14 17  1  0
 15 14  2  0
 17 19  1  0
 18 17  2  0
 18 20  1  0
 19 21  2  0
 20 22  2  0
 22 21  1  0
 22 23  1  0
 24 25  1  0
 25 26  1  0
 26 27  1  0
 26 28  1  0
 27 29  1  0
 28 30  1  0
 29 31  1  0
 30 31  1  0
M  RAD  8   4   2   5   2   6   2   7   2  11   2  18   2  19   2  20   2
M  RAD  8  21   2  25   3  26   2  27   3  28   3  29   3  30   3  31   3
M  END
>  <REMARK>  (1) 
 SMILES N#CC(c1nc2ccccc2nc1NCC1CCCCC1)S(=O)(=O)c1ccc(F)cc1
 SMILES IDX 4 1 5 2 6 3 7 4 8 5 9 6 10 7 11 8 12 9 13 10 3 11 2 12 1 13
 SMILES IDX 22 14 23 15 24 16 25 17 26 18 31 19 27 20 30 21 28 22 29 23
 SMILES IDX 14 24 15 26 16 27 17 28 21 29 18 30 20 31 19 32
 H PARENT 14 25

>  <TORSDO>  (1) 
F 7

$$$$
