/home/pchatterjee/Documents/git/vs_workflow/DiffDock/diffdock_run/pdbqt_scrubbed/Z107740192.pdbqt
     RDKit          3D

 31 34  0  0  1  0  0  0  0  0999 V2000
   10.9303   61.0890   83.8296 C   0  0  0  0  0  0  0  0  0  0  0  0
   11.8366   61.2918   82.8579 N   0  0  0  0  0  0  0  0  0  0  0  0
   13.1399   60.9984   83.1008 C   0  0  0  0  0  0  0  0  0  0  0  0
   14.1015   61.1860   82.1335 C   0  0  0  0  0  3  0  0  0  0  0  0
   15.4237   60.9043   82.3238 C   0  0  0  0  0  3  0  0  0  0  0  0
   15.8114   60.4005   83.5636 C   0  0  0  0  0  3  0  0  0  0  0  0
   14.8513   60.2086   84.5434 C   0  0  0  0  0  3  0  0  0  0  0  0
   13.5230   60.4990   84.3316 C   0  0  0  0  0  0  0  0  0  0  0  0
   12.5980   60.3040   85.2902 N   0  0  0  0  0  0  0  0  0  0  0  0
   11.2828   60.5859   85.0833 C   0  0  0  0  0  0  0  0  0  0  0  0
    9.4745   61.3910   83.6542 C   0  0  0  0  0  3  0  0  0  0  0  0
    8.7909   60.0961   83.6568 C   0  0  0  0  0  0  0  0  0  0  0  0
    8.2482   59.0592   83.6482 N   0  0  0  0  0  0  0  0  0  0  0  0
    9.2648   62.2609   82.1466 S   0  0  2  0  0  0  0  0  0  0  0  0
    7.8866   61.9559   81.6076 O   0  0  0  0  0  0  0  0  0  0  0  0
   10.2977   61.8024   81.1473 O   0  0  0  0  0  0  0  0  0  0  0  0
    9.3825   63.9926   82.3106 C   0  0  0  0  0  0  0  0  0  0  0  0
    8.3232   64.8058   82.6004 C   0  0  0  0  0  3  0  0  0  0  0  0
   10.6471   64.5500   82.1222 C   0  0  0  0  0  3  0  0  0  0  0  0
    8.5617   66.1646   82.6938 C   0  0  0  0  0  3  0  0  0  0  0  0
   10.8600   65.8934   82.2190 C   0  0  0  0  0  3  0  0  0  0  0  0
    9.7916   66.7336   82.5129 C   0  0  0  0  0  0  0  0  0  0  0  0
   10.0474   68.0580   82.5993 F   0  0  0  0  0  0  0  0  0  0  0  0
   10.3092   60.3712   86.0926 N   0  0  0  0  0  0  0  0  0  0  0  0
   10.7566   60.0554   87.4372 C   0  0  0  0  0  2  0  0  0  0  0  0
    9.7706   59.0388   87.9733 C   0  0  0  0  0  3  0  0  0  0  0  0
   10.2508   58.4384   89.2767 C   0  0  0  0  0  2  0  0  0  0  0  0
    8.3695   59.5551   88.0488 C   0  0  0  0  0  2  0  0  0  0  0  0
   10.0349   59.4217   90.4236 C   0  0  0  0  0  2  0  0  0  0  0  0
    8.0414   60.2653   89.3336 C   0  0  0  0  0  2  0  0  0  0  0  0
    8.5319   59.5411   90.5679 C   0  0  0  0  0  2  0  0  0  0  0  0
  1 11  1  0
  1 10  1  0
  2  1  2  0
  3  2  1  0
  3  8  2  0
  4  3  1  0
  5  4  2  0
  5  6  1  0
  6  7  2  0
  7  8  1  0
  8  9  1  0
  9 10  2  0
 10 24  1  0
 11 12  1  0
 14 11  1  1
 13 12  3  0
 14 16  2  0
 14 17  1  0
 15 14  2  0
 17 19  1  0
 18 17  2  0
 18 20  1  0
 19 21  2  0
 20 22  2  0
 22 21  1  0
 22 23  1  0
 24 25  1  0
 25 26  1  0
 26 27  1  0
 26 28  1  0
 27 29  1  0
 28 30  1  0
 29 31  1  0
 30 31  1  0
M  RAD  8   4   2   5   2   6   2   7   2  11   2  18   2  19   2  20   2
M  RAD  8  21   2  25   3  26   2  27   3  28   3  29   3  30   3  31   3
M  END
>  <REMARK>  (1) 
 SMILES N#CC(c1nc2ccccc2nc1NCC1CCCCC1)S(=O)(=O)c1ccc(F)cc1
 SMILES IDX 4 1 5 2 6 3 7 4 8 5 9 6 10 7 11 8 12 9 13 10 3 11 2 12 1 13
 SMILES IDX 22 14 23 15 24 16 25 17 26 18 31 19 27 20 30 21 28 22 29 23
 SMILES IDX 14 24 15 26 16 27 17 28 21 29 18 30 20 31 19 32
 H PARENT 14 25

>  <TORSDO>  (1) 
F 7

$$$$
