/home/pchatterjee/Documents/git/vs_workflow/DiffDock/diffdock_run/pdbqt_scrubbed/Z107740192.pdbqt
     RDKit          3D

 31 34  0  0  1  0  0  0  0  0999 V2000
   11.1627   85.8754   71.6508 C   0  0  0  0  0  0  0  0  0  0  0  0
   10.0727   85.1617   71.3202 N   0  0  0  0  0  0  0  0  0  0  0  0
    9.3373   84.5871   72.3065 C   0  0  0  0  0  0  0  0  0  0  0  0
    8.2109   83.8512   72.0144 C   0  0  0  0  0  3  0  0  0  0  0  0
    7.4345   83.2560   72.9666 C   0  0  0  0  0  3  0  0  0  0  0  0
    7.8080   83.4065   74.3004 C   0  0  0  0  0  3  0  0  0  0  0  0
    8.9400   84.1447   74.6043 C   0  0  0  0  0  3  0  0  0  0  0  0
    9.7095   84.7370   73.6293 C   0  0  0  0  0  0  0  0  0  0  0  0
   10.8053   85.4562   73.9372 N   0  0  0  0  0  0  0  0  0  0  0  0
   11.5665   86.0470   72.9762 C   0  0  0  0  0  0  0  0  0  0  0  0
   12.0367   86.5370   70.6312 C   0  0  0  0  0  3  0  0  0  0  0  0
   11.1915   87.5230   69.9546 C   0  0  0  0  0  0  0  0  0  0  0  0
   10.5228   88.3104   69.4046 N   0  0  0  0  0  0  0  0  0  0  0  0
   12.6452   85.3081   69.5389 S   0  0  2  0  0  0  0  0  0  0  0  0
   13.2170   85.9940   68.3201 O   0  0  0  0  0  0  0  0  0  0  0  0
   11.5160   84.4036   69.1116 O   0  0  0  0  0  0  0  0  0  0  0  0
   13.9143   84.3262   70.2206 C   0  0  0  0  0  0  0  0  0  0  0  0
   15.2370   84.6696   70.2054 C   0  0  0  0  0  3  0  0  0  0  0  0
   13.5225   83.1211   70.8033 C   0  0  0  0  0  3  0  0  0  0  0  0
   16.1369   83.7897   70.7782 C   0  0  0  0  0  3  0  0  0  0  0  0
   14.4271   82.2677   71.3626 C   0  0  0  0  0  3  0  0  0  0  0  0
   15.7766   82.6033   71.3543 C   0  0  0  0  0  0  0  0  0  0  0  0
   16.6385   81.7288   71.9193 F   0  0  0  0  0  0  0  0  0  0  0  0
   12.7158   86.8112   73.3044 N   0  0  0  0  0  0  0  0  0  0  0  0
   13.1433   86.8675   74.6907 C   0  0  0  0  0  2  0  0  0  0  0  0
   14.6016   86.4597   74.6908 C   0  0  0  0  0  3  0  0  0  0  0  0
   15.1747   86.4602   76.0913 C   0  0  0  0  0  2  0  0  0  0  0  0
   14.8604   85.1847   73.9540 C   0  0  0  0  0  2  0  0  0  0  0  0
   14.7106   85.2221   76.8535 C   0  0  0  0  0  2  0  0  0  0  0  0
   14.7128   83.9453   74.7936 C   0  0  0  0  0  2  0  0  0  0  0  0
   15.3697   84.0527   76.1521 C   0  0  0  0  0  2  0  0  0  0  0  0
  1 11  1  0
  1 10  1  0
  2  1  2  0
  3  2  1  0
  3  8  2  0
  4  3  1  0
  5  4  2  0
  5  6  1  0
  6  7  2  0
  7  8  1  0
  8  9  1  0
  9 10  2  0
 10 24  1  0
 11 12  1  0
 14 11  1  1
 13 12  3  0
 14 16  2  0
 14 17  1  0
 15 14  2  0
 17 19  1  0
 18 17  2  0
 18 20  1  0
 19 21  2  0
 20 22  2  0
 22 21  1  0
 22 23  1  0
 24 25  1  0
 25 26  1  0
 26 27  1  0
 26 28  1  0
 27 29  1  0
 28 30  1  0
 29 31  1  0
 30 31  1  0
M  RAD  8   4   2   5   2   6   2   7   2  11   2  18   2  19   2  20   2
M  RAD  8  21   2  25   3  26   2  27   3  28   3  29   3  30   3  31   3
M  END
>  <REMARK>  (1) 
 SMILES N#CC(c1nc2ccccc2nc1NCC1CCCCC1)S(=O)(=O)c1ccc(F)cc1
 SMILES IDX 4 1 5 2 6 3 7 4 8 5 9 6 10 7 11 8 12 9 13 10 3 11 2 12 1 13
 SMILES IDX 22 14 23 15 24 16 25 17 26 18 31 19 27 20 30 21 28 22 29 23
 SMILES IDX 14 24 15 26 16 27 17 28 21 29 18 30 20 31 19 32
 H PARENT 14 25

>  <TORSDO>  (1) 
F 7

$$$$
