/home/pchatterjee/Documents/git/vs_workflow/DiffDock/diffdock_run/pdbqt_scrubbed/Z107740192.pdbqt
     RDKit          3D

 31 34  0  0  1  0  0  0  0  0999 V2000
    4.5512   44.7883   51.9867 C   0  0  0  0  0  0  0  0  0  0  0  0
    3.8602   43.6571   51.7638 N   0  0  0  0  0  0  0  0  0  0  0  0
    4.2718   42.8165   50.7800 C   0  0  0  0  0  0  0  0  0  0  0  0
    3.5972   41.6449   50.5198 C   0  0  0  0  0  3  0  0  0  0  0  0
    3.9701   40.7636   49.5460 C   0  0  0  0  0  3  0  0  0  0  0  0
    5.0927   41.0732   48.7812 C   0  0  0  0  0  3  0  0  0  0  0  0
    5.7779   42.2499   49.0353 C   0  0  0  0  0  3  0  0  0  0  0  0
    5.3857   43.1254   50.0218 C   0  0  0  0  0  0  0  0  0  0  0  0
    6.0624   44.2641   50.2627 N   0  0  0  0  0  0  0  0  0  0  0  0
    5.6802   45.1303   51.2401 C   0  0  0  0  0  0  0  0  0  0  0  0
    4.1666   45.7765   53.0434 C   0  0  0  0  0  3  0  0  0  0  0  0
    5.3664   45.9846   53.8567 C   0  0  0  0  0  0  0  0  0  0  0  0
    6.3236   46.1407   54.5117 N   0  0  0  0  0  0  0  0  0  0  0  0
    2.8330   45.1120   53.9673 S   0  0  2  0  0  0  0  0  0  0  0  0
    2.5097   46.0670   55.0927 O   0  0  0  0  0  0  0  0  0  0  0  0
    3.2329   43.7795   54.5507 O   0  0  0  0  0  0  0  0  0  0  0  0
    1.3728   44.8953   53.0397 C   0  0  0  0  0  0  0  0  0  0  0  0
    0.6765   45.9192   52.4615 C   0  0  0  0  0  3  0  0  0  0  0  0
    0.9113   43.5860   52.9043 C   0  0  0  0  0  3  0  0  0  0  0  0
   -0.4712   45.6009   51.7589 C   0  0  0  0  0  3  0  0  0  0  0  0
   -0.2235   43.2945   52.2068 C   0  0  0  0  0  3  0  0  0  0  0  0
   -0.9429   44.3260   51.6132 C   0  0  0  0  0  0  0  0  0  0  0  0
   -2.0614   43.9923   50.9316 F   0  0  0  0  0  0  0  0  0  0  0  0
    6.4004   46.3253   51.4971 N   0  0  0  0  0  0  0  0  0  0  0  0
    7.7829   46.4134   51.0624 C   0  0  0  0  0  2  0  0  0  0  0  0
    8.6156   45.9286   52.2305 C   0  0  0  0  0  3  0  0  0  0  0  0
   10.0579   45.7113   51.8274 C   0  0  0  0  0  2  0  0  0  0  0  0
    8.4720   46.7771   53.4531 C   0  0  0  0  0  2  0  0  0  0  0  0
   10.7842   47.0490   51.7178 C   0  0  0  0  0  2  0  0  0  0  0  0
    9.4200   47.9437   53.5101 C   0  0  0  0  0  2  0  0  0  0  0  0
   10.8410   47.5881   53.1321 C   0  0  0  0  0  2  0  0  0  0  0  0
  1 11  1  0
  1 10  1  0
  2  1  2  0
  3  2  1  0
  3  8  2  0
  4  3  1  0
  5  4  2  0
  5  6  1  0
  6  7  2  0
  7  8  1  0
  8  9  1  0
  9 10  2  0
 10 24  1  0
 11 12  1  0
 14 11  1  6
 13 12  3  0
 14 16  2  0
 14 17  1  0
 15 14  2  0
 17 19  1  0
 18 17  2  0
 18 20  1  0
 19 21  2  0
 20 22  2  0
 22 21  1  0
 22 23  1  0
 24 25  1  0
 25 26  1  0
 26 27  1  0
 26 28  1  0
 27 29  1  0
 28 30  1  0
 29 31  1  0
 30 31  1  0
M  RAD  8   4   2   5   2   6   2   7   2  11   2  18   2  19   2  20   2
M  RAD  8  21   2  25   3  26   2  27   3  28   3  29   3  30   3  31   3
M  END
>  <REMARK>  (1) 
 SMILES N#CC(c1nc2ccccc2nc1NCC1CCCCC1)S(=O)(=O)c1ccc(F)cc1
 SMILES IDX 4 1 5 2 6 3 7 4 8 5 9 6 10 7 11 8 12 9 13 10 3 11 2 12 1 13
 SMILES IDX 22 14 23 15 24 16 25 17 26 18 31 19 27 20 30 21 28 22 29 23
 SMILES IDX 14 24 15 26 16 27 17 28 21 29 18 30 20 31 19 32
 H PARENT 14 25

>  <TORSDO>  (1) 
F 7

$$$$
