/home/pchatterjee/Documents/git/vs_workflow/DiffDock/diffdock_run/pdbqt_scrubbed/Z107740192.pdbqt
     RDKit          3D

 31 34  0  0  1  0  0  0  0  0999 V2000
   11.3948   65.0727   82.5190 C   0  0  0  0  0  0  0  0  0  0  0  0
   12.3249   66.0025   82.2414 N   0  0  0  0  0  0  0  0  0  0  0  0
   11.9447   67.1518   81.6264 C   0  0  0  0  0  0  0  0  0  0  0  0
   12.8626   68.1334   81.3271 C   0  0  0  0  0  3  0  0  0  0  0  0
   12.5336   69.3078   80.7136 C   0  0  0  0  0  3  0  0  0  0  0  0
   11.1978   69.5159   80.3770 C   0  0  0  0  0  3  0  0  0  0  0  0
   10.2668   68.5341   80.6736 C   0  0  0  0  0  3  0  0  0  0  0  0
   10.6189   67.3566   81.2927 C   0  0  0  0  0  0  0  0  0  0  0  0
    9.7044   66.4113   81.5802 N   0  0  0  0  0  0  0  0  0  0  0  0
   10.0478   65.2475   82.1962 C   0  0  0  0  0  0  0  0  0  0  0  0
   11.7232   63.7739   83.1871 C   0  0  0  0  0  3  0  0  0  0  0  0
   10.7316   63.6059   84.2515 C   0  0  0  0  0  0  0  0  0  0  0  0
    9.9451   63.4628   85.1061 N   0  0  0  0  0  0  0  0  0  0  0  0
   13.3628   63.8635   83.8014 S   0  0  2  0  0  0  0  0  0  0  0  0
   13.3237   64.4903   85.1757 O   0  0  0  0  0  0  0  0  0  0  0  0
   14.2007   64.7253   82.8900 O   0  0  0  0  0  0  0  0  0  0  0  0
   14.1392   62.3111   83.9650 C   0  0  0  0  0  0  0  0  0  0  0  0
   14.7437   61.6474   82.9347 C   0  0  0  0  0  3  0  0  0  0  0  0
   14.1185   61.7369   85.2360 C   0  0  0  0  0  3  0  0  0  0  0  0
   15.3146   60.4180   83.2080 C   0  0  0  0  0  3  0  0  0  0  0  0
   14.6879   60.5229   85.4834 C   0  0  0  0  0  3  0  0  0  0  0  0
   15.3064   59.8354   84.4449 C   0  0  0  0  0  0  0  0  0  0  0  0
   15.8576   58.6357   84.7344 F   0  0  0  0  0  0  0  0  0  0  0  0
    9.0804   64.2570   82.5055 N   0  0  0  0  0  0  0  0  0  0  0  0
    7.7348   64.4089   81.9819 C   0  0  0  0  0  2  0  0  0  0  0  0
    6.8052   64.1581   83.1506 C   0  0  0  0  0  3  0  0  0  0  0  0
    5.4073   64.6600   82.8614 C   0  0  0  0  0  2  0  0  0  0  0  0
    6.8299   62.7435   83.6342 C   0  0  0  0  0  2  0  0  0  0  0  0
    4.6806   63.6946   81.9292 C   0  0  0  0  0  2  0  0  0  0  0  0
    5.8692   61.8307   82.9226 C   0  0  0  0  0  2  0  0  0  0  0  0
    4.4915   62.4275   82.7371 C   0  0  0  0  0  2  0  0  0  0  0  0
  1 11  1  0
  1 10  1  0
  2  1  2  0
  3  2  1  0
  3  8  2  0
  4  3  1  0
  5  4  2  0
  5  6  1  0
  6  7  2  0
  7  8  1  0
  8  9  1  0
  9 10  2  0
 10 24  1  0
 11 12  1  0
 14 11  1  6
 13 12  3  0
 14 16  2  0
 14 17  1  0
 15 14  2  0
 17 19  1  0
 18 17  2  0
 18 20  1  0
 19 21  2  0
 20 22  2  0
 22 21  1  0
 22 23  1  0
 24 25  1  0
 25 26  1  0
 26 27  1  0
 26 28  1  0
 27 29  1  0
 28 30  1  0
 29 31  1  0
 30 31  1  0
M  RAD  8   4   2   5   2   6   2   7   2  11   2  18   2  19   2  20   2
M  RAD  8  21   2  25   3  26   2  27   3  28   3  29   3  30   3  31   3
M  END
>  <REMARK>  (1) 
 SMILES N#CC(c1nc2ccccc2nc1NCC1CCCCC1)S(=O)(=O)c1ccc(F)cc1
 SMILES IDX 4 1 5 2 6 3 7 4 8 5 9 6 10 7 11 8 12 9 13 10 3 11 2 12 1 13
 SMILES IDX 22 14 23 15 24 16 25 17 26 18 31 19 27 20 30 21 28 22 29 23
 SMILES IDX 14 24 15 26 16 27 17 28 21 29 18 30 20 31 19 32
 H PARENT 14 25

>  <TORSDO>  (1) 
F 7

$$$$
