/home/pchatterjee/Documents/git/vs_workflow/DiffDock/diffdock_run/pdbqt_scrubbed/Z107740192.pdbqt
     RDKit          3D

 31 34  0  0  1  0  0  0  0  0999 V2000
    3.3401   43.5020   51.1608 C   0  0  0  0  0  0  0  0  0  0  0  0
    3.0130   42.4933   50.3348 N   0  0  0  0  0  0  0  0  0  0  0  0
    3.9411   42.0330   49.4571 C   0  0  0  0  0  0  0  0  0  0  0  0
    3.6513   40.9988   48.5957 C   0  0  0  0  0  3  0  0  0  0  0  0
    4.5477   40.4960   47.6970 C   0  0  0  0  0  3  0  0  0  0  0  0
    5.8192   41.0639   47.6566 C   0  0  0  0  0  3  0  0  0  0  0  0
    6.1202   42.1052   48.5191 C   0  0  0  0  0  3  0  0  0  0  0  0
    5.2022   42.5979   49.4179 C   0  0  0  0  0  0  0  0  0  0  0  0
    5.5078   43.6075   50.2546 N   0  0  0  0  0  0  0  0  0  0  0  0
    4.6041   44.0948   51.1479 C   0  0  0  0  0  0  0  0  0  0  0  0
    2.3799   44.0782   52.1543 C   0  0  0  0  0  3  0  0  0  0  0  0
    3.1718   44.3919   53.3454 C   0  0  0  0  0  0  0  0  0  0  0  0
    3.7967   44.6501   54.3006 N   0  0  0  0  0  0  0  0  0  0  0  0
    1.1282   42.8921   52.4703 S   0  0  2  0  0  0  0  0  0  0  0  0
    0.0784   43.5294   53.3506 O   0  0  0  0  0  0  0  0  0  0  0  0
    1.7215   41.7063   53.1897 O   0  0  0  0  0  0  0  0  0  0  0  0
    0.3199   42.3220   51.0346 C   0  0  0  0  0  0  0  0  0  0  0  0
   -0.4090   43.1218   50.2001 C   0  0  0  0  0  3  0  0  0  0  0  0
    0.4393   40.9611   50.7534 C   0  0  0  0  0  3  0  0  0  0  0  0
   -1.0026   42.5320   49.0993 C   0  0  0  0  0  3  0  0  0  0  0  0
   -0.1547   40.3999   49.6618 C   0  0  0  0  0  3  0  0  0  0  0  0
   -0.8999   41.2011   48.8037 C   0  0  0  0  0  0  0  0  0  0  0  0
   -1.4713   40.6038   47.7342 F   0  0  0  0  0  0  0  0  0  0  0  0
    4.9319   45.1530   52.0341 N   0  0  0  0  0  0  0  0  0  0  0  0
    6.0905   45.9766   51.7384 C   0  0  0  0  0  2  0  0  0  0  0  0
    7.2894   45.1995   52.2402 C   0  0  0  0  0  3  0  0  0  0  0  0
    8.2793   44.9328   51.1273 C   0  0  0  0  0  2  0  0  0  0  0  0
    7.9220   45.8040   53.4526 C   0  0  0  0  0  2  0  0  0  0  0  0
    9.0821   46.1937   50.8195 C   0  0  0  0  0  2  0  0  0  0  0  0
    8.9651   46.8449   53.1510 C   0  0  0  0  0  2  0  0  0  0  0  0
    9.9246   46.4403   52.0537 C   0  0  0  0  0  2  0  0  0  0  0  0
  1 11  1  0
  1 10  1  0
  2  1  2  0
  3  2  1  0
  3  8  2  0
  4  3  1  0
  5  4  2  0
  5  6  1  0
  6  7  2  0
  7  8  1  0
  8  9  1  0
  9 10  2  0
 10 24  1  0
 11 12  1  0
 14 11  1  6
 13 12  3  0
 14 16  2  0
 14 17  1  0
 15 14  2  0
 17 19  1  0
 18 17  2  0
 18 20  1  0
 19 21  2  0
 20 22  2  0
 22 21  1  0
 22 23  1  0
 24 25  1  0
 25 26  1  0
 26 27  1  0
 26 28  1  0
 27 29  1  0
 28 30  1  0
 29 31  1  0
 30 31  1  0
M  RAD  8   4   2   5   2   6   2   7   2  11   2  18   2  19   2  20   2
M  RAD  8  21   2  25   3  26   2  27   3  28   3  29   3  30   3  31   3
M  END
>  <REMARK>  (1) 
 SMILES N#CC(c1nc2ccccc2nc1NCC1CCCCC1)S(=O)(=O)c1ccc(F)cc1
 SMILES IDX 4 1 5 2 6 3 7 4 8 5 9 6 10 7 11 8 12 9 13 10 3 11 2 12 1 13
 SMILES IDX 22 14 23 15 24 16 25 17 26 18 31 19 27 20 30 21 28 22 29 23
 SMILES IDX 14 24 15 26 16 27 17 28 21 29 18 30 20 31 19 32
 H PARENT 14 25

>  <TORSDO>  (1) 
F 7

$$$$
