/home/pchatterjee/Documents/git/vs_workflow/DiffDock/diffdock_run/pdbqt_scrubbed/46927371.pdbqt
     RDKit          3D

 30 34  0  0  1  0  0  0  0  0999 V2000
    7.6983   43.5482   49.7840 C   0  0  0  0  0  0  0  0  0  0  0  0
    6.7445   44.2015   50.6148 N   0  0  0  0  0  0  0  0  0  0  0  0
    7.0833   45.1835   51.4295 C   0  0  0  0  0  0  0  0  0  0  0  0
    8.4368   45.5904   51.4846 C   0  0  0  0  0  3  0  0  0  0  0  0
    8.8678   46.9217   51.6232 N   0  0  0  0  0  0  0  0  0  0  0  0
   10.3317   46.6715   51.7805 C   0  0  0  0  0  2  0  0  0  0  0  0
   10.5259   45.6009   50.7834 N   0  0  0  0  0  0  0  0  0  0  0  0
    9.4211   44.9627   50.6005 C   0  0  0  0  0  0  0  0  0  0  0  0
    8.9614   43.8915   49.7697 N   0  0  0  0  0  0  0  0  0  0  0  0
    7.2234   42.4916   48.9559 N   0  0  0  0  0  0  0  0  0  0  0  0
    5.8654   42.0739   49.0466 C   0  0  0  0  0  0  0  0  0  0  0  0
    5.2166   41.5828   47.9321 C   0  0  0  0  0  0  0  0  0  0  0  0
    3.9018   41.1663   47.9716 C   0  0  0  0  0  3  0  0  0  0  0  0
    3.1978   41.2399   49.1707 C   0  0  0  0  0  0  0  0  0  0  0  0
    5.1522   42.1426   50.2378 C   0  0  0  0  0  3  0  0  0  0  0  0
    3.8319   41.7338   50.3154 C   0  0  0  0  0  3  0  0  0  0  0  0
    5.9183   41.4790   46.6161 C   0  0  0  0  0  1  0  0  0  0  0  0
    1.8373   40.8202   49.2562 N   0  0  0  0  0  0  0  0  0  0  0  0
    1.2182   40.7336   50.5801 C   0  0  0  0  0  2  0  0  0  0  0  0
    1.0470   40.4774   48.0879 C   0  0  0  0  0  2  0  0  0  0  0  0
   -0.1375   41.3733   50.6043 C   0  0  0  0  0  2  0  0  0  0  0  0
   -0.3828   40.2878   48.5969 C   0  0  0  0  0  2  0  0  0  0  0  0
   -0.7242   41.4182   49.3351 O   0  0  0  0  0  0  0  0  0  0  0  0
    6.0988   45.7644   52.1873 O   0  0  0  0  0  0  0  0  0  0  0  0
    4.7582   45.2527   52.1219 C   0  0  0  0  0  3  0  0  0  0  0  0
    4.3960   44.9863   53.5883 C   0  0  0  0  0  2  0  0  0  0  0  0
    3.8397   46.3022   51.5907 C   0  0  0  0  0  2  0  0  0  0  0  0
    3.0718   44.2791   53.6575 C   0  0  0  0  0  2  0  0  0  0  0  0
    2.4163   46.0517   52.0372 C   0  0  0  0  0  2  0  0  0  0  0  0
    2.2296   44.6069   52.4377 C   0  0  0  0  0  2  0  0  0  0  0  0
  1  9  2  0
  1 10  1  0
  2  1  1  0
  3  2  2  0
  4  3  1  0
  4  8  1  0
  5  6  1  0
  5  4  1  0
  6  7  1  0
  7  8  2  0
  8  9  1  0
 10 11  1  0
 11 12  2  0
 12 13  1  0
 12 17  1  0
 14 18  1  0
 14 13  2  0
 15 16  2  0
 15 11  1  0
 16 14  1  0
 19 18  1  0
 20 22  1  0
 20 18  1  0
 21 23  1  0
 21 19  1  0
 23 22  1  0
 24  3  1  0
 25 24  1  0
 26 25  1  0
 27 25  1  0
 28 26  1  0
 29 27  1  0
 30 28  1  0
 30 29  1  0
M  RAD  8   4   2   6   3  13   2  15   2  16   2  17   2  19   3  20   3
M  RAD  8  21   3  22   3  25   2  26   3  27   3  28   3  29   3  30   3
M  END
>  <REMARK>  (1) 
 SMILES Cc1cc(N2CCOCC2)ccc1Nc1nc(OC2CCCCC2)c2[nH]cnc2n1
 SMILES IDX 15 1 16 2 17 3 25 4 26 5 27 6 28 7 29 8 30 9 14 11 13 13
 SMILES IDX 2 14 3 15 4 16 12 17 11 18 1 19 5 20 6 21 10 22 7 23 9 24
 SMILES IDX 8 25 18 26 19 27 20 28 24 29 21 30 23 31 22 32
 H PARENT 26 10 14 12

>  <TORSDO>  (1) 
F 5

$$$$
