/home/pchatterjee/Documents/git/vs_workflow/DiffDock/diffdock_run/pdbqt_scrubbed/46927371.pdbqt
     RDKit          3D

 30 34  0  0  1  0  0  0  0  0999 V2000
    7.6218   43.7946   49.8293 C   0  0  0  0  0  0  0  0  0  0  0  0
    6.6581   44.6372   50.4520 N   0  0  0  0  0  0  0  0  0  0  0  0
    7.0039   45.7313   51.1049 C   0  0  0  0  0  0  0  0  0  0  0  0
    8.3742   46.0692   51.1960 C   0  0  0  0  0  3  0  0  0  0  0  0
    8.8822   47.3789   51.1312 N   0  0  0  0  0  0  0  0  0  0  0  0
   10.3117   47.0842   51.4476 C   0  0  0  0  0  2  0  0  0  0  0  0
   10.5031   45.8418   50.6743 N   0  0  0  0  0  0  0  0  0  0  0  0
    9.3738   45.2404   50.5188 C   0  0  0  0  0  0  0  0  0  0  0  0
    8.9029   44.0622   49.8562 N   0  0  0  0  0  0  0  0  0  0  0  0
    7.1364   42.6319   49.1655 N   0  0  0  0  0  0  0  0  0  0  0  0
    5.7617   42.2770   49.2690 C   0  0  0  0  0  0  0  0  0  0  0  0
    5.1568   41.5512   48.2633 C   0  0  0  0  0  0  0  0  0  0  0  0
    3.8278   41.1844   48.3195 C   0  0  0  0  0  3  0  0  0  0  0  0
    3.0634   41.5539   49.4230 C   0  0  0  0  0  0  0  0  0  0  0  0
    4.9883   42.6401   50.3656 C   0  0  0  0  0  3  0  0  0  0  0  0
    3.6521   42.2900   50.4565 C   0  0  0  0  0  3  0  0  0  0  0  0
    5.9241   41.1248   47.0532 C   0  0  0  0  0  1  0  0  0  0  0  0
    1.6863   41.1959   49.5219 N   0  0  0  0  0  0  0  0  0  0  0  0
    1.0297   41.3106   50.8253 C   0  0  0  0  0  2  0  0  0  0  0  0
    0.9146   40.7246   48.3863 C   0  0  0  0  0  2  0  0  0  0  0  0
   -0.3011   41.9932   50.7210 C   0  0  0  0  0  2  0  0  0  0  0  0
   -0.5341   40.6542   48.8713 C   0  0  0  0  0  2  0  0  0  0  0  0
   -0.8521   41.8852   49.4396 O   0  0  0  0  0  0  0  0  0  0  0  0
    6.0098   46.4913   51.6663 O   0  0  0  0  0  0  0  0  0  0  0  0
    4.8515   45.8473   52.2204 C   0  0  0  0  0  3  0  0  0  0  0  0
    4.0540   45.4042   50.9874 C   0  0  0  0  0  2  0  0  0  0  0  0
    5.2624   44.6305   52.9807 C   0  0  0  0  0  2  0  0  0  0  0  0
    2.7198   44.8647   51.4202 C   0  0  0  0  0  2  0  0  0  0  0  0
    4.1238   43.6386   53.0703 C   0  0  0  0  0  2  0  0  0  0  0  0
    2.7985   44.3256   52.8373 C   0  0  0  0  0  2  0  0  0  0  0  0
  1  9  2  0
  1 10  1  0
  2  1  1  0
  3  2  2  0
  4  3  1  0
  4  8  1  0
  5  6  1  0
  5  4  1  0
  6  7  1  0
  7  8  2  0
  8  9  1  0
 10 11  1  0
 11 12  2  0
 12 13  1  0
 12 17  1  0
 14 18  1  0
 14 13  2  0
 15 16  2  0
 15 11  1  0
 16 14  1  0
 19 18  1  0
 20 22  1  0
 20 18  1  0
 21 23  1  0
 21 19  1  0
 23 22  1  0
 24  3  1  0
 25 24  1  0
 26 25  1  0
 27 25  1  0
 28 26  1  0
 29 27  1  0
 30 28  1  0
 30 29  1  0
M  RAD  8   4   2   6   3  13   2  15   2  16   2  17   2  19   3  20   3
M  RAD  8  21   3  22   3  25   2  26   3  27   3  28   3  29   3  30   3
M  END
>  <REMARK>  (1) 
 SMILES Cc1cc(N2CCOCC2)ccc1Nc1nc(OC2CCCCC2)c2[nH]cnc2n1
 SMILES IDX 15 1 16 2 17 3 25 4 26 5 27 6 28 7 29 8 30 9 14 11 13 13
 SMILES IDX 2 14 3 15 4 16 12 17 11 18 1 19 5 20 6 21 10 22 7 23 9 24
 SMILES IDX 8 25 18 26 19 27 20 28 24 29 21 30 23 31 22 32
 H PARENT 26 10 14 12

>  <TORSDO>  (1) 
F 5

$$$$
