/home/pchatterjee/Documents/git/vs_workflow/DiffDock/diffdock_run/pdbqt_scrubbed/46927371.pdbqt
     RDKit          3D

 30 34  0  0  1  0  0  0  0  0999 V2000
    7.8049   43.3093   49.7358 C   0  0  0  0  0  0  0  0  0  0  0  0
    6.9078   44.0375   50.5674 N   0  0  0  0  0  0  0  0  0  0  0  0
    7.3280   44.9749   51.3966 C   0  0  0  0  0  0  0  0  0  0  0  0
    8.7125   45.2555   51.4667 C   0  0  0  0  0  3  0  0  0  0  0  0
    9.2622   46.5402   51.6248 N   0  0  0  0  0  0  0  0  0  0  0  0
   10.6957   46.1554   51.7898 C   0  0  0  0  0  2  0  0  0  0  0  0
   10.7996   45.0831   50.7810 N   0  0  0  0  0  0  0  0  0  0  0  0
    9.6427   44.5508   50.5822 C   0  0  0  0  0  0  0  0  0  0  0  0
    9.0942   43.5358   49.7350 N   0  0  0  0  0  0  0  0  0  0  0  0
    7.2424   42.3101   48.8912 N   0  0  0  0  0  0  0  0  0  0  0  0
    5.8537   42.0085   48.9758 C   0  0  0  0  0  0  0  0  0  0  0  0
    5.1741   41.5595   47.8618 C   0  0  0  0  0  0  0  0  0  0  0  0
    3.8288   41.2548   47.8955 C   0  0  0  0  0  3  0  0  0  0  0  0
    3.1248   41.4018   49.0879 C   0  0  0  0  0  0  0  0  0  0  0  0
    5.1402   42.1513   50.1602 C   0  0  0  0  0  3  0  0  0  0  0  0
    3.7898   41.8553   50.2318 C   0  0  0  0  0  3  0  0  0  0  0  0
    5.8740   41.3811   46.5529 C   0  0  0  0  0  1  0  0  0  0  0  0
    1.7335   41.0983   49.1672 N   0  0  0  0  0  0  0  0  0  0  0  0
    0.8008   41.8973   48.3702 C   0  0  0  0  0  2  0  0  0  0  0  0
    1.2090   40.0337   50.0030 C   0  0  0  0  0  2  0  0  0  0  0  0
   -0.1873   41.0376   47.6407 C   0  0  0  0  0  2  0  0  0  0  0  0
   -0.2723   39.9154   49.6412 C   0  0  0  0  0  2  0  0  0  0  0  0
   -0.3630   39.7939   48.2568 O   0  0  0  0  0  0  0  0  0  0  0  0
    6.3944   45.6346   52.1542 O   0  0  0  0  0  0  0  0  0  0  0  0
    5.0231   45.2082   52.1199 C   0  0  0  0  0  3  0  0  0  0  0  0
    4.6589   45.0268   53.5987 C   0  0  0  0  0  2  0  0  0  0  0  0
    4.1687   46.2919   51.5515 C   0  0  0  0  0  2  0  0  0  0  0  0
    3.2927   44.4100   53.7069 C   0  0  0  0  0  2  0  0  0  0  0  0
    2.7366   46.1525   52.0182 C   0  0  0  0  0  2  0  0  0  0  0  0
    2.4614   44.7407   52.4805 C   0  0  0  0  0  2  0  0  0  0  0  0
  1  9  2  0
  1 10  1  0
  2  1  1  0
  3  2  2  0
  4  3  1  0
  4  8  1  0
  5  6  1  0
  5  4  1  0
  6  7  1  0
  7  8  2  0
  8  9  1  0
 10 11  1  0
 11 12  2  0
 12 13  1  0
 12 17  1  0
 14 18  1  0
 14 13  2  0
 15 16  2  0
 15 11  1  0
 16 14  1  0
 19 18  1  0
 20 22  1  0
 20 18  1  0
 21 23  1  0
 21 19  1  0
 23 22  1  0
 24  3  1  0
 25 24  1  0
 26 25  1  0
 27 25  1  0
 28 26  1  0
 29 27  1  0
 30 28  1  0
 30 29  1  0
M  RAD  8   4   2   6   3  13   2  15   2  16   2  17   2  19   3  20   3
M  RAD  8  21   3  22   3  25   2  26   3  27   3  28   3  29   3  30   3
M  END
>  <REMARK>  (1) 
 SMILES Cc1cc(N2CCOCC2)ccc1Nc1nc(OC2CCCCC2)c2[nH]cnc2n1
 SMILES IDX 15 1 16 2 17 3 25 4 26 5 27 6 28 7 29 8 30 9 14 11 13 13
 SMILES IDX 2 14 3 15 4 16 12 17 11 18 1 19 5 20 6 21 10 22 7 23 9 24
 SMILES IDX 8 25 18 26 19 27 20 28 24 29 21 30 23 31 22 32
 H PARENT 26 10 14 12

>  <TORSDO>  (1) 
F 5

$$$$
