/home/pchatterjee/Documents/git/vs_workflow/DiffDock/diffdock_run/pdbqt_scrubbed/46927371.pdbqt
     RDKit          3D

 30 34  0  0  1  0  0  0  0  0999 V2000
    7.7034   43.5809   49.6248 C   0  0  0  0  0  0  0  0  0  0  0  0
    6.7710   44.2509   50.4665 N   0  0  0  0  0  0  0  0  0  0  0  0
    7.1381   45.2205   51.2837 C   0  0  0  0  0  0  0  0  0  0  0  0
    8.5007   45.5964   51.3305 C   0  0  0  0  0  3  0  0  0  0  0  0
    8.9627   46.9170   51.4729 N   0  0  0  0  0  0  0  0  0  0  0  0
   10.4218   46.6331   51.6175 C   0  0  0  0  0  2  0  0  0  0  0  0
   10.5841   45.5639   50.6131 N   0  0  0  0  0  0  0  0  0  0  0  0
    9.4638   44.9518   50.4354 C   0  0  0  0  0  0  0  0  0  0  0  0
    8.9738   43.8958   49.6025 N   0  0  0  0  0  0  0  0  0  0  0  0
    7.1984   42.5398   48.7947 N   0  0  0  0  0  0  0  0  0  0  0  0
    5.8474   42.1132   48.9335 C   0  0  0  0  0  0  0  0  0  0  0  0
    5.1937   41.5277   47.8685 C   0  0  0  0  0  0  0  0  0  0  0  0
    3.8852   41.0988   47.9557 C   0  0  0  0  0  3  0  0  0  0  0  0
    3.1928   41.2574   49.1534 C   0  0  0  0  0  0  0  0  0  0  0  0
    5.1458   42.2662   50.1238 C   0  0  0  0  0  3  0  0  0  0  0  0
    3.8321   41.8480   50.2484 C   0  0  0  0  0  3  0  0  0  0  0  0
    5.8829   41.3297   46.5568 C   0  0  0  0  0  1  0  0  0  0  0  0
    1.8392   40.8284   49.2872 N   0  0  0  0  0  0  0  0  0  0  0  0
    1.0434   41.3710   50.3898 C   0  0  0  0  0  2  0  0  0  0  0  0
    1.2232   39.8797   48.3775 C   0  0  0  0  0  2  0  0  0  0  0  0
   -0.3106   41.8221   49.9308 C   0  0  0  0  0  2  0  0  0  0  0  0
   -0.2608   39.8563   48.7468 C   0  0  0  0  0  2  0  0  0  0  0  0
   -0.7160   41.1723   48.7600 O   0  0  0  0  0  0  0  0  0  0  0  0
    6.1728   45.8192   52.0523 O   0  0  0  0  0  0  0  0  0  0  0  0
    4.8470   45.2672   52.0831 C   0  0  0  0  0  3  0  0  0  0  0  0
    4.5120   45.2021   53.5785 C   0  0  0  0  0  2  0  0  0  0  0  0
    3.8912   46.2053   51.4244 C   0  0  0  0  0  2  0  0  0  0  0  0
    3.2101   44.4763   53.7699 C   0  0  0  0  0  2  0  0  0  0  0  0
    2.4817   45.9823   51.9263 C   0  0  0  0  0  2  0  0  0  0  0  0
    2.3427   44.6046   52.5306 C   0  0  0  0  0  2  0  0  0  0  0  0
  1  9  2  0
  1 10  1  0
  2  1  1  0
  3  2  2  0
  4  3  1  0
  4  8  1  0
  5  6  1  0
  5  4  1  0
  6  7  1  0
  7  8  2  0
  8  9  1  0
 10 11  1  0
 11 12  2  0
 12 13  1  0
 12 17  1  0
 14 18  1  0
 14 13  2  0
 15 16  2  0
 15 11  1  0
 16 14  1  0
 19 18  1  0
 20 22  1  0
 20 18  1  0
 21 23  1  0
 21 19  1  0
 23 22  1  0
 24  3  1  0
 25 24  1  0
 26 25  1  0
 27 25  1  0
 28 26  1  0
 29 27  1  0
 30 28  1  0
 30 29  1  0
M  RAD  8   4   2   6   3  13   2  15   2  16   2  17   2  19   3  20   3
M  RAD  8  21   3  22   3  25   2  26   3  27   3  28   3  29   3  30   3
M  END
>  <REMARK>  (1) 
 SMILES Cc1cc(N2CCOCC2)ccc1Nc1nc(OC2CCCCC2)c2[nH]cnc2n1
 SMILES IDX 15 1 16 2 17 3 25 4 26 5 27 6 28 7 29 8 30 9 14 11 13 13
 SMILES IDX 2 14 3 15 4 16 12 17 11 18 1 19 5 20 6 21 10 22 7 23 9 24
 SMILES IDX 8 25 18 26 19 27 20 28 24 29 21 30 23 31 22 32
 H PARENT 26 10 14 12

>  <TORSDO>  (1) 
F 5

$$$$
