/home/pchatterjee/Documents/git/vs_workflow/DiffDock/diffdock_run/pdbqt_scrubbed/46927371.pdbqt
     RDKit          3D

 30 34  0  0  1  0  0  0  0  0999 V2000
    7.7217   43.6541   49.9618 C   0  0  0  0  0  0  0  0  0  0  0  0
    6.7780   44.4507   50.6699 N   0  0  0  0  0  0  0  0  0  0  0  0
    7.1490   45.4662   51.4273 C   0  0  0  0  0  0  0  0  0  0  0  0
    8.5265   45.7639   51.5457 C   0  0  0  0  0  3  0  0  0  0  0  0
    9.0627   47.0623   51.6101 N   0  0  0  0  0  0  0  0  0  0  0  0
   10.4862   46.7069   51.8890 C   0  0  0  0  0  2  0  0  0  0  0  0
   10.6489   45.5443   50.9945 N   0  0  0  0  0  0  0  0  0  0  0  0
    9.5063   44.9859   50.7847 C   0  0  0  0  0  0  0  0  0  0  0  0
    9.0084   43.8902   50.0097 N   0  0  0  0  0  0  0  0  0  0  0  0
    7.2098   42.5744   49.1872 N   0  0  0  0  0  0  0  0  0  0  0  0
    5.8205   42.2665   49.2293 C   0  0  0  0  0  0  0  0  0  0  0  0
    5.2265   41.6029   48.1752 C   0  0  0  0  0  0  0  0  0  0  0  0
    3.8843   41.2832   48.1712 C   0  0  0  0  0  3  0  0  0  0  0  0
    3.0946   41.6374   49.2620 C   0  0  0  0  0  0  0  0  0  0  0  0
    5.0219   42.6148   50.3124 C   0  0  0  0  0  3  0  0  0  0  0  0
    3.6718   42.3107   50.3436 C   0  0  0  0  0  3  0  0  0  0  0  0
    6.0209   41.1959   46.9759 C   0  0  0  0  0  1  0  0  0  0  0  0
    1.7031   41.3266   49.2992 N   0  0  0  0  0  0  0  0  0  0  0  0
    0.9821   41.5142   50.5596 C   0  0  0  0  0  2  0  0  0  0  0  0
    0.9778   40.8341   48.1423 C   0  0  0  0  0  2  0  0  0  0  0  0
   -0.3178   42.2330   50.3565 C   0  0  0  0  0  2  0  0  0  0  0  0
   -0.4963   40.8283   48.5499 C   0  0  0  0  0  2  0  0  0  0  0  0
   -0.8031   42.0905   49.0521 O   0  0  0  0  0  0  0  0  0  0  0  0
    6.1729   46.1874   52.0663 O   0  0  0  0  0  0  0  0  0  0  0  0
    4.9324   45.5511   52.4122 C   0  0  0  0  0  3  0  0  0  0  0  0
    4.2888   45.2413   51.0548 C   0  0  0  0  0  2  0  0  0  0  0  0
    5.2017   44.2616   53.1137 C   0  0  0  0  0  2  0  0  0  0  0  0
    2.8931   44.7262   51.2673 C   0  0  0  0  0  2  0  0  0  0  0  0
    4.0302   43.3148   52.9739 C   0  0  0  0  0  2  0  0  0  0  0  0
    2.7692   44.0737   52.6324 C   0  0  0  0  0  2  0  0  0  0  0  0
  1  9  2  0
  1 10  1  0
  2  1  1  0
  3  2  2  0
  4  3  1  0
  4  8  1  0
  5  6  1  0
  5  4  1  0
  6  7  1  0
  7  8  2  0
  8  9  1  0
 10 11  1  0
 11 12  2  0
 12 13  1  0
 12 17  1  0
 14 18  1  0
 14 13  2  0
 15 16  2  0
 15 11  1  0
 16 14  1  0
 19 18  1  0
 20 22  1  0
 20 18  1  0
 21 23  1  0
 21 19  1  0
 23 22  1  0
 24  3  1  0
 25 24  1  0
 26 25  1  0
 27 25  1  0
 28 26  1  0
 29 27  1  0
 30 28  1  0
 30 29  1  0
M  RAD  8   4   2   6   3  13   2  15   2  16   2  17   2  19   3  20   3
M  RAD  8  21   3  22   3  25   2  26   3  27   3  28   3  29   3  30   3
M  END
>  <REMARK>  (1) 
 SMILES Cc1cc(N2CCOCC2)ccc1Nc1nc(OC2CCCCC2)c2[nH]cnc2n1
 SMILES IDX 15 1 16 2 17 3 25 4 26 5 27 6 28 7 29 8 30 9 14 11 13 13
 SMILES IDX 2 14 3 15 4 16 12 17 11 18 1 19 5 20 6 21 10 22 7 23 9 24
 SMILES IDX 8 25 18 26 19 27 20 28 24 29 21 30 23 31 22 32
 H PARENT 26 10 14 12

>  <TORSDO>  (1) 
F 5

$$$$
