/home/pchatterjee/Documents/git/vs_workflow/DiffDock/diffdock_run/pdbqt_scrubbed/46927371.pdbqt
     RDKit          3D

 30 34  0  0  1  0  0  0  0  0999 V2000
    7.7825   43.7230   49.9737 C   0  0  0  0  0  0  0  0  0  0  0  0
    6.7888   44.3703   50.7612 N   0  0  0  0  0  0  0  0  0  0  0  0
    7.0904   45.3280   51.6183 C   0  0  0  0  0  0  0  0  0  0  0  0
    8.4431   45.7140   51.7646 C   0  0  0  0  0  3  0  0  0  0  0  0
    8.8821   47.0354   51.9611 N   0  0  0  0  0  0  0  0  0  0  0  0
   10.3305   46.7606   52.2001 C   0  0  0  0  0  2  0  0  0  0  0  0
   10.5708   45.7110   51.1907 N   0  0  0  0  0  0  0  0  0  0  0  0
    9.4709   45.0931   50.9264 C   0  0  0  0  0  0  0  0  0  0  0  0
    9.0485   44.0484   50.0437 N   0  0  0  0  0  0  0  0  0  0  0  0
    7.3449   42.6930   49.0931 N   0  0  0  0  0  0  0  0  0  0  0  0
    5.9902   42.2569   49.1282 C   0  0  0  0  0  0  0  0  0  0  0  0
    5.4062   41.7212   47.9984 C   0  0  0  0  0  0  0  0  0  0  0  0
    4.0972   41.2853   47.9846 C   0  0  0  0  0  3  0  0  0  0  0  0
    3.3319   41.3848   49.1436 C   0  0  0  0  0  0  0  0  0  0  0  0
    5.2162   42.3510   50.2790 C   0  0  0  0  0  3  0  0  0  0  0  0
    3.8997   41.9240   50.3027 C   0  0  0  0  0  3  0  0  0  0  0  0
    6.1756   41.5878   46.7236 C   0  0  0  0  0  1  0  0  0  0  0  0
    1.9750   40.9464   49.1735 N   0  0  0  0  0  0  0  0  0  0  0  0
    1.4510   40.3908   50.4226 C   0  0  0  0  0  2  0  0  0  0  0  0
    1.0980   41.0293   48.0199 C   0  0  0  0  0  2  0  0  0  0  0  0
    0.1103   40.9652   50.7691 C   0  0  0  0  0  2  0  0  0  0  0  0
   -0.2943   40.6559   48.5310 C   0  0  0  0  0  2  0  0  0  0  0  0
   -0.5652   41.4487   49.6434 O   0  0  0  0  0  0  0  0  0  0  0  0
    6.0694   45.9051   52.3294 O   0  0  0  0  0  0  0  0  0  0  0  0
    4.7414   45.3671   52.2277 C   0  0  0  0  0  3  0  0  0  0  0  0
    4.3437   45.0959   53.6840 C   0  0  0  0  0  2  0  0  0  0  0  0
    3.8178   46.3976   51.6689 C   0  0  0  0  0  2  0  0  0  0  0  0
    3.0321   44.3630   53.7177 C   0  0  0  0  0  2  0  0  0  0  0  0
    2.3876   46.1199   52.0760 C   0  0  0  0  0  2  0  0  0  0  0  0
    2.2181   44.6724   52.4742 C   0  0  0  0  0  2  0  0  0  0  0  0
  1  9  2  0
  1 10  1  0
  2  1  1  0
  3  2  2  0
  4  3  1  0
  4  8  1  0
  5  6  1  0
  5  4  1  0
  6  7  1  0
  7  8  2  0
  8  9  1  0
 10 11  1  0
 11 12  2  0
 12 13  1  0
 12 17  1  0
 14 18  1  0
 14 13  2  0
 15 16  2  0
 15 11  1  0
 16 14  1  0
 19 18  1  0
 20 22  1  0
 20 18  1  0
 21 23  1  0
 21 19  1  0
 23 22  1  0
 24  3  1  0
 25 24  1  0
 26 25  1  0
 27 25  1  0
 28 26  1  0
 29 27  1  0
 30 28  1  0
 30 29  1  0
M  RAD  8   4   2   6   3  13   2  15   2  16   2  17   2  19   3  20   3
M  RAD  8  21   3  22   3  25   2  26   3  27   3  28   3  29   3  30   3
M  END
>  <REMARK>  (1) 
 SMILES Cc1cc(N2CCOCC2)ccc1Nc1nc(OC2CCCCC2)c2[nH]cnc2n1
 SMILES IDX 15 1 16 2 17 3 25 4 26 5 27 6 28 7 29 8 30 9 14 11 13 13
 SMILES IDX 2 14 3 15 4 16 12 17 11 18 1 19 5 20 6 21 10 22 7 23 9 24
 SMILES IDX 8 25 18 26 19 27 20 28 24 29 21 30 23 31 22 32
 H PARENT 26 10 14 12

>  <TORSDO>  (1) 
F 5

$$$$
