/home/pchatterjee/Documents/git/vs_workflow/DiffDock/diffdock_run/pdbqt_scrubbed/46927371.pdbqt
     RDKit          3D

 30 34  0  0  1  0  0  0  0  0999 V2000
    7.7780   43.6775   49.7632 C   0  0  0  0  0  0  0  0  0  0  0  0
    6.8169   44.3607   50.5609 N   0  0  0  0  0  0  0  0  0  0  0  0
    7.1380   45.4066   51.2996 C   0  0  0  0  0  0  0  0  0  0  0  0
    8.4796   45.8541   51.3052 C   0  0  0  0  0  3  0  0  0  0  0  0
    8.8737   47.2035   51.3437 N   0  0  0  0  0  0  0  0  0  0  0  0
   10.3462   47.0061   51.4955 C   0  0  0  0  0  2  0  0  0  0  0  0
   10.5579   45.8739   50.5727 N   0  0  0  0  0  0  0  0  0  0  0  0
    9.4698   45.1937   50.4521 C   0  0  0  0  0  0  0  0  0  0  0  0
    9.0303   44.0542   49.7054 N   0  0  0  0  0  0  0  0  0  0  0  0
    7.3228   42.5523   49.0184 N   0  0  0  0  0  0  0  0  0  0  0  0
    5.9377   42.2240   49.0033 C   0  0  0  0  0  0  0  0  0  0  0  0
    5.4116   41.4911   47.9591 C   0  0  0  0  0  0  0  0  0  0  0  0
    4.0762   41.1492   47.9012 C   0  0  0  0  0  3  0  0  0  0  0  0
    3.2229   41.5521   48.9252 C   0  0  0  0  0  0  0  0  0  0  0  0
    5.0761   42.6205   50.0196 C   0  0  0  0  0  3  0  0  0  0  0  0
    3.7306   42.2960   49.9954 C   0  0  0  0  0  3  0  0  0  0  0  0
    6.2761   41.0293   46.8302 C   0  0  0  0  0  1  0  0  0  0  0  0
    1.8359   41.2206   48.9053 N   0  0  0  0  0  0  0  0  0  0  0  0
    1.2106   40.7699   50.1500 C   0  0  0  0  0  2  0  0  0  0  0  0
    1.0244   41.3121   47.7053 C   0  0  0  0  0  2  0  0  0  0  0  0
   -0.0959   41.4616   50.3998 C   0  0  0  0  0  2  0  0  0  0  0  0
   -0.4159   41.0721   48.1606 C   0  0  0  0  0  2  0  0  0  0  0  0
   -0.6765   41.9381   49.2196 O   0  0  0  0  0  0  0  0  0  0  0  0
    6.1473   46.0116   52.0300 O   0  0  0  0  0  0  0  0  0  0  0  0
    4.8582   45.3862   52.1316 C   0  0  0  0  0  3  0  0  0  0  0  0
    4.6124   45.2974   53.6430 C   0  0  0  0  0  2  0  0  0  0  0  0
    3.8160   46.2717   51.5339 C   0  0  0  0  0  2  0  0  0  0  0  0
    3.3657   44.4992   53.9025 C   0  0  0  0  0  2  0  0  0  0  0  0
    2.4517   45.9684   52.1127 C   0  0  0  0  0  2  0  0  0  0  0  0
    2.4239   44.5830   52.7148 C   0  0  0  0  0  2  0  0  0  0  0  0
  1  9  2  0
  1 10  1  0
  2  1  1  0
  3  2  2  0
  4  3  1  0
  4  8  1  0
  5  6  1  0
  5  4  1  0
  6  7  1  0
  7  8  2  0
  8  9  1  0
 10 11  1  0
 11 12  2  0
 12 13  1  0
 12 17  1  0
 14 18  1  0
 14 13  2  0
 15 16  2  0
 15 11  1  0
 16 14  1  0
 19 18  1  0
 20 22  1  0
 20 18  1  0
 21 23  1  0
 21 19  1  0
 23 22  1  0
 24  3  1  0
 25 24  1  0
 26 25  1  0
 27 25  1  0
 28 26  1  0
 29 27  1  0
 30 28  1  0
 30 29  1  0
M  RAD  8   4   2   6   3  13   2  15   2  16   2  17   2  19   3  20   3
M  RAD  8  21   3  22   3  25   2  26   3  27   3  28   3  29   3  30   3
M  END
>  <REMARK>  (1) 
 SMILES Cc1cc(N2CCOCC2)ccc1Nc1nc(OC2CCCCC2)c2[nH]cnc2n1
 SMILES IDX 15 1 16 2 17 3 25 4 26 5 27 6 28 7 29 8 30 9 14 11 13 13
 SMILES IDX 2 14 3 15 4 16 12 17 11 18 1 19 5 20 6 21 10 22 7 23 9 24
 SMILES IDX 8 25 18 26 19 27 20 28 24 29 21 30 23 31 22 32
 H PARENT 26 10 14 12

>  <TORSDO>  (1) 
F 5

$$$$
