/home/pchatterjee/Documents/git/vs_workflow/DiffDock/diffdock_run/pdbqt_scrubbed/46927371.pdbqt
     RDKit          3D

 30 34  0  0  1  0  0  0  0  0999 V2000
    7.7300   43.4637   50.1700 C   0  0  0  0  0  0  0  0  0  0  0  0
    6.8058   44.3145   50.8397 N   0  0  0  0  0  0  0  0  0  0  0  0
    7.2005   45.3609   51.5411 C   0  0  0  0  0  0  0  0  0  0  0  0
    8.5842   45.6375   51.6373 C   0  0  0  0  0  3  0  0  0  0  0  0
    9.1455   46.9268   51.6309 N   0  0  0  0  0  0  0  0  0  0  0  0
   10.5635   46.5589   51.9215 C   0  0  0  0  0  2  0  0  0  0  0  0
   10.6987   45.3481   51.0885 N   0  0  0  0  0  0  0  0  0  0  0  0
    9.5445   44.8018   50.9136 C   0  0  0  0  0  0  0  0  0  0  0  0
    9.0213   43.6769   50.1994 N   0  0  0  0  0  0  0  0  0  0  0  0
    7.1930   42.3551   49.4555 N   0  0  0  0  0  0  0  0  0  0  0  0
    5.7887   42.1219   49.4577 C   0  0  0  0  0  0  0  0  0  0  0  0
    5.1506   41.7294   48.2987 C   0  0  0  0  0  0  0  0  0  0  0  0
    3.7922   41.4920   48.2525 C   0  0  0  0  0  3  0  0  0  0  0  0
    3.0313   41.6508   49.4078 C   0  0  0  0  0  0  0  0  0  0  0  0
    5.0185   42.2771   50.6045 C   0  0  0  0  0  3  0  0  0  0  0  0
    3.6534   42.0479   50.5960 C   0  0  0  0  0  3  0  0  0  0  0  0
    5.9124   41.5418   47.0262 C   0  0  0  0  0  1  0  0  0  0  0  0
    1.6245   41.4160   49.4046 N   0  0  0  0  0  0  0  0  0  0  0  0
    0.9868   40.9955   50.6536 C   0  0  0  0  0  2  0  0  0  0  0  0
    0.8048   41.5768   48.2175 C   0  0  0  0  0  2  0  0  0  0  0  0
   -0.2651   41.7728   50.9295 C   0  0  0  0  0  2  0  0  0  0  0  0
   -0.6421   41.4315   48.6912 C   0  0  0  0  0  2  0  0  0  0  0  0
   -0.8276   42.3015   49.7627 O   0  0  0  0  0  0  0  0  0  0  0  0
    6.2421   46.1334   52.1460 O   0  0  0  0  0  0  0  0  0  0  0  0
    4.9019   45.6321   52.2712 C   0  0  0  0  0  3  0  0  0  0  0  0
    4.4258   45.4929   50.8198 C   0  0  0  0  0  2  0  0  0  0  0  0
    4.9233   44.2761   52.8943 C   0  0  0  0  0  2  0  0  0  0  0  0
    2.9653   45.1393   50.8025 C   0  0  0  0  0  2  0  0  0  0  0  0
    3.6848   43.4907   52.5235 C   0  0  0  0  0  2  0  0  0  0  0  0
    2.5775   44.4187   52.0812 C   0  0  0  0  0  2  0  0  0  0  0  0
  1  9  2  0
  1 10  1  0
  2  1  1  0
  3  2  2  0
  4  3  1  0
  4  8  1  0
  5  6  1  0
  5  4  1  0
  6  7  1  0
  7  8  2  0
  8  9  1  0
 10 11  1  0
 11 12  2  0
 12 13  1  0
 12 17  1  0
 14 18  1  0
 14 13  2  0
 15 16  2  0
 15 11  1  0
 16 14  1  0
 19 18  1  0
 20 22  1  0
 20 18  1  0
 21 23  1  0
 21 19  1  0
 23 22  1  0
 24  3  1  0
 25 24  1  0
 26 25  1  0
 27 25  1  0
 28 26  1  0
 29 27  1  0
 30 28  1  0
 30 29  1  0
M  RAD  8   4   2   6   3  13   2  15   2  16   2  17   2  19   3  20   3
M  RAD  8  21   3  22   3  25   2  26   3  27   3  28   3  29   3  30   3
M  END
>  <REMARK>  (1) 
 SMILES Cc1cc(N2CCOCC2)ccc1Nc1nc(OC2CCCCC2)c2[nH]cnc2n1
 SMILES IDX 15 1 16 2 17 3 25 4 26 5 27 6 28 7 29 8 30 9 14 11 13 13
 SMILES IDX 2 14 3 15 4 16 12 17 11 18 1 19 5 20 6 21 10 22 7 23 9 24
 SMILES IDX 8 25 18 26 19 27 20 28 24 29 21 30 23 31 22 32
 H PARENT 26 10 14 12

>  <TORSDO>  (1) 
F 5

$$$$
