/home/pchatterjee/Documents/git/vs_workflow/DiffDock/diffdock_run/pdbqt_scrubbed/46927371.pdbqt
     RDKit          3D

 30 34  0  0  1  0  0  0  0  0999 V2000
    7.5896   43.6640   49.8610 C   0  0  0  0  0  0  0  0  0  0  0  0
    6.6860   44.5454   50.5192 N   0  0  0  0  0  0  0  0  0  0  0  0
    7.1065   45.5118   51.3141 C   0  0  0  0  0  0  0  0  0  0  0  0
    8.4962   45.6682   51.5250 C   0  0  0  0  0  3  0  0  0  0  0  0
    9.1541   46.9054   51.6432 N   0  0  0  0  0  0  0  0  0  0  0  0
   10.5137   46.4061   52.0074 C   0  0  0  0  0  2  0  0  0  0  0  0
   10.6174   45.2408   51.1076 N   0  0  0  0  0  0  0  0  0  0  0  0
    9.4409   44.8020   50.8166 C   0  0  0  0  0  0  0  0  0  0  0  0
    8.8876   43.7689   49.9947 N   0  0  0  0  0  0  0  0  0  0  0  0
    7.0239   42.6481   49.0389 N   0  0  0  0  0  0  0  0  0  0  0  0
    5.6460   42.3149   49.1689 C   0  0  0  0  0  0  0  0  0  0  0  0
    4.9513   41.8100   48.0887 C   0  0  0  0  0  0  0  0  0  0  0  0
    3.6156   41.4730   48.1669 C   0  0  0  0  0  3  0  0  0  0  0  0
    2.9373   41.6443   49.3709 C   0  0  0  0  0  0  0  0  0  0  0  0
    4.9581   42.4815   50.3653 C   0  0  0  0  0  3  0  0  0  0  0  0
    3.6180   42.1544   50.4812 C   0  0  0  0  0  3  0  0  0  0  0  0
    5.6235   41.6030   46.7695 C   0  0  0  0  0  1  0  0  0  0  0  0
    1.5567   41.3090   49.4958 N   0  0  0  0  0  0  0  0  0  0  0  0
    0.5676   42.3831   49.3880 C   0  0  0  0  0  2  0  0  0  0  0  0
    1.0965   39.9515   49.7245 C   0  0  0  0  0  2  0  0  0  0  0  0
   -0.5662   42.0079   48.4816 C   0  0  0  0  0  2  0  0  0  0  0  0
   -0.4262   40.0026   49.5896 C   0  0  0  0  0  2  0  0  0  0  0  0
   -0.7247   40.6217   48.3785 O   0  0  0  0  0  0  0  0  0  0  0  0
    6.1678   46.3221   51.9002 O   0  0  0  0  0  0  0  0  0  0  0  0
    4.8877   45.7791   52.2608 C   0  0  0  0  0  3  0  0  0  0  0  0
    4.3226   45.2604   50.9326 C   0  0  0  0  0  2  0  0  0  0  0  0
    5.0697   44.6197   53.1827 C   0  0  0  0  0  2  0  0  0  0  0  0
    2.9002   44.8179   51.1313 C   0  0  0  0  0  2  0  0  0  0  0  0
    3.8796   43.6880   53.1216 C   0  0  0  0  0  2  0  0  0  0  0  0
    2.6682   44.4057   52.5738 C   0  0  0  0  0  2  0  0  0  0  0  0
  1  9  2  0
  1 10  1  0
  2  1  1  0
  3  2  2  0
  4  3  1  0
  4  8  1  0
  5  6  1  0
  5  4  1  0
  6  7  1  0
  7  8  2  0
  8  9  1  0
 10 11  1  0
 11 12  2  0
 12 13  1  0
 12 17  1  0
 14 18  1  0
 14 13  2  0
 15 16  2  0
 15 11  1  0
 16 14  1  0
 19 18  1  0
 20 22  1  0
 20 18  1  0
 21 23  1  0
 21 19  1  0
 23 22  1  0
 24  3  1  0
 25 24  1  0
 26 25  1  0
 27 25  1  0
 28 26  1  0
 29 27  1  0
 30 28  1  0
 30 29  1  0
M  RAD  8   4   2   6   3  13   2  15   2  16   2  17   2  19   3  20   3
M  RAD  8  21   3  22   3  25   2  26   3  27   3  28   3  29   3  30   3
M  END
>  <REMARK>  (1) 
 SMILES Cc1cc(N2CCOCC2)ccc1Nc1nc(OC2CCCCC2)c2[nH]cnc2n1
 SMILES IDX 15 1 16 2 17 3 25 4 26 5 27 6 28 7 29 8 30 9 14 11 13 13
 SMILES IDX 2 14 3 15 4 16 12 17 11 18 1 19 5 20 6 21 10 22 7 23 9 24
 SMILES IDX 8 25 18 26 19 27 20 28 24 29 21 30 23 31 22 32
 H PARENT 26 10 14 12

>  <TORSDO>  (1) 
F 5

$$$$
