/home/pchatterjee/Documents/git/vs_workflow/DiffDock/diffdock_run/pdbqt_scrubbed/46927371.pdbqt
     RDKit          3D

 30 34  0  0  1  0  0  0  0  0999 V2000
    7.6953   43.4515   49.7693 C   0  0  0  0  0  0  0  0  0  0  0  0
    6.7604   44.0990   50.6256 N   0  0  0  0  0  0  0  0  0  0  0  0
    7.1088   45.1026   51.4093 C   0  0  0  0  0  0  0  0  0  0  0  0
    8.4540   45.5393   51.4042 C   0  0  0  0  0  3  0  0  0  0  0  0
    8.8605   46.8820   51.5028 N   0  0  0  0  0  0  0  0  0  0  0  0
   10.3346   46.6662   51.6066 C   0  0  0  0  0  2  0  0  0  0  0  0
   10.5134   45.5822   50.6211 N   0  0  0  0  0  0  0  0  0  0  0  0
    9.4168   44.9172   50.4929 C   0  0  0  0  0  0  0  0  0  0  0  0
    8.9490   43.8215   49.6994 N   0  0  0  0  0  0  0  0  0  0  0  0
    7.2120   42.3701   48.9787 N   0  0  0  0  0  0  0  0  0  0  0  0
    5.8240   42.0538   48.9810 C   0  0  0  0  0  0  0  0  0  0  0  0
    5.2596   41.4086   47.8996 C   0  0  0  0  0  0  0  0  0  0  0  0
    3.9198   41.0818   47.8566 C   0  0  0  0  0  3  0  0  0  0  0  0
    3.1018   41.4094   48.9348 C   0  0  0  0  0  0  0  0  0  0  0  0
    4.9974   42.3757   50.0513 C   0  0  0  0  0  3  0  0  0  0  0  0
    3.6488   42.0636   50.0435 C   0  0  0  0  0  3  0  0  0  0  0  0
    6.0850   41.0305   46.7119 C   0  0  0  0  0  1  0  0  0  0  0  0
    1.7117   41.0903   48.9320 N   0  0  0  0  0  0  0  0  0  0  0  0
    0.7697   42.0899   48.4252 C   0  0  0  0  0  2  0  0  0  0  0  0
    1.1974   39.8197   49.4096 C   0  0  0  0  0  2  0  0  0  0  0  0
   -0.2254   41.4887   47.4787 C   0  0  0  0  0  2  0  0  0  0  0  0
   -0.2877   39.8109   49.0439 C   0  0  0  0  0  2  0  0  0  0  0  0
   -0.3933   40.1158   47.6892 O   0  0  0  0  0  0  0  0  0  0  0  0
    6.1420   45.6758   52.1952 O   0  0  0  0  0  0  0  0  0  0  0  0
    4.8063   45.1477   52.1752 C   0  0  0  0  0  3  0  0  0  0  0  0
    4.5871   44.6516   53.6099 C   0  0  0  0  0  2  0  0  0  0  0  0
    3.8314   46.2435   51.8992 C   0  0  0  0  0  2  0  0  0  0  0  0
    3.2823   43.9102   53.6906 C   0  0  0  0  0  2  0  0  0  0  0  0
    2.4591   45.8932   52.4307 C   0  0  0  0  0  2  0  0  0  0  0  0
    2.3253   44.4001   52.6187 C   0  0  0  0  0  2  0  0  0  0  0  0
  1  9  2  0
  1 10  1  0
  2  1  1  0
  3  2  2  0
  4  3  1  0
  4  8  1  0
  5  6  1  0
  5  4  1  0
  6  7  1  0
  7  8  2  0
  8  9  1  0
 10 11  1  0
 11 12  2  0
 12 13  1  0
 12 17  1  0
 14 18  1  0
 14 13  2  0
 15 16  2  0
 15 11  1  0
 16 14  1  0
 19 18  1  0
 20 22  1  0
 20 18  1  0
 21 23  1  0
 21 19  1  0
 23 22  1  0
 24  3  1  0
 25 24  1  0
 26 25  1  0
 27 25  1  0
 28 26  1  0
 29 27  1  0
 30 28  1  0
 30 29  1  0
M  RAD  8   4   2   6   3  13   2  15   2  16   2  17   2  19   3  20   3
M  RAD  8  21   3  22   3  25   2  26   3  27   3  28   3  29   3  30   3
M  END
>  <REMARK>  (1) 
 SMILES Cc1cc(N2CCOCC2)ccc1Nc1nc(OC2CCCCC2)c2[nH]cnc2n1
 SMILES IDX 15 1 16 2 17 3 25 4 26 5 27 6 28 7 29 8 30 9 14 11 13 13
 SMILES IDX 2 14 3 15 4 16 12 17 11 18 1 19 5 20 6 21 10 22 7 23 9 24
 SMILES IDX 8 25 18 26 19 27 20 28 24 29 21 30 23 31 22 32
 H PARENT 26 10 14 12

>  <TORSDO>  (1) 
F 5

$$$$
