/home/pchatterjee/Documents/git/vs_workflow/DiffDock/diffdock_run/pdbqt_scrubbed/5329559.pdbqt
     RDKit          3D

 26 29  0  0  1  0  0  0  0  0999 V2000
    7.9135   43.6435   49.3616 C   0  0  0  0  0  0  0  0  0  0  0  0
    6.9200   44.3014   50.1473 N   0  0  0  0  0  0  0  0  0  0  0  0
    7.2416   45.2925   50.9441 C   0  0  0  0  0  0  0  0  0  0  0  0
    8.5678   45.7237   51.0304 C   0  0  0  0  0  3  0  0  0  0  0  0
    9.1717   46.4881   52.0112 N   0  0  0  0  0  0  0  0  0  0  0  0
   10.5821   46.6360   51.5385 C   0  0  0  0  0  2  0  0  0  0  0  0
   10.7109   45.5865   50.5727 N   0  0  0  0  0  0  0  0  0  0  0  0
    9.5892   45.0295   50.2472 C   0  0  0  0  0  0  0  0  0  0  0  0
    9.1697   43.9728   49.3929 N   0  0  0  0  0  0  0  0  0  0  0  0
    7.4798   42.5842   48.5166 N   0  0  0  0  0  0  0  0  0  0  0  0
    6.1180   42.1407   48.5304 C   0  0  0  0  0  0  0  0  0  0  0  0
    3.4498   41.2651   48.5253 C   0  0  0  0  0  0  0  0  0  0  0  0
    4.1819   41.2679   47.3717 C   0  0  0  0  0  3  0  0  0  0  0  0
    4.0375   41.7011   49.7091 C   0  0  0  0  0  0  0  0  0  0  0  0
    5.4945   41.6984   47.3733 C   0  0  0  0  0  3  0  0  0  0  0  0
    5.3619   42.1303   49.6855 C   0  0  0  0  0  3  0  0  0  0  0  0
    2.1626   40.8368   48.4939 F   0  0  0  0  0  0  0  0  0  0  0  0
    3.1138   41.7056   51.2036 Cl  0  0  0  0  0  0  0  0  0  0  0  0
    6.2121   45.8683   51.6740 O   0  0  0  0  0  0  0  0  0  0  0  0
    4.9054   45.4302   51.4744 C   0  0  0  0  0  2  0  0  0  0  0  0
    3.9273   45.7443   52.5325 C   0  0  0  0  0  3  0  0  0  0  0  0
    2.5357   45.9911   52.1555 C   0  0  0  0  0  2  0  0  0  0  0  0
    4.2497   45.3312   53.9073 C   0  0  0  0  0  2  0  0  0  0  0  0
    1.4912   45.5733   53.1293 C   0  0  0  0  0  2  0  0  0  0  0  0
    3.1198   44.6341   54.6295 C   0  0  0  0  0  2  0  0  0  0  0  0
    1.9462   45.6073   54.5697 C   0  0  0  0  0  2  0  0  0  0  0  0
  1 10  1  0
  1  9  2  0
  2  1  1  0
  3  2  2  0
  4  3  1  0
  4  5  1  0
  4  8  1  0
  5  6  1  0
  6  7  1  0
  8  9  1  0
  8  7  2  0
 11 16  2  0
 11 10  1  0
 12 14  2  0
 13 12  1  0
 13 15  2  0
 14 18  1  0
 14 16  1  0
 15 11  1  0
 17 12  1  0
 19  3  1  0
 20 19  1  0
 21 20  1  0
 22 21  1  0
 23 21  1  0
 24 22  1  0
 25 23  1  0
 26 24  1  0
 26 25  1  0
M  RAD  8   4   2   6   3  13   2  15   2  16   2  20   3  21   2  22   3
M  RAD  4  23   3  24   3  25   3  26   3
M  END
>  <REMARK>  (1) 
 SMILES Fc1ccc(Nc2nc(OCC3CCCCC3)c3[nH]cnc3n2)cc1Cl
 SMILES IDX 7 1 8 2 9 3 18 4 19 5 20 6 21 7 22 8 23 9 6 11 5 13 2 14
 SMILES IDX 3 15 25 16 4 17 24 18 1 19 26 20 10 21 11 22 12 23 13 24
 SMILES IDX 17 25 14 26 16 27 15 28
 H PARENT 19 10 6 12

>  <TORSDO>  (1) 
F 5

$$$$
