/home/pchatterjee/Documents/git/vs_workflow/DiffDock/diffdock_run/pdbqt_scrubbed/5329559.pdbqt
     RDKit          3D

 26 29  0  0  1  0  0  0  0  0999 V2000
    7.9900   43.3702   49.4525 C   0  0  0  0  0  0  0  0  0  0  0  0
    6.9774   43.9346   50.2850 N   0  0  0  0  0  0  0  0  0  0  0  0
    7.2538   44.9217   51.1034 C   0  0  0  0  0  0  0  0  0  0  0  0
    8.5494   45.4408   51.1672 C   0  0  0  0  0  3  0  0  0  0  0  0
    9.1281   46.2159   52.1547 N   0  0  0  0  0  0  0  0  0  0  0  0
   10.5108   46.4748   51.6488 C   0  0  0  0  0  2  0  0  0  0  0  0
   10.6826   45.4654   50.6475 N   0  0  0  0  0  0  0  0  0  0  0  0
    9.5925   44.8421   50.3352 C   0  0  0  0  0  0  0  0  0  0  0  0
    9.2212   43.7845   49.4599 N   0  0  0  0  0  0  0  0  0  0  0  0
    7.6052   42.3088   48.5868 N   0  0  0  0  0  0  0  0  0  0  0  0
    6.2514   41.8428   48.5486 C   0  0  0  0  0  0  0  0  0  0  0  0
    3.6006   40.9219   48.4420 C   0  0  0  0  0  0  0  0  0  0  0  0
    4.3912   40.8926   47.3281 C   0  0  0  0  0  3  0  0  0  0  0  0
    4.1197   41.4135   49.6360 C   0  0  0  0  0  0  0  0  0  0  0  0
    5.6953   41.3454   47.3795 C   0  0  0  0  0  3  0  0  0  0  0  0
    5.4369   41.8642   49.6631 C   0  0  0  0  0  3  0  0  0  0  0  0
    2.3234   40.4706   48.3619 F   0  0  0  0  0  0  0  0  0  0  0  0
    3.1200   41.4600   51.0801 Cl  0  0  0  0  0  0  0  0  0  0  0  0
    6.2091   45.4033   51.8787 O   0  0  0  0  0  0  0  0  0  0  0  0
    5.3038   44.5054   52.4385 C   0  0  0  0  0  2  0  0  0  0  0  0
    3.8709   44.8152   52.2781 C   0  0  0  0  0  3  0  0  0  0  0  0
    2.8880   43.9867   52.9760 C   0  0  0  0  0  2  0  0  0  0  0  0
    3.5083   46.1756   51.8509 C   0  0  0  0  0  2  0  0  0  0  0  0
    1.6424   44.6612   53.4314 C   0  0  0  0  0  2  0  0  0  0  0  0
    2.4027   46.8098   52.6631 C   0  0  0  0  0  2  0  0  0  0  0  0
    1.2318   45.8356   52.5741 C   0  0  0  0  0  2  0  0  0  0  0  0
  1 10  1  0
  1  9  2  0
  2  1  1  0
  3  2  2  0
  4  3  1  0
  4  5  1  0
  4  8  1  0
  5  6  1  0
  6  7  1  0
  8  9  1  0
  8  7  2  0
 11 16  2  0
 11 10  1  0
 12 14  2  0
 13 12  1  0
 13 15  2  0
 14 18  1  0
 14 16  1  0
 15 11  1  0
 17 12  1  0
 19  3  1  0
 20 19  1  0
 21 20  1  0
 22 21  1  0
 23 21  1  0
 24 22  1  0
 25 23  1  0
 26 24  1  0
 26 25  1  0
M  RAD  8   4   2   6   3  13   2  15   2  16   2  20   3  21   2  22   3
M  RAD  4  23   3  24   3  25   3  26   3
M  END
>  <REMARK>  (1) 
 SMILES Fc1ccc(Nc2nc(OCC3CCCCC3)c3[nH]cnc3n2)cc1Cl
 SMILES IDX 7 1 8 2 9 3 18 4 19 5 20 6 21 7 22 8 23 9 6 11 5 13 2 14
 SMILES IDX 3 15 25 16 4 17 24 18 1 19 26 20 10 21 11 22 12 23 13 24
 SMILES IDX 17 25 14 26 16 27 15 28
 H PARENT 19 10 6 12

>  <TORSDO>  (1) 
F 5

$$$$
