/home/pchatterjee/Documents/git/vs_workflow/DiffDock/diffdock_run/pdbqt_scrubbed/5329559.pdbqt
     RDKit          3D

 26 29  0  0  1  0  0  0  0  0999 V2000
    8.0296   43.3481   49.6071 C   0  0  0  0  0  0  0  0  0  0  0  0
    6.9694   43.9166   50.3752 N   0  0  0  0  0  0  0  0  0  0  0  0
    7.1820   44.9548   51.1482 C   0  0  0  0  0  0  0  0  0  0  0  0
    8.4552   45.5250   51.2259 C   0  0  0  0  0  3  0  0  0  0  0  0
    8.9716   46.3718   52.1888 N   0  0  0  0  0  0  0  0  0  0  0  0
   10.3605   46.6559   51.7147 C   0  0  0  0  0  2  0  0  0  0  0  0
   10.6027   45.6029   50.7747 N   0  0  0  0  0  0  0  0  0  0  0  0
    9.5470   44.9235   50.4612 C   0  0  0  0  0  0  0  0  0  0  0  0
    9.2442   43.8084   49.6321 N   0  0  0  0  0  0  0  0  0  0  0  0
    7.7131   42.2293   48.7873 N   0  0  0  0  0  0  0  0  0  0  0  0
    6.3583   41.7927   48.6271 C   0  0  0  0  0  0  0  0  0  0  0  0
    3.7096   40.9253   48.2832 C   0  0  0  0  0  0  0  0  0  0  0  0
    4.6380   40.7283   47.3003 C   0  0  0  0  0  3  0  0  0  0  0  0
    4.0866   41.5618   49.4620 C   0  0  0  0  0  0  0  0  0  0  0  0
    5.9412   41.1546   47.4686 C   0  0  0  0  0  3  0  0  0  0  0  0
    5.4059   41.9825   49.6083 C   0  0  0  0  0  3  0  0  0  0  0  0
    2.4370   40.4960   48.0903 F   0  0  0  0  0  0  0  0  0  0  0  0
    2.9085   41.8252   50.7386 Cl  0  0  0  0  0  0  0  0  0  0  0  0
    6.0948   45.4365   51.8625 O   0  0  0  0  0  0  0  0  0  0  0  0
    5.0793   44.5592   52.2346 C   0  0  0  0  0  2  0  0  0  0  0  0
    3.8255   45.1600   52.7264 C   0  0  0  0  0  3  0  0  0  0  0  0
    3.4444   46.4882   52.2464 C   0  0  0  0  0  2  0  0  0  0  0  0
    2.7981   44.2554   53.2654 C   0  0  0  0  0  2  0  0  0  0  0  0
    1.9883   46.7605   52.1071 C   0  0  0  0  0  2  0  0  0  0  0  0
    1.4032   44.5167   52.7458 C   0  0  0  0  0  2  0  0  0  0  0  0
    1.1233   45.9811   53.0701 C   0  0  0  0  0  2  0  0  0  0  0  0
  1 10  1  0
  1  9  2  0
  2  1  1  0
  3  2  2  0
  4  3  1  0
  4  5  1  0
  4  8  1  0
  5  6  1  0
  6  7  1  0
  8  9  1  0
  8  7  2  0
 11 16  2  0
 11 10  1  0
 12 14  2  0
 13 12  1  0
 13 15  2  0
 14 18  1  0
 14 16  1  0
 15 11  1  0
 17 12  1  0
 19  3  1  0
 20 19  1  0
 21 20  1  0
 22 21  1  0
 23 21  1  0
 24 22  1  0
 25 23  1  0
 26 24  1  0
 26 25  1  0
M  RAD  8   4   2   6   3  13   2  15   2  16   2  20   3  21   2  22   3
M  RAD  4  23   3  24   3  25   3  26   3
M  END
>  <REMARK>  (1) 
 SMILES Fc1ccc(Nc2nc(OCC3CCCCC3)c3[nH]cnc3n2)cc1Cl
 SMILES IDX 7 1 8 2 9 3 18 4 19 5 20 6 21 7 22 8 23 9 6 11 5 13 2 14
 SMILES IDX 3 15 25 16 4 17 24 18 1 19 26 20 10 21 11 22 12 23 13 24
 SMILES IDX 17 25 14 26 16 27 15 28
 H PARENT 19 10 6 12

>  <TORSDO>  (1) 
F 5

$$$$
