/home/pchatterjee/Documents/git/vs_workflow/DiffDock/diffdock_run/pdbqt_scrubbed/5329559.pdbqt
     RDKit          3D

 26 29  0  0  1  0  0  0  0  0999 V2000
   12.7307   86.4299   69.3084 C   0  0  0  0  0  0  0  0  0  0  0  0
   14.1389   86.2680   69.1409 N   0  0  0  0  0  0  0  0  0  0  0  0
   14.8099   87.0366   68.3166 C   0  0  0  0  0  0  0  0  0  0  0  0
   14.1525   88.0337   67.5917 C   0  0  0  0  0  3  0  0  0  0  0  0
   14.5739   88.7083   66.4611 N   0  0  0  0  0  0  0  0  0  0  0  0
   13.4593   89.6612   66.1708 C   0  0  0  0  0  2  0  0  0  0  0  0
   12.3648   89.1145   66.9152 N   0  0  0  0  0  0  0  0  0  0  0  0
   12.7051   88.1792   67.7420 C   0  0  0  0  0  0  0  0  0  0  0  0
   12.0417   87.3226   68.6633 N   0  0  0  0  0  0  0  0  0  0  0  0
   12.0797   85.5618   70.2285 N   0  0  0  0  0  0  0  0  0  0  0  0
   12.8008   84.5180   70.8935 C   0  0  0  0  0  0  0  0  0  0  0  0
   14.1882   82.4653   72.2155 C   0  0  0  0  0  0  0  0  0  0  0  0
   12.8940   82.7532   72.5456 C   0  0  0  0  0  3  0  0  0  0  0  0
   14.8180   83.1995   71.2149 C   0  0  0  0  0  0  0  0  0  0  0  0
   12.2107   83.7627   71.8958 C   0  0  0  0  0  3  0  0  0  0  0  0
   14.1087   84.2121   70.5744 C   0  0  0  0  0  3  0  0  0  0  0  0
   14.8345   81.4682   72.8707 F   0  0  0  0  0  0  0  0  0  0  0  0
   16.4818   82.8456   70.7751 Cl  0  0  0  0  0  0  0  0  0  0  0  0
   16.1735   86.8035   68.2133 O   0  0  0  0  0  0  0  0  0  0  0  0
   16.7709   85.8634   69.0491 C   0  0  0  0  0  2  0  0  0  0  0  0
   18.2366   85.7274   68.9603 C   0  0  0  0  0  3  0  0  0  0  0  0
   18.9135   84.7917   69.8580 C   0  0  0  0  0  2  0  0  0  0  0  0
   18.8875   86.1373   67.7062 C   0  0  0  0  0  2  0  0  0  0  0  0
   20.1293   84.1147   69.3310 C   0  0  0  0  0  2  0  0  0  0  0  0
   19.8885   85.1406   67.1689 C   0  0  0  0  0  2  0  0  0  0  0  0
   20.8856   84.9240   68.3033 C   0  0  0  0  0  2  0  0  0  0  0  0
  1 10  1  0
  1  9  2  0
  2  1  1  0
  3  2  2  0
  4  3  1  0
  4  5  1  0
  4  8  1  0
  5  6  1  0
  6  7  1  0
  8  9  1  0
  8  7  2  0
 11 16  2  0
 11 10  1  0
 12 14  2  0
 13 12  1  0
 13 15  2  0
 14 18  1  0
 14 16  1  0
 15 11  1  0
 17 12  1  0
 19  3  1  0
 20 19  1  0
 21 20  1  0
 22 21  1  0
 23 21  1  0
 24 22  1  0
 25 23  1  0
 26 24  1  0
 26 25  1  0
M  RAD  8   4   2   6   3  13   2  15   2  16   2  20   3  21   2  22   3
M  RAD  4  23   3  24   3  25   3  26   3
M  END
>  <REMARK>  (1) 
 SMILES Fc1ccc(Nc2nc(OCC3CCCCC3)c3[nH]cnc3n2)cc1Cl
 SMILES IDX 7 1 8 2 9 3 18 4 19 5 20 6 21 7 22 8 23 9 6 11 5 13 2 14
 SMILES IDX 3 15 25 16 4 17 24 18 1 19 26 20 10 21 11 22 12 23 13 24
 SMILES IDX 17 25 14 26 16 27 15 28
 H PARENT 19 10 6 12

>  <TORSDO>  (1) 
F 5

$$$$
