/home/pchatterjee/Documents/git/vs_workflow/DiffDock/diffdock_run/pdbqt_scrubbed/5329559.pdbqt
     RDKit          3D

 26 29  0  0  1  0  0  0  0  0999 V2000
    7.8770   43.6518   49.5216 C   0  0  0  0  0  0  0  0  0  0  0  0
    6.8787   44.2120   50.3740 N   0  0  0  0  0  0  0  0  0  0  0  0
    7.1583   45.2231   51.1616 C   0  0  0  0  0  0  0  0  0  0  0  0
    8.4430   45.7721   51.1722 C   0  0  0  0  0  3  0  0  0  0  0  0
    9.0350   46.5817   52.1235 N   0  0  0  0  0  0  0  0  0  0  0  0
   10.3945   46.8599   51.5678 C   0  0  0  0  0  2  0  0  0  0  0  0
   10.5575   45.8326   50.5834 N   0  0  0  0  0  0  0  0  0  0  0  0
    9.4726   45.1784   50.3201 C   0  0  0  0  0  0  0  0  0  0  0  0
    9.0980   44.0935   49.4803 N   0  0  0  0  0  0  0  0  0  0  0  0
    7.4893   42.5631   48.6919 N   0  0  0  0  0  0  0  0  0  0  0  0
    6.1370   42.0914   48.6789 C   0  0  0  0  0  0  0  0  0  0  0  0
    3.4837   41.1716   48.6857 C   0  0  0  0  0  0  0  0  0  0  0  0
    4.0785   41.5842   49.8444 C   0  0  0  0  0  3  0  0  0  0  0  0
    4.2044   41.2101   47.4958 C   0  0  0  0  0  0  0  0  0  0  0  0
    5.3837   42.0368   49.8420 C   0  0  0  0  0  3  0  0  0  0  0  0
    5.5184   41.6703   47.5187 C   0  0  0  0  0  3  0  0  0  0  0  0
    2.2003   40.7319   48.7181 F   0  0  0  0  0  0  0  0  0  0  0  0
    3.4584   40.6841   45.9946 Cl  0  0  0  0  0  0  0  0  0  0  0  0
    6.1281   45.6985   51.9596 O   0  0  0  0  0  0  0  0  0  0  0  0
    5.2894   44.7925   52.6038 C   0  0  0  0  0  2  0  0  0  0  0  0
    3.8483   44.8893   52.3062 C   0  0  0  0  0  3  0  0  0  0  0  0
    2.9145   44.0562   53.0637 C   0  0  0  0  0  2  0  0  0  0  0  0
    3.3661   46.1125   51.6461 C   0  0  0  0  0  2  0  0  0  0  0  0
    1.5657   44.6268   53.3266 C   0  0  0  0  0  2  0  0  0  0  0  0
    2.1314   46.7150   52.2758 C   0  0  0  0  0  2  0  0  0  0  0  0
    1.0930   45.5971   52.2692 C   0  0  0  0  0  2  0  0  0  0  0  0
  1 10  1  0
  1  9  2  0
  2  1  1  0
  3  2  2  0
  4  3  1  0
  4  5  1  0
  4  8  1  0
  5  6  1  0
  6  7  1  0
  8  9  1  0
  8  7  2  0
 11 16  2  0
 11 10  1  0
 12 14  2  0
 13 12  1  0
 13 15  2  0
 14 18  1  0
 14 16  1  0
 15 11  1  0
 17 12  1  0
 19  3  1  0
 20 19  1  0
 21 20  1  0
 22 21  1  0
 23 21  1  0
 24 22  1  0
 25 23  1  0
 26 24  1  0
 26 25  1  0
M  RAD  8   4   2   6   3  13   2  15   2  16   2  20   3  21   2  22   3
M  RAD  4  23   3  24   3  25   3  26   3
M  END
>  <REMARK>  (1) 
 SMILES Fc1ccc(Nc2nc(OCC3CCCCC3)c3[nH]cnc3n2)cc1Cl
 SMILES IDX 7 1 8 2 9 3 18 4 19 5 20 6 21 7 22 8 23 9 6 11 5 13 2 14
 SMILES IDX 3 15 25 16 4 17 24 18 1 19 26 20 10 21 11 22 12 23 13 24
 SMILES IDX 17 25 14 26 16 27 15 28
 H PARENT 19 10 6 12

>  <TORSDO>  (1) 
F 5

$$$$
