/home/pchatterjee/Documents/git/vs_workflow/DiffDock/diffdock_run/pdbqt_scrubbed/5329559.pdbqt
     RDKit          3D

 26 29  0  0  1  0  0  0  0  0999 V2000
    7.9130   43.5600   49.4952 C   0  0  0  0  0  0  0  0  0  0  0  0
    6.8963   44.1065   50.3348 N   0  0  0  0  0  0  0  0  0  0  0  0
    7.1670   45.0815   51.1695 C   0  0  0  0  0  0  0  0  0  0  0  0
    8.4602   45.6051   51.2441 C   0  0  0  0  0  3  0  0  0  0  0  0
    9.0337   46.3667   52.2451 N   0  0  0  0  0  0  0  0  0  0  0  0
   10.4162   46.6396   51.7461 C   0  0  0  0  0  2  0  0  0  0  0  0
   10.5942   45.6473   50.7289 N   0  0  0  0  0  0  0  0  0  0  0  0
    9.5074   45.0245   50.4046 C   0  0  0  0  0  0  0  0  0  0  0  0
    9.1424   43.9795   49.5117 N   0  0  0  0  0  0  0  0  0  0  0  0
    7.5344   42.5110   48.6118 N   0  0  0  0  0  0  0  0  0  0  0  0
    6.1778   42.0561   48.5463 C   0  0  0  0  0  0  0  0  0  0  0  0
    3.5150   41.1695   48.4499 C   0  0  0  0  0  0  0  0  0  0  0  0
    4.0672   41.5823   49.6295 C   0  0  0  0  0  3  0  0  0  0  0  0
    4.2842   41.1913   47.2904 C   0  0  0  0  0  0  0  0  0  0  0  0
    5.3770   42.0186   49.6779 C   0  0  0  0  0  3  0  0  0  0  0  0
    5.6019   41.6352   47.3643 C   0  0  0  0  0  3  0  0  0  0  0  0
    2.2259   40.7460   48.4324 F   0  0  0  0  0  0  0  0  0  0  0  0
    3.5936   40.6648   45.7630 Cl  0  0  0  0  0  0  0  0  0  0  0  0
    6.1188   45.5460   51.9504 O   0  0  0  0  0  0  0  0  0  0  0  0
    5.0694   44.6868   52.2661 C   0  0  0  0  0  2  0  0  0  0  0  0
    3.8312   45.3048   52.7758 C   0  0  0  0  0  3  0  0  0  0  0  0
    3.3606   46.5479   52.1650 C   0  0  0  0  0  2  0  0  0  0  0  0
    2.8850   44.4438   53.5024 C   0  0  0  0  0  2  0  0  0  0  0  0
    1.8880   46.7532   52.1074 C   0  0  0  0  0  2  0  0  0  0  0  0
    1.4459   44.5916   53.0651 C   0  0  0  0  0  2  0  0  0  0  0  0
    1.1297   46.0757   53.2249 C   0  0  0  0  0  2  0  0  0  0  0  0
  1 10  1  0
  1  9  2  0
  2  1  1  0
  3  2  2  0
  4  3  1  0
  4  5  1  0
  4  8  1  0
  5  6  1  0
  6  7  1  0
  8  9  1  0
  8  7  2  0
 11 16  2  0
 11 10  1  0
 12 14  2  0
 13 12  1  0
 13 15  2  0
 14 18  1  0
 14 16  1  0
 15 11  1  0
 17 12  1  0
 19  3  1  0
 20 19  1  0
 21 20  1  0
 22 21  1  0
 23 21  1  0
 24 22  1  0
 25 23  1  0
 26 24  1  0
 26 25  1  0
M  RAD  8   4   2   6   3  13   2  15   2  16   2  20   3  21   2  22   3
M  RAD  4  23   3  24   3  25   3  26   3
M  END
>  <REMARK>  (1) 
 SMILES Fc1ccc(Nc2nc(OCC3CCCCC3)c3[nH]cnc3n2)cc1Cl
 SMILES IDX 7 1 8 2 9 3 18 4 19 5 20 6 21 7 22 8 23 9 6 11 5 13 2 14
 SMILES IDX 3 15 25 16 4 17 24 18 1 19 26 20 10 21 11 22 12 23 13 24
 SMILES IDX 17 25 14 26 16 27 15 28
 H PARENT 19 10 6 12

>  <TORSDO>  (1) 
F 5

$$$$
