/home/pchatterjee/Documents/git/vs_workflow/DiffDock/diffdock_run/pdbqt_scrubbed/5329559.pdbqt
     RDKit          3D

 26 29  0  0  1  0  0  0  0  0999 V2000
    7.9293   43.5853   49.6613 C   0  0  0  0  0  0  0  0  0  0  0  0
    6.8953   44.1827   50.4431 N   0  0  0  0  0  0  0  0  0  0  0  0
    7.1478   45.2111   51.2173 C   0  0  0  0  0  0  0  0  0  0  0  0
    8.4384   45.7422   51.2827 C   0  0  0  0  0  3  0  0  0  0  0  0
    8.9908   46.5694   52.2426 N   0  0  0  0  0  0  0  0  0  0  0  0
   10.3823   46.8132   51.7541 C   0  0  0  0  0  2  0  0  0  0  0  0
   10.5821   45.7569   50.8079 N   0  0  0  0  0  0  0  0  0  0  0  0
    9.5030   45.1109   50.5038 C   0  0  0  0  0  0  0  0  0  0  0  0
    9.1574   44.0086   49.6743 N   0  0  0  0  0  0  0  0  0  0  0  0
    7.5700   42.4796   48.8413 N   0  0  0  0  0  0  0  0  0  0  0  0
    6.2196   42.0043   48.7951 C   0  0  0  0  0  0  0  0  0  0  0  0
    3.5691   41.0784   48.7364 C   0  0  0  0  0  0  0  0  0  0  0  0
    4.1233   41.5239   49.9031 C   0  0  0  0  0  3  0  0  0  0  0  0
    4.3300   41.0863   47.5712 C   0  0  0  0  0  0  0  0  0  0  0  0
    5.4271   41.9796   49.9329 C   0  0  0  0  0  3  0  0  0  0  0  0
    5.6418   41.5502   47.6264 C   0  0  0  0  0  3  0  0  0  0  0  0
    2.2861   40.6365   48.7370 F   0  0  0  0  0  0  0  0  0  0  0  0
    3.6366   40.5177   46.0603 Cl  0  0  0  0  0  0  0  0  0  0  0  0
    6.0836   45.7227   51.9453 O   0  0  0  0  0  0  0  0  0  0  0  0
    5.2148   44.8472   52.5919 C   0  0  0  0  0  2  0  0  0  0  0  0
    3.7777   44.9922   52.2944 C   0  0  0  0  0  3  0  0  0  0  0  0
    2.8088   44.2968   53.1412 C   0  0  0  0  0  2  0  0  0  0  0  0
    3.3554   46.1642   51.5115 C   0  0  0  0  0  2  0  0  0  0  0  0
    1.4964   44.9660   53.3505 C   0  0  0  0  0  2  0  0  0  0  0  0
    2.1631   46.8974   52.0814 C   0  0  0  0  0  2  0  0  0  0  0  0
    1.0651   45.8445   52.1993 C   0  0  0  0  0  2  0  0  0  0  0  0
  1 10  1  0
  1  9  2  0
  2  1  1  0
  3  2  2  0
  4  3  1  0
  4  5  1  0
  4  8  1  0
  5  6  1  0
  6  7  1  0
  8  9  1  0
  8  7  2  0
 11 16  2  0
 11 10  1  0
 12 14  2  0
 13 12  1  0
 13 15  2  0
 14 18  1  0
 14 16  1  0
 15 11  1  0
 17 12  1  0
 19  3  1  0
 20 19  1  0
 21 20  1  0
 22 21  1  0
 23 21  1  0
 24 22  1  0
 25 23  1  0
 26 24  1  0
 26 25  1  0
M  RAD  8   4   2   6   3  13   2  15   2  16   2  20   3  21   2  22   3
M  RAD  4  23   3  24   3  25   3  26   3
M  END
>  <REMARK>  (1) 
 SMILES Fc1ccc(Nc2nc(OCC3CCCCC3)c3[nH]cnc3n2)cc1Cl
 SMILES IDX 7 1 8 2 9 3 18 4 19 5 20 6 21 7 22 8 23 9 6 11 5 13 2 14
 SMILES IDX 3 15 25 16 4 17 24 18 1 19 26 20 10 21 11 22 12 23 13 24
 SMILES IDX 17 25 14 26 16 27 15 28
 H PARENT 19 10 6 12

>  <TORSDO>  (1) 
F 5

$$$$
