/home/pchatterjee/Documents/git/vs_workflow/DiffDock/diffdock_run/pdbqt_scrubbed/5329559.pdbqt
     RDKit          3D

 26 29  0  0  1  0  0  0  0  0999 V2000
    7.8154   43.6372   49.3791 C   0  0  0  0  0  0  0  0  0  0  0  0
    6.8206   44.3390   50.1241 N   0  0  0  0  0  0  0  0  0  0  0  0
    7.1449   45.3574   50.8845 C   0  0  0  0  0  0  0  0  0  0  0  0
    8.4754   45.7749   50.9712 C   0  0  0  0  0  3  0  0  0  0  0  0
    9.0766   46.5706   51.9285 N   0  0  0  0  0  0  0  0  0  0  0  0
   10.4949   46.6814   51.4694 C   0  0  0  0  0  2  0  0  0  0  0  0
   10.6223   45.5920   50.5485 N   0  0  0  0  0  0  0  0  0  0  0  0
    9.4977   45.0366   50.2306 C   0  0  0  0  0  0  0  0  0  0  0  0
    9.0754   43.9516   49.4139 N   0  0  0  0  0  0  0  0  0  0  0  0
    7.3789   42.5501   48.5717 N   0  0  0  0  0  0  0  0  0  0  0  0
    6.0239   42.0889   48.6264 C   0  0  0  0  0  0  0  0  0  0  0  0
    3.3707   41.1722   48.7037 C   0  0  0  0  0  0  0  0  0  0  0  0
    4.1513   40.9474   47.6051 C   0  0  0  0  0  3  0  0  0  0  0  0
    3.9012   41.8618   49.7898 C   0  0  0  0  0  0  0  0  0  0  0  0
    5.4566   41.3980   47.5662 C   0  0  0  0  0  3  0  0  0  0  0  0
    5.2194   42.3061   49.7271 C   0  0  0  0  0  3  0  0  0  0  0  0
    2.0921   40.7179   48.7140 F   0  0  0  0  0  0  0  0  0  0  0  0
    2.9146   42.1614   51.2124 Cl  0  0  0  0  0  0  0  0  0  0  0  0
    6.1137   45.9752   51.5766 O   0  0  0  0  0  0  0  0  0  0  0  0
    4.8024   45.5569   51.3650 C   0  0  0  0  0  2  0  0  0  0  0  0
    3.8431   45.7882   52.4610 C   0  0  0  0  0  3  0  0  0  0  0  0
    2.4142   45.8272   52.1507 C   0  0  0  0  0  2  0  0  0  0  0  0
    4.2852   45.4900   53.8322 C   0  0  0  0  0  2  0  0  0  0  0  0
    1.4850   45.3211   53.1969 C   0  0  0  0  0  2  0  0  0  0  0  0
    3.2976   44.6838   54.6438 C   0  0  0  0  0  2  0  0  0  0  0  0
    2.0005   45.4864   54.6076 C   0  0  0  0  0  2  0  0  0  0  0  0
  1 10  1  0
  1  9  2  0
  2  1  1  0
  3  2  2  0
  4  3  1  0
  4  5  1  0
  4  8  1  0
  5  6  1  0
  6  7  1  0
  8  9  1  0
  8  7  2  0
 11 16  2  0
 11 10  1  0
 12 14  2  0
 13 12  1  0
 13 15  2  0
 14 18  1  0
 14 16  1  0
 15 11  1  0
 17 12  1  0
 19  3  1  0
 20 19  1  0
 21 20  1  0
 22 21  1  0
 23 21  1  0
 24 22  1  0
 25 23  1  0
 26 24  1  0
 26 25  1  0
M  RAD  8   4   2   6   3  13   2  15   2  16   2  20   3  21   2  22   3
M  RAD  4  23   3  24   3  25   3  26   3
M  END
>  <REMARK>  (1) 
 SMILES Fc1ccc(Nc2nc(OCC3CCCCC3)c3[nH]cnc3n2)cc1Cl
 SMILES IDX 7 1 8 2 9 3 18 4 19 5 20 6 21 7 22 8 23 9 6 11 5 13 2 14
 SMILES IDX 3 15 25 16 4 17 24 18 1 19 26 20 10 21 11 22 12 23 13 24
 SMILES IDX 17 25 14 26 16 27 15 28
 H PARENT 19 10 6 12

>  <TORSDO>  (1) 
F 5

$$$$
