/home/pchatterjee/Documents/git/vs_workflow/DiffDock/diffdock_run/pdbqt_scrubbed/5329559.pdbqt
     RDKit          3D

 26 29  0  0  1  0  0  0  0  0999 V2000
    7.9053   43.3834   49.6331 C   0  0  0  0  0  0  0  0  0  0  0  0
    6.8564   44.0918   50.2927 N   0  0  0  0  0  0  0  0  0  0  0  0
    7.1059   45.1935   50.9596 C   0  0  0  0  0  0  0  0  0  0  0  0
    8.4084   45.6943   51.0286 C   0  0  0  0  0  3  0  0  0  0  0  0
    8.9426   46.6090   51.9168 N   0  0  0  0  0  0  0  0  0  0  0  0
   10.3619   46.7595   51.4726 C   0  0  0  0  0  2  0  0  0  0  0  0
   10.5709   45.5989   50.6600 N   0  0  0  0  0  0  0  0  0  0  0  0
    9.4867   44.9517   50.3772 C   0  0  0  0  0  0  0  0  0  0  0  0
    9.1444   43.7729   49.6590 N   0  0  0  0  0  0  0  0  0  0  0  0
    7.5488   42.2027   48.9240 N   0  0  0  0  0  0  0  0  0  0  0  0
    6.1827   41.7820   48.8327 C   0  0  0  0  0  0  0  0  0  0  0  0
    3.5115   40.9403   48.6264 C   0  0  0  0  0  0  0  0  0  0  0  0
    4.4376   40.5443   47.7032 C   0  0  0  0  0  3  0  0  0  0  0  0
    3.9021   41.7676   49.6751 C   0  0  0  0  0  0  0  0  0  0  0  0
    5.7518   40.9579   47.8038 C   0  0  0  0  0  3  0  0  0  0  0  0
    5.2323   42.1712   49.7553 C   0  0  0  0  0  3  0  0  0  0  0  0
    2.2278   40.5185   48.5023 F   0  0  0  0  0  0  0  0  0  0  0  0
    2.7271   42.2884   50.8731 Cl  0  0  0  0  0  0  0  0  0  0  0  0
    6.0265   45.8114   51.5739 O   0  0  0  0  0  0  0  0  0  0  0  0
    4.7766   45.1984   51.5365 C   0  0  0  0  0  2  0  0  0  0  0  0
    3.7908   45.6312   52.5443 C   0  0  0  0  0  3  0  0  0  0  0  0
    2.3698   45.6009   52.1989 C   0  0  0  0  0  2  0  0  0  0  0  0
    4.2000   45.6061   53.9573 C   0  0  0  0  0  2  0  0  0  0  0  0
    1.4163   45.3008   53.3010 C   0  0  0  0  0  2  0  0  0  0  0  0
    3.1941   44.9658   54.8860 C   0  0  0  0  0  2  0  0  0  0  0  0
    1.8972   45.7385   54.6648 C   0  0  0  0  0  2  0  0  0  0  0  0
  1 10  1  0
  1  9  2  0
  2  1  1  0
  3  2  2  0
  4  3  1  0
  4  5  1  0
  4  8  1  0
  5  6  1  0
  6  7  1  0
  8  9  1  0
  8  7  2  0
 11 16  2  0
 11 10  1  0
 12 14  2  0
 13 12  1  0
 13 15  2  0
 14 18  1  0
 14 16  1  0
 15 11  1  0
 17 12  1  0
 19  3  1  0
 20 19  1  0
 21 20  1  0
 22 21  1  0
 23 21  1  0
 24 22  1  0
 25 23  1  0
 26 24  1  0
 26 25  1  0
M  RAD  8   4   2   6   3  13   2  15   2  16   2  20   3  21   2  22   3
M  RAD  4  23   3  24   3  25   3  26   3
M  END
>  <REMARK>  (1) 
 SMILES Fc1ccc(Nc2nc(OCC3CCCCC3)c3[nH]cnc3n2)cc1Cl
 SMILES IDX 7 1 8 2 9 3 18 4 19 5 20 6 21 7 22 8 23 9 6 11 5 13 2 14
 SMILES IDX 3 15 25 16 4 17 24 18 1 19 26 20 10 21 11 22 12 23 13 24
 SMILES IDX 17 25 14 26 16 27 15 28
 H PARENT 19 10 6 12

>  <TORSDO>  (1) 
F 5

$$$$
