/home/pchatterjee/Documents/git/vs_workflow/DiffDock/diffdock_run/pdbqt_scrubbed/5329559.pdbqt
     RDKit          3D

 26 29  0  0  1  0  0  0  0  0999 V2000
    7.8799   43.3523   49.5118 C   0  0  0  0  0  0  0  0  0  0  0  0
    6.8505   43.9517   50.2981 N   0  0  0  0  0  0  0  0  0  0  0  0
    7.1054   44.9880   51.0608 C   0  0  0  0  0  0  0  0  0  0  0  0
    8.3940   45.5257   51.1094 C   0  0  0  0  0  3  0  0  0  0  0  0
    8.9515   46.3639   52.0567 N   0  0  0  0  0  0  0  0  0  0  0  0
   10.3373   46.6098   51.5529 C   0  0  0  0  0  2  0  0  0  0  0  0
   10.5331   45.5461   50.6141 N   0  0  0  0  0  0  0  0  0  0  0  0
    9.4542   44.8925   50.3260 C   0  0  0  0  0  0  0  0  0  0  0  0
    9.1060   43.7813   49.5095 N   0  0  0  0  0  0  0  0  0  0  0  0
    7.5181   42.2377   48.7050 N   0  0  0  0  0  0  0  0  0  0  0  0
    6.1632   41.7762   48.6504 C   0  0  0  0  0  0  0  0  0  0  0  0
    3.5040   40.8767   48.5754 C   0  0  0  0  0  0  0  0  0  0  0  0
    4.0617   41.2982   49.7493 C   0  0  0  0  0  3  0  0  0  0  0  0
    4.2659   40.8960   47.4109 C   0  0  0  0  0  0  0  0  0  0  0  0
    5.3697   41.7408   49.7872 C   0  0  0  0  0  3  0  0  0  0  0  0
    5.5819   41.3464   47.4742 C   0  0  0  0  0  3  0  0  0  0  0  0
    2.2169   40.4472   48.5681 F   0  0  0  0  0  0  0  0  0  0  0  0
    3.5681   40.3583   45.8907 Cl  0  0  0  0  0  0  0  0  0  0  0  0
    6.0457   45.5011   51.7944 O   0  0  0  0  0  0  0  0  0  0  0  0
    4.9211   44.7099   52.0146 C   0  0  0  0  0  2  0  0  0  0  0  0
    3.7688   45.3558   52.6703 C   0  0  0  0  0  3  0  0  0  0  0  0
    3.8682   46.7677   53.0396 C   0  0  0  0  0  2  0  0  0  0  0  0
    2.4453   44.7385   52.4924 C   0  0  0  0  0  2  0  0  0  0  0  0
    2.6155   47.5682   52.9789 C   0  0  0  0  0  2  0  0  0  0  0  0
    1.3486   45.7110   52.1241 C   0  0  0  0  0  2  0  0  0  0  0  0
    1.3606   46.7642   53.2280 C   0  0  0  0  0  2  0  0  0  0  0  0
  1 10  1  0
  1  9  2  0
  2  1  1  0
  3  2  2  0
  4  3  1  0
  4  5  1  0
  4  8  1  0
  5  6  1  0
  6  7  1  0
  8  9  1  0
  8  7  2  0
 11 16  2  0
 11 10  1  0
 12 14  2  0
 13 12  1  0
 13 15  2  0
 14 18  1  0
 14 16  1  0
 15 11  1  0
 17 12  1  0
 19  3  1  0
 20 19  1  0
 21 20  1  0
 22 21  1  0
 23 21  1  0
 24 22  1  0
 25 23  1  0
 26 24  1  0
 26 25  1  0
M  RAD  8   4   2   6   3  13   2  15   2  16   2  20   3  21   2  22   3
M  RAD  4  23   3  24   3  25   3  26   3
M  END
>  <REMARK>  (1) 
 SMILES Fc1ccc(Nc2nc(OCC3CCCCC3)c3[nH]cnc3n2)cc1Cl
 SMILES IDX 7 1 8 2 9 3 18 4 19 5 20 6 21 7 22 8 23 9 6 11 5 13 2 14
 SMILES IDX 3 15 25 16 4 17 24 18 1 19 26 20 10 21 11 22 12 23 13 24
 SMILES IDX 17 25 14 26 16 27 15 28
 H PARENT 19 10 6 12

>  <TORSDO>  (1) 
F 5

$$$$
