/home/pchatterjee/Documents/git/vs_workflow/DiffDock/diffdock_run/pdbqt_scrubbed/Z1833516258.pdbqt
     RDKit          3D

 22 25  0  0  0  0  0  0  0  0999 V2000
   10.5100   45.3216   50.9445 C   0  0  0  0  0  1  0  0  0  0  0  0
    9.1207   44.8363   50.5637 C   0  0  0  0  0  0  0  0  0  0  0  0
    8.9345   43.8708   49.7110 N   0  0  0  0  0  0  0  0  0  0  0  0
    7.8352   43.4093   49.3408 C   0  0  0  0  0  0  0  0  0  0  0  0
    6.6018   44.4554   50.3174 S   0  0  0  0  0  0  0  0  0  0  0  0
    8.0153   45.4151   51.1196 C   0  0  0  0  0  0  0  0  0  0  0  0
    7.7074   46.4263   52.0311 C   0  0  0  0  0  0  0  0  0  0  0  0
    6.3867   46.8385   52.2987 N   0  0  0  0  0  0  0  0  0  0  0  0
    8.6311   47.0220   52.6643 O   0  0  0  0  0  0  0  0  0  0  0  0
    6.0910   47.5998   53.4878 C   0  0  0  0  0  0  0  0  0  0  0  0
    6.7324   48.8008   53.6897 C   0  0  0  0  0  3  0  0  0  0  0  0
    5.1681   47.0830   54.3781 C   0  0  0  0  0  0  0  0  0  0  0  0
    6.4508   49.5265   54.8227 C   0  0  0  0  0  3  0  0  0  0  0  0
    4.4240   45.9582   54.4057 N   0  0  0  0  0  0  0  0  0  0  0  0
    4.9106   47.8374   55.5028 C   0  0  0  0  0  0  0  0  0  0  0  0
    5.5385   49.0418   55.7284 C   0  0  0  0  0  3  0  0  0  0  0  0
    3.6977   46.0067   55.5503 C   0  0  0  0  0  3  0  0  0  0  0  0
    3.9862   47.1401   56.2195 N   0  0  0  0  0  0  0  0  0  0  0  0
    7.3223   42.3510   48.4176 C   0  0  0  0  0  2  0  0  0  0  0  0
    5.8292   42.3503   48.4606 C   0  0  0  0  0  3  0  0  0  0  0  0
    5.0726   41.3751   49.2861 C   0  0  0  0  0  2  0  0  0  0  0  0
    5.0464   41.2329   47.7745 C   0  0  0  0  0  2  0  0  0  0  0  0
  1  2  1  0
  2  6  2  0
  3  2  1  0
  3  4  2  0
  4  5  1  0
  6  5  1  0
  6  7  1  0
  7  9  2  0
  8  7  1  0
  8 10  1  0
 10 11  2  0
 11 13  1  0
 12 10  1  0
 12 15  2  0
 14 17  2  0
 14 12  1  0
 15 16  1  0
 16 13  2  0
 17 18  1  0
 18 15  1  0
 19  4  1  0
 19 20  1  0
 21 20  1  0
 22 21  1  0
 22 20  1  0
M  RAD  8   1   2  11   2  13   2  16   2  17   2  19   3  20   2  21   3
M  RAD  1  22   3
M  END
>  <REMARK>  (1) 
 SMILES Cc1nc(CC2CC2)sc1C(=O)Nc1cccc2[nH]cnc12
 SMILES IDX 1 1 2 2 3 3 4 4 9 5 10 6 11 7 13 8 12 9 14 11 15 12 22 13
 SMILES IDX 16 14 21 15 18 16 17 17 20 18 19 19 5 21 6 22 7 23 8 24
 H PARENT 13 10 19 20

>  <TORSDO>  (1) 
F 4

$$$$
