/home/pchatterjee/Documents/git/vs_workflow/DiffDock/diffdock_run/pdbqt_scrubbed/Z1833516258.pdbqt
     RDKit          3D

 22 25  0  0  0  0  0  0  0  0999 V2000
   10.4809   45.5354   50.9356 C   0  0  0  0  0  1  0  0  0  0  0  0
    9.1023   44.9946   50.5925 C   0  0  0  0  0  0  0  0  0  0  0  0
    8.9329   44.0119   49.7562 N   0  0  0  0  0  0  0  0  0  0  0  0
    7.8434   43.5057   49.4167 C   0  0  0  0  0  0  0  0  0  0  0  0
    6.5944   44.5184   50.4085 S   0  0  0  0  0  0  0  0  0  0  0  0
    7.9890   45.5396   51.1665 C   0  0  0  0  0  0  0  0  0  0  0  0
    7.6643   46.5506   52.0724 C   0  0  0  0  0  0  0  0  0  0  0  0
    6.3356   46.9176   52.3650 N   0  0  0  0  0  0  0  0  0  0  0  0
    8.5793   47.1880   52.6771 O   0  0  0  0  0  0  0  0  0  0  0  0
    6.0376   47.6762   53.5553 C   0  0  0  0  0  0  0  0  0  0  0  0
    6.6543   48.8918   53.7453 C   0  0  0  0  0  3  0  0  0  0  0  0
    5.1377   47.1418   54.4586 C   0  0  0  0  0  0  0  0  0  0  0  0
    6.3706   49.6150   54.8794 C   0  0  0  0  0  3  0  0  0  0  0  0
    4.4194   46.0008   54.4991 N   0  0  0  0  0  0  0  0  0  0  0  0
    4.8772   47.8941   55.5840 C   0  0  0  0  0  0  0  0  0  0  0  0
    5.4807   49.1131   55.7980 C   0  0  0  0  0  3  0  0  0  0  0  0
    3.7064   46.0369   55.6525 C   0  0  0  0  0  3  0  0  0  0  0  0
    3.9777   47.1787   56.3144 N   0  0  0  0  0  0  0  0  0  0  0  0
    7.3496   42.4174   48.5184 C   0  0  0  0  0  2  0  0  0  0  0  0
    5.8591   42.3590   48.5995 C   0  0  0  0  0  3  0  0  0  0  0  0
    5.1315   41.0666   48.6718 C   0  0  0  0  0  2  0  0  0  0  0  0
    5.0472   41.8856   47.3958 C   0  0  0  0  0  2  0  0  0  0  0  0
  1  2  1  0
  2  6  2  0
  3  2  1  0
  3  4  2  0
  4  5  1  0
  6  5  1  0
  6  7  1  0
  7  9  2  0
  8  7  1  0
  8 10  1  0
 10 11  2  0
 11 13  1  0
 12 10  1  0
 12 15  2  0
 14 17  2  0
 14 12  1  0
 15 16  1  0
 16 13  2  0
 17 18  1  0
 18 15  1  0
 19  4  1  0
 19 20  1  0
 21 20  1  0
 22 21  1  0
 22 20  1  0
M  RAD  8   1   2  11   2  13   2  16   2  17   2  19   3  20   2  21   3
M  RAD  1  22   3
M  END
>  <REMARK>  (1) 
 SMILES Cc1nc(CC2CC2)sc1C(=O)Nc1cccc2[nH]cnc12
 SMILES IDX 1 1 2 2 3 3 4 4 9 5 10 6 11 7 13 8 12 9 14 11 15 12 22 13
 SMILES IDX 16 14 21 15 18 16 17 17 20 18 19 19 5 21 6 22 7 23 8 24
 H PARENT 13 10 19 20

>  <TORSDO>  (1) 
F 4

$$$$
