/home/pchatterjee/Documents/git/vs_workflow/DiffDock/diffdock_run/pdbqt_scrubbed/Z1833516258.pdbqt
     RDKit          3D

 22 25  0  0  0  0  0  0  0  0999 V2000
   10.5067   44.9849   50.4451 C   0  0  0  0  0  1  0  0  0  0  0  0
    9.3291   45.5199   51.2436 C   0  0  0  0  0  0  0  0  0  0  0  0
    9.4737   46.4237   52.1689 N   0  0  0  0  0  0  0  0  0  0  0  0
    8.5679   46.9186   52.8710 C   0  0  0  0  0  0  0  0  0  0  0  0
    7.0262   46.0288   52.2379 S   0  0  0  0  0  0  0  0  0  0  0  0
    8.0679   45.0539   51.0021 C   0  0  0  0  0  0  0  0  0  0  0  0
    7.4310   44.1387   50.1625 C   0  0  0  0  0  0  0  0  0  0  0  0
    6.0481   44.1802   49.8949 N   0  0  0  0  0  0  0  0  0  0  0  0
    8.0945   43.2161   49.5988 O   0  0  0  0  0  0  0  0  0  0  0  0
    5.3372   42.9704   49.5600 C   0  0  0  0  0  0  0  0  0  0  0  0
    4.3759   42.4986   50.4248 C   0  0  0  0  0  3  0  0  0  0  0  0
    5.6573   42.3349   48.3747 C   0  0  0  0  0  0  0  0  0  0  0  0
    3.6983   41.3459   50.1061 C   0  0  0  0  0  3  0  0  0  0  0  0
    6.5368   42.5909   47.3845 N   0  0  0  0  0  0  0  0  0  0  0  0
    4.9580   41.1822   48.0875 C   0  0  0  0  0  0  0  0  0  0  0  0
    3.9917   40.6891   48.9355 C   0  0  0  0  0  3  0  0  0  0  0  0
    6.3892   41.5966   46.4737 C   0  0  0  0  0  3  0  0  0  0  0  0
    5.4363   40.7406   46.8915 N   0  0  0  0  0  0  0  0  0  0  0  0
    8.4285   47.9284   53.9646 C   0  0  0  0  0  2  0  0  0  0  0  0
    6.9789   48.2236   54.1719 C   0  0  0  0  0  3  0  0  0  0  0  0
    6.4669   48.7530   55.4613 C   0  0  0  0  0  2  0  0  0  0  0  0
    6.1378   47.3223   55.0732 C   0  0  0  0  0  2  0  0  0  0  0  0
  1  2  1  0
  2  6  2  0
  3  2  1  0
  3  4  2  0
  4  5  1  0
  6  5  1  0
  6  7  1  0
  7  9  2  0
  8  7  1  0
  8 10  1  0
 10 11  2  0
 11 13  1  0
 12 10  1  0
 12 15  2  0
 14 17  2  0
 14 12  1  0
 15 16  1  0
 16 13  2  0
 17 18  1  0
 18 15  1  0
 19  4  1  0
 19 20  1  0
 21 20  1  0
 22 21  1  0
 22 20  1  0
M  RAD  8   1   2  11   2  13   2  16   2  17   2  19   3  20   2  21   3
M  RAD  1  22   3
M  END
>  <REMARK>  (1) 
 SMILES Cc1nc(CC2CC2)sc1C(=O)Nc1cccc2[nH]cnc12
 SMILES IDX 1 1 2 2 3 3 4 4 9 5 10 6 11 7 13 8 12 9 14 11 15 12 22 13
 SMILES IDX 16 14 21 15 18 16 17 17 20 18 19 19 5 21 6 22 7 23 8 24
 H PARENT 13 10 19 20

>  <TORSDO>  (1) 
F 4

$$$$
