/home/pchatterjee/Documents/git/vs_workflow/DiffDock/diffdock_run/pdbqt_scrubbed/Z1833516258.pdbqt
     RDKit          3D

 22 25  0  0  0  0  0  0  0  0999 V2000
   10.5261   45.2425   51.1547 C   0  0  0  0  0  1  0  0  0  0  0  0
    9.1509   44.7717   50.7099 C   0  0  0  0  0  0  0  0  0  0  0  0
    8.9942   43.8121   49.8446 N   0  0  0  0  0  0  0  0  0  0  0  0
    7.9085   43.3625   49.4234 C   0  0  0  0  0  0  0  0  0  0  0  0
    6.6422   44.4147   50.3500 S   0  0  0  0  0  0  0  0  0  0  0  0
    8.0270   45.3575   51.2194 C   0  0  0  0  0  0  0  0  0  0  0  0
    7.6877   46.3669   52.1218 C   0  0  0  0  0  0  0  0  0  0  0  0
    6.3754   46.8620   52.2575 N   0  0  0  0  0  0  0  0  0  0  0  0
    8.5734   46.8841   52.8681 O   0  0  0  0  0  0  0  0  0  0  0  0
    5.9981   47.6045   53.4355 C   0  0  0  0  0  0  0  0  0  0  0  0
    6.5837   48.8276   53.6709 C   0  0  0  0  0  3  0  0  0  0  0  0
    5.0569   47.0478   54.2814 C   0  0  0  0  0  0  0  0  0  0  0  0
    6.2245   49.5354   54.7932 C   0  0  0  0  0  3  0  0  0  0  0  0
    4.3556   45.8955   54.2709 N   0  0  0  0  0  0  0  0  0  0  0  0
    4.7209   47.7852   55.3965 C   0  0  0  0  0  0  0  0  0  0  0  0
    5.2918   49.0112   55.6551 C   0  0  0  0  0  3  0  0  0  0  0  0
    3.5777   45.9097   55.3820 C   0  0  0  0  0  3  0  0  0  0  0  0
    3.7927   47.0491   56.0682 N   0  0  0  0  0  0  0  0  0  0  0  0
    7.4279   42.3135   48.4726 C   0  0  0  0  0  2  0  0  0  0  0  0
    5.9343   42.3215   48.4544 C   0  0  0  0  0  3  0  0  0  0  0  0
    5.1379   41.4906   49.3926 C   0  0  0  0  0  2  0  0  0  0  0  0
    5.1710   41.1103   47.9229 C   0  0  0  0  0  2  0  0  0  0  0  0
  1  2  1  0
  2  6  2  0
  3  2  1  0
  3  4  2  0
  4  5  1  0
  6  5  1  0
  6  7  1  0
  7  9  2  0
  8  7  1  0
  8 10  1  0
 10 11  2  0
 11 13  1  0
 12 10  1  0
 12 15  2  0
 14 17  2  0
 14 12  1  0
 15 16  1  0
 16 13  2  0
 17 18  1  0
 18 15  1  0
 19  4  1  0
 19 20  1  0
 21 20  1  0
 22 21  1  0
 22 20  1  0
M  RAD  8   1   2  11   2  13   2  16   2  17   2  19   3  20   2  21   3
M  RAD  1  22   3
M  END
>  <REMARK>  (1) 
 SMILES Cc1nc(CC2CC2)sc1C(=O)Nc1cccc2[nH]cnc12
 SMILES IDX 1 1 2 2 3 3 4 4 9 5 10 6 11 7 13 8 12 9 14 11 15 12 22 13
 SMILES IDX 16 14 21 15 18 16 17 17 20 18 19 19 5 21 6 22 7 23 8 24
 H PARENT 13 10 19 20

>  <TORSDO>  (1) 
F 4

$$$$
