/home/pchatterjee/Documents/git/vs_workflow/DiffDock/diffdock_run/pdbqt_scrubbed/Z1833516258.pdbqt
     RDKit          3D

 22 25  0  0  0  0  0  0  0  0999 V2000
   10.5101   44.6540   50.6952 C   0  0  0  0  0  1  0  0  0  0  0  0
    9.3419   45.3656   51.3582 C   0  0  0  0  0  0  0  0  0  0  0  0
    9.5114   46.3847   52.1498 N   0  0  0  0  0  0  0  0  0  0  0  0
    8.6151   47.0272   52.7348 C   0  0  0  0  0  0  0  0  0  0  0  0
    7.0431   46.1439   52.1709 S   0  0  0  0  0  0  0  0  0  0  0  0
    8.0630   44.9420   51.1327 C   0  0  0  0  0  0  0  0  0  0  0  0
    7.3989   43.9520   50.4066 C   0  0  0  0  0  0  0  0  0  0  0  0
    6.0039   43.9559   50.2073 N   0  0  0  0  0  0  0  0  0  0  0  0
    8.0472   42.9922   49.8895 O   0  0  0  0  0  0  0  0  0  0  0  0
    5.3188   42.7379   49.8488 C   0  0  0  0  0  0  0  0  0  0  0  0
    4.4698   42.1547   50.7618 C   0  0  0  0  0  3  0  0  0  0  0  0
    5.5489   42.2079   48.5928 C   0  0  0  0  0  0  0  0  0  0  0  0
    3.8168   40.9943   50.4206 C   0  0  0  0  0  3  0  0  0  0  0  0
    6.3140   42.5809   47.5464 N   0  0  0  0  0  0  0  0  0  0  0  0
    4.8775   41.0440   48.2850 C   0  0  0  0  0  0  0  0  0  0  0  0
    4.0228   40.4405   49.1802 C   0  0  0  0  0  3  0  0  0  0  0  0
    6.1224   41.6490   46.5796 C   0  0  0  0  0  3  0  0  0  0  0  0
    5.2550   40.7161   47.0184 N   0  0  0  0  0  0  0  0  0  0  0  0
    8.5023   48.1917   53.6656 C   0  0  0  0  0  2  0  0  0  0  0  0
    7.0851   48.3139   54.1217 C   0  0  0  0  0  3  0  0  0  0  0  0
    6.5463   49.5876   54.6625 C   0  0  0  0  0  2  0  0  0  0  0  0
    6.7697   48.4237   55.6119 C   0  0  0  0  0  2  0  0  0  0  0  0
  1  2  1  0
  2  6  2  0
  3  2  1  0
  3  4  2  0
  4  5  1  0
  6  5  1  0
  6  7  1  0
  7  9  2  0
  8  7  1  0
  8 10  1  0
 10 11  2  0
 11 13  1  0
 12 10  1  0
 12 15  2  0
 14 17  2  0
 14 12  1  0
 15 16  1  0
 16 13  2  0
 17 18  1  0
 18 15  1  0
 19  4  1  0
 19 20  1  0
 21 20  1  0
 22 21  1  0
 22 20  1  0
M  RAD  8   1   2  11   2  13   2  16   2  17   2  19   3  20   2  21   3
M  RAD  1  22   3
M  END
>  <REMARK>  (1) 
 SMILES Cc1nc(CC2CC2)sc1C(=O)Nc1cccc2[nH]cnc12
 SMILES IDX 1 1 2 2 3 3 4 4 9 5 10 6 11 7 13 8 12 9 14 11 15 12 22 13
 SMILES IDX 16 14 21 15 18 16 17 17 20 18 19 19 5 21 6 22 7 23 8 24
 H PARENT 13 10 19 20

>  <TORSDO>  (1) 
F 4

$$$$
