/home/pchatterjee/Documents/git/vs_workflow/DiffDock/diffdock_run/pdbqt_scrubbed/Z1833516258.pdbqt
     RDKit          3D

 22 25  0  0  0  0  0  0  0  0999 V2000
   10.6469   45.3544   51.0902 C   0  0  0  0  0  1  0  0  0  0  0  0
    9.2656   44.8681   50.6825 C   0  0  0  0  0  0  0  0  0  0  0  0
    9.0964   43.9160   49.8113 N   0  0  0  0  0  0  0  0  0  0  0  0
    8.0048   43.4550   49.4185 C   0  0  0  0  0  0  0  0  0  0  0  0
    6.7524   44.4779   50.3955 S   0  0  0  0  0  0  0  0  0  0  0  0
    8.1496   45.4315   51.2328 C   0  0  0  0  0  0  0  0  0  0  0  0
    7.8236   46.4257   52.1568 C   0  0  0  0  0  0  0  0  0  0  0  0
    6.5118   46.9114   52.3268 N   0  0  0  0  0  0  0  0  0  0  0  0
    8.7218   46.9369   52.8923 O   0  0  0  0  0  0  0  0  0  0  0  0
    6.1316   47.5589   53.5586 C   0  0  0  0  0  0  0  0  0  0  0  0
    6.7644   48.7252   53.9239 C   0  0  0  0  0  3  0  0  0  0  0  0
    5.1397   46.9722   54.3224 C   0  0  0  0  0  0  0  0  0  0  0  0
    6.4025   49.3425   55.0975 C   0  0  0  0  0  3  0  0  0  0  0  0
    4.3875   45.8611   54.1844 N   0  0  0  0  0  0  0  0  0  0  0  0
    4.8025   47.6185   55.4924 C   0  0  0  0  0  0  0  0  0  0  0  0
    5.4201   48.7862   55.8806 C   0  0  0  0  0  3  0  0  0  0  0  0
    3.5762   45.8097   55.2703 C   0  0  0  0  0  3  0  0  0  0  0  0
    3.8210   46.8690   56.0662 N   0  0  0  0  0  0  0  0  0  0  0  0
    7.5104   42.4096   48.4708 C   0  0  0  0  0  2  0  0  0  0  0  0
    6.0253   42.3058   48.5931 C   0  0  0  0  0  3  0  0  0  0  0  0
    5.3075   41.0329   48.3296 C   0  0  0  0  0  2  0  0  0  0  0  0
    5.1635   42.1750   47.3392 C   0  0  0  0  0  2  0  0  0  0  0  0
  1  2  1  0
  2  6  2  0
  3  2  1  0
  3  4  2  0
  4  5  1  0
  6  5  1  0
  6  7  1  0
  7  9  2  0
  8  7  1  0
  8 10  1  0
 10 11  2  0
 11 13  1  0
 12 10  1  0
 12 15  2  0
 14 17  2  0
 14 12  1  0
 15 16  1  0
 16 13  2  0
 17 18  1  0
 18 15  1  0
 19  4  1  0
 19 20  1  0
 21 20  1  0
 22 21  1  0
 22 20  1  0
M  RAD  8   1   2  11   2  13   2  16   2  17   2  19   3  20   2  21   3
M  RAD  1  22   3
M  END
>  <REMARK>  (1) 
 SMILES Cc1nc(CC2CC2)sc1C(=O)Nc1cccc2[nH]cnc12
 SMILES IDX 1 1 2 2 3 3 4 4 9 5 10 6 11 7 13 8 12 9 14 11 15 12 22 13
 SMILES IDX 16 14 21 15 18 16 17 17 20 18 19 19 5 21 6 22 7 23 8 24
 H PARENT 13 10 19 20

>  <TORSDO>  (1) 
F 4

$$$$
