/home/pchatterjee/Documents/git/vs_workflow/DiffDock/diffdock_run/pdbqt_scrubbed/Z1833516258.pdbqt
     RDKit          3D

 22 25  0  0  0  0  0  0  0  0999 V2000
   10.6017   45.1202   51.0456 C   0  0  0  0  0  1  0  0  0  0  0  0
    9.1937   44.7044   50.6518 C   0  0  0  0  0  0  0  0  0  0  0  0
    8.9678   43.7813   49.7624 N   0  0  0  0  0  0  0  0  0  0  0  0
    7.8505   43.3777   49.3789 C   0  0  0  0  0  0  0  0  0  0  0  0
    6.6612   44.4309   50.4014 S   0  0  0  0  0  0  0  0  0  0  0  0
    8.1130   45.3028   51.2349 C   0  0  0  0  0  0  0  0  0  0  0  0
    7.8469   46.2882   52.1871 C   0  0  0  0  0  0  0  0  0  0  0  0
    6.5647   46.8406   52.3781 N   0  0  0  0  0  0  0  0  0  0  0  0
    8.7755   46.7292   52.9302 O   0  0  0  0  0  0  0  0  0  0  0  0
    6.2468   47.5294   53.6052 C   0  0  0  0  0  0  0  0  0  0  0  0
    6.9085   48.6980   53.9068 C   0  0  0  0  0  3  0  0  0  0  0  0
    5.2831   46.9785   54.4292 C   0  0  0  0  0  0  0  0  0  0  0  0
    6.6059   49.3546   55.0758 C   0  0  0  0  0  3  0  0  0  0  0  0
    4.5128   45.8733   54.3583 N   0  0  0  0  0  0  0  0  0  0  0  0
    5.0054   47.6636   55.5928 C   0  0  0  0  0  0  0  0  0  0  0  0
    5.6528   48.8345   55.9178 C   0  0  0  0  0  3  0  0  0  0  0  0
    3.7499   45.8648   55.4798 C   0  0  0  0  0  3  0  0  0  0  0  0
    4.0418   46.9442   56.2317 N   0  0  0  0  0  0  0  0  0  0  0  0
    7.2946   42.3775   48.4167 C   0  0  0  0  0  2  0  0  0  0  0  0
    5.8027   42.4430   48.4552 C   0  0  0  0  0  3  0  0  0  0  0  0
    5.0072   41.5849   49.3694 C   0  0  0  0  0  2  0  0  0  0  0  0
    4.9733   41.2977   47.8786 C   0  0  0  0  0  2  0  0  0  0  0  0
  1  2  1  0
  2  6  2  0
  3  2  1  0
  3  4  2  0
  4  5  1  0
  6  5  1  0
  6  7  1  0
  7  9  2  0
  8  7  1  0
  8 10  1  0
 10 11  2  0
 11 13  1  0
 12 10  1  0
 12 15  2  0
 14 17  2  0
 14 12  1  0
 15 16  1  0
 16 13  2  0
 17 18  1  0
 18 15  1  0
 19  4  1  0
 19 20  1  0
 21 20  1  0
 22 21  1  0
 22 20  1  0
M  RAD  8   1   2  11   2  13   2  16   2  17   2  19   3  20   2  21   3
M  RAD  1  22   3
M  END
>  <REMARK>  (1) 
 SMILES Cc1nc(CC2CC2)sc1C(=O)Nc1cccc2[nH]cnc12
 SMILES IDX 1 1 2 2 3 3 4 4 9 5 10 6 11 7 13 8 12 9 14 11 15 12 22 13
 SMILES IDX 16 14 21 15 18 16 17 17 20 18 19 19 5 21 6 22 7 23 8 24
 H PARENT 13 10 19 20

>  <TORSDO>  (1) 
F 4

$$$$
