/home/pchatterjee/Documents/git/vs_workflow/DiffDock/diffdock_run/pdbqt_scrubbed/Z1833516258.pdbqt
     RDKit          3D

 22 25  0  0  0  0  0  0  0  0999 V2000
   10.5692   45.4453   50.6297 C   0  0  0  0  0  1  0  0  0  0  0  0
    9.2009   44.8490   50.3417 C   0  0  0  0  0  0  0  0  0  0  0  0
    9.0253   43.9199   49.4473 N   0  0  0  0  0  0  0  0  0  0  0  0
    7.9433   43.3750   49.1458 C   0  0  0  0  0  0  0  0  0  0  0  0
    6.7159   44.2384   50.2935 S   0  0  0  0  0  0  0  0  0  0  0  0
    8.1039   45.2845   51.0294 C   0  0  0  0  0  0  0  0  0  0  0  0
    7.7910   46.2074   52.0287 C   0  0  0  0  0  0  0  0  0  0  0  0
    6.4709   46.4545   52.4552 N   0  0  0  0  0  0  0  0  0  0  0  0
    8.7094   46.8705   52.5996 O   0  0  0  0  0  0  0  0  0  0  0  0
    6.2217   47.3314   53.5732 C   0  0  0  0  0  0  0  0  0  0  0  0
    7.2419   48.1305   54.0367 C   0  0  0  0  0  3  0  0  0  0  0  0
    4.9574   47.3285   54.1327 C   0  0  0  0  0  0  0  0  0  0  0  0
    7.0049   48.9662   55.1020 C   0  0  0  0  0  3  0  0  0  0  0  0
    3.8188   46.6557   53.8669 N   0  0  0  0  0  0  0  0  0  0  0  0
    4.7557   48.1787   55.1989 C   0  0  0  0  0  0  0  0  0  0  0  0
    5.7594   48.9882   55.6818 C   0  0  0  0  0  3  0  0  0  0  0  0
    2.9004   47.0846   54.7683 C   0  0  0  0  0  3  0  0  0  0  0  0
    3.4591   48.0057   55.5775 N   0  0  0  0  0  0  0  0  0  0  0  0
    7.4459   42.3257   48.2041 C   0  0  0  0  0  2  0  0  0  0  0  0
    5.9522   42.3391   48.2065 C   0  0  0  0  0  3  0  0  0  0  0  0
    5.1652   41.4527   49.1009 C   0  0  0  0  0  2  0  0  0  0  0  0
    5.1774   41.1662   47.6097 C   0  0  0  0  0  2  0  0  0  0  0  0
  1  2  1  0
  2  6  2  0
  3  2  1  0
  3  4  2  0
  4  5  1  0
  6  5  1  0
  6  7  1  0
  7  9  2  0
  8  7  1  0
  8 10  1  0
 10 11  2  0
 11 13  1  0
 12 10  1  0
 12 15  2  0
 14 17  2  0
 14 12  1  0
 15 16  1  0
 16 13  2  0
 17 18  1  0
 18 15  1  0
 19  4  1  0
 19 20  1  0
 21 20  1  0
 22 21  1  0
 22 20  1  0
M  RAD  8   1   2  11   2  13   2  16   2  17   2  19   3  20   2  21   3
M  RAD  1  22   3
M  END
>  <REMARK>  (1) 
 SMILES Cc1nc(CC2CC2)sc1C(=O)Nc1cccc2[nH]cnc12
 SMILES IDX 1 1 2 2 3 3 4 4 9 5 10 6 11 7 13 8 12 9 14 11 15 12 22 13
 SMILES IDX 16 14 21 15 18 16 17 17 20 18 19 19 5 21 6 22 7 23 8 24
 H PARENT 13 10 19 20

>  <TORSDO>  (1) 
F 4

$$$$
