/home/pchatterjee/Documents/git/vs_workflow/DiffDock/diffdock_run/pdbqt_scrubbed/Z1833516258.pdbqt
     RDKit          3D

 22 25  0  0  0  0  0  0  0  0999 V2000
   10.5630   45.4032   50.8875 C   0  0  0  0  0  1  0  0  0  0  0  0
    9.1873   44.8808   50.5064 C   0  0  0  0  0  0  0  0  0  0  0  0
    9.0251   43.9373   49.6247 N   0  0  0  0  0  0  0  0  0  0  0  0
    7.9385   43.4489   49.2517 C   0  0  0  0  0  0  0  0  0  0  0  0
    6.6807   44.4177   50.2756 S   0  0  0  0  0  0  0  0  0  0  0  0
    8.0689   45.4012   51.0932 C   0  0  0  0  0  0  0  0  0  0  0  0
    7.7363   46.3707   52.0407 C   0  0  0  0  0  0  0  0  0  0  0  0
    6.4060   46.6585   52.4058 N   0  0  0  0  0  0  0  0  0  0  0  0
    8.6451   47.0410   52.6184 O   0  0  0  0  0  0  0  0  0  0  0  0
    6.1311   47.4543   53.5772 C   0  0  0  0  0  0  0  0  0  0  0  0
    6.7971   48.6468   53.7470 C   0  0  0  0  0  3  0  0  0  0  0  0
    5.2023   46.9778   54.4837 C   0  0  0  0  0  0  0  0  0  0  0  0
    6.5354   49.4053   54.8630 C   0  0  0  0  0  3  0  0  0  0  0  0
    4.4361   45.8691   54.5420 N   0  0  0  0  0  0  0  0  0  0  0  0
    4.9651   47.7643   55.5907 C   0  0  0  0  0  0  0  0  0  0  0  0
    5.6179   48.9611   55.7842 C   0  0  0  0  0  3  0  0  0  0  0  0
    3.7163   45.9600   55.6881 C   0  0  0  0  0  3  0  0  0  0  0  0
    4.0304   47.1033   56.3281 N   0  0  0  0  0  0  0  0  0  0  0  0
    7.4524   42.4032   48.3000 C   0  0  0  0  0  2  0  0  0  0  0  0
    5.9588   42.4172   48.2840 C   0  0  0  0  0  3  0  0  0  0  0  0
    5.1606   41.4720   49.1053 C   0  0  0  0  0  2  0  0  0  0  0  0
    5.1923   41.2883   47.5983 C   0  0  0  0  0  2  0  0  0  0  0  0
  1  2  1  0
  2  6  2  0
  3  2  1  0
  3  4  2  0
  4  5  1  0
  6  5  1  0
  6  7  1  0
  7  9  2  0
  8  7  1  0
  8 10  1  0
 10 11  2  0
 11 13  1  0
 12 10  1  0
 12 15  2  0
 14 17  2  0
 14 12  1  0
 15 16  1  0
 16 13  2  0
 17 18  1  0
 18 15  1  0
 19  4  1  0
 19 20  1  0
 21 20  1  0
 22 21  1  0
 22 20  1  0
M  RAD  8   1   2  11   2  13   2  16   2  17   2  19   3  20   2  21   3
M  RAD  1  22   3
M  END
>  <REMARK>  (1) 
 SMILES Cc1nc(CC2CC2)sc1C(=O)Nc1cccc2[nH]cnc12
 SMILES IDX 1 1 2 2 3 3 4 4 9 5 10 6 11 7 13 8 12 9 14 11 15 12 22 13
 SMILES IDX 16 14 21 15 18 16 17 17 20 18 19 19 5 21 6 22 7 23 8 24
 H PARENT 13 10 19 20

>  <TORSDO>  (1) 
F 4

$$$$
