/home/pchatterjee/Documents/git/vs_workflow/DiffDock/diffdock_run/pdbqt_scrubbed/Z1833516258.pdbqt
     RDKit          3D

 22 25  0  0  0  0  0  0  0  0999 V2000
   10.4959   45.2891   51.0061 C   0  0  0  0  0  1  0  0  0  0  0  0
    9.0989   44.8274   50.6244 C   0  0  0  0  0  0  0  0  0  0  0  0
    8.8962   43.8877   49.7470 N   0  0  0  0  0  0  0  0  0  0  0  0
    7.7895   43.4468   49.3738 C   0  0  0  0  0  0  0  0  0  0  0  0
    6.5745   44.4766   50.3899 S   0  0  0  0  0  0  0  0  0  0  0  0
    8.0038   45.4006   51.2059 C   0  0  0  0  0  0  0  0  0  0  0  0
    7.7132   46.3889   52.1477 C   0  0  0  0  0  0  0  0  0  0  0  0
    6.4100   46.8792   52.3644 N   0  0  0  0  0  0  0  0  0  0  0  0
    8.6375   46.8902   52.8572 O   0  0  0  0  0  0  0  0  0  0  0  0
    6.0965   47.5957   53.5767 C   0  0  0  0  0  0  0  0  0  0  0  0
    6.7340   48.7884   53.8324 C   0  0  0  0  0  3  0  0  0  0  0  0
    5.1614   47.0457   54.4338 C   0  0  0  0  0  0  0  0  0  0  0  0
    6.4356   49.4714   54.9874 C   0  0  0  0  0  3  0  0  0  0  0  0
    4.4179   45.9205   54.4087 N   0  0  0  0  0  0  0  0  0  0  0  0
    4.8871   47.7577   55.5819 C   0  0  0  0  0  0  0  0  0  0  0  0
    5.5107   48.9530   55.8612 C   0  0  0  0  0  3  0  0  0  0  0  0
    3.6751   45.9262   55.5437 C   0  0  0  0  0  3  0  0  0  0  0  0
    3.9530   47.0339   56.2587 N   0  0  0  0  0  0  0  0  0  0  0  0
    7.2588   42.4193   48.4262 C   0  0  0  0  0  2  0  0  0  0  0  0
    5.7665   42.4214   48.4927 C   0  0  0  0  0  3  0  0  0  0  0  0
    5.0278   41.5874   49.4744 C   0  0  0  0  0  2  0  0  0  0  0  0
    4.9791   41.2072   48.0051 C   0  0  0  0  0  2  0  0  0  0  0  0
  1  2  1  0
  2  6  2  0
  3  2  1  0
  3  4  2  0
  4  5  1  0
  6  5  1  0
  6  7  1  0
  7  9  2  0
  8  7  1  0
  8 10  1  0
 10 11  2  0
 11 13  1  0
 12 10  1  0
 12 15  2  0
 14 17  2  0
 14 12  1  0
 15 16  1  0
 16 13  2  0
 17 18  1  0
 18 15  1  0
 19  4  1  0
 19 20  1  0
 21 20  1  0
 22 21  1  0
 22 20  1  0
M  RAD  8   1   2  11   2  13   2  16   2  17   2  19   3  20   2  21   3
M  RAD  1  22   3
M  END
>  <REMARK>  (1) 
 SMILES Cc1nc(CC2CC2)sc1C(=O)Nc1cccc2[nH]cnc12
 SMILES IDX 1 1 2 2 3 3 4 4 9 5 10 6 11 7 13 8 12 9 14 11 15 12 22 13
 SMILES IDX 16 14 21 15 18 16 17 17 20 18 19 19 5 21 6 22 7 23 8 24
 H PARENT 13 10 19 20

>  <TORSDO>  (1) 
F 4

$$$$
