/home/pchatterjee/Documents/git/vs_workflow/DiffDock/diffdock_run/pdbqt_scrubbed/Z769272146.pdbqt
     RDKit          3D

 24 27  0  0  1  0  0  0  0  0999 V2000
    4.6869   40.9296   48.5466 C   0  0  0  0  0  3  0  0  0  0  0  0
    3.7390   41.0113   49.6914 C   0  0  0  0  0  2  0  0  0  0  0  0
    4.0635   42.1305   50.6519 C   0  0  0  0  0  2  0  0  0  0  0  0
    4.7593   43.2189   49.8618 C   0  0  0  0  0  2  0  0  0  0  0  0
    6.0869   42.7184   49.4646 N   0  0  0  0  0  0  0  0  0  0  0  0
    6.0870   41.4005   48.8471 C   0  0  0  0  0  2  0  0  0  0  0  0
    4.1377   41.5038   47.2946 C   0  0  0  0  0  0  0  0  0  0  0  0
    2.7159   41.5568   47.1746 N   0  0  0  0  0  0  0  0  0  0  0  0
    4.8975   41.9207   46.3879 O   0  0  0  0  0  0  0  0  0  0  0  0
    2.0673   42.2486   46.0788 C   0  0  0  0  0  2  0  0  0  0  0  0
    1.9362   41.3691   44.8604 C   0  0  0  0  0  3  0  0  0  0  0  0
    2.1325   42.1198   43.5257 C   0  0  0  0  0  2  0  0  0  0  0  0
    0.7584   41.7269   43.9699 C   0  0  0  0  0  2  0  0  0  0  0  0
    7.2582   43.4778   49.6758 C   0  0  0  0  0  0  0  0  0  0  0  0
    8.2950   43.2916   48.9742 O   0  0  0  0  0  0  0  0  0  0  0  0
    7.2969   44.4840   50.6980 C   0  0  0  0  0  0  0  0  0  0  0  0
    6.1175   44.8815   51.3037 C   0  0  0  0  0  3  0  0  0  0  0  0
    8.5192   45.0193   51.0423 C   0  0  0  0  0  0  0  0  0  0  0  0
    6.1783   45.8631   52.3006 C   0  0  0  0  0  3  0  0  0  0  0  0
    9.7968   44.8453   50.6492 N   0  0  0  0  0  0  0  0  0  0  0  0
    8.5749   45.9943   52.0336 C   0  0  0  0  0  0  0  0  0  0  0  0
    7.4065   46.3962   52.6418 C   0  0  0  0  0  3  0  0  0  0  0  0
   10.6066   45.6410   51.3300 N   0  0  0  0  0  0  0  0  0  0  0  0
    9.8881   46.3803   52.2098 C   0  0  0  0  0  3  0  0  0  0  0  0
  1  7  1  0
  1  2  1  0
  2  3  1  0
  4  3  1  0
  5  6  1  0
  5  4  1  0
  6  1  1  0
  7  8  1  0
  9  7  2  0
 10  8  1  0
 10 11  1  0
 11 13  1  0
 11 12  1  0
 13 12  1  0
 14  5  1  0
 15 14  2  0
 16 14  1  0
 17 16  2  0
 18 16  1  0
 19 17  1  0
 20 18  1  0
 21 18  2  0
 22 21  1  0
 22 19  2  0
 23 20  1  0
 24 21  1  0
 24 23  2  0
M  RAD  8   1   2   2   3   3   3   4   3   6   3  10   3  11   2  12   3
M  RAD  5  13   3  17   2  19   2  22   2  24   2
M  END
>  <REMARK>  (1) 
 SMILES O=C(NCC1CC1)C1CCCN(C(=O)c2cccc3cn[nH]c23)C1
 SMILES IDX 8 1 9 2 10 3 11 4 12 5 24 6 2 7 3 8 1 9 4 11 5 12 6 13 7 14
 SMILES IDX 13 15 14 16 15 17 16 18 23 19 17 20 22 21 19 22 18 23 21 24
 SMILES IDX 20 25
 H PARENT 3 10 22 26

>  <TORSDO>  (1) 
F 5

$$$$
