/home/pchatterjee/Documents/git/vs_workflow/DiffDock/diffdock_run/pdbqt_scrubbed/Z769272146.pdbqt
     RDKit          3D

 24 27  0  0  1  0  0  0  0  0999 V2000
    4.7150   41.0777   48.5624 C   0  0  0  0  0  3  0  0  0  0  0  0
    3.6369   41.3716   49.5457 C   0  0  0  0  0  2  0  0  0  0  0  0
    3.9447   42.5590   50.4268 C   0  0  0  0  0  2  0  0  0  0  0  0
    4.8480   43.4854   49.6402 C   0  0  0  0  0  2  0  0  0  0  0  0
    6.1579   42.8278   49.4890 N   0  0  0  0  0  0  0  0  0  0  0  0
    6.1039   41.4538   49.0120 C   0  0  0  0  0  2  0  0  0  0  0  0
    4.3995   41.5534   47.1938 C   0  0  0  0  0  0  0  0  0  0  0  0
    3.0556   41.3838   46.7422 N   0  0  0  0  0  0  0  0  0  0  0  0
    5.2817   42.0792   46.4737 O   0  0  0  0  0  0  0  0  0  0  0  0
    2.5774   40.1164   46.2273 C   0  0  0  0  0  2  0  0  0  0  0  0
    1.1827   40.2308   45.6644 C   0  0  0  0  0  3  0  0  0  0  0  0
    1.1125   40.9919   44.3229 C   0  0  0  0  0  2  0  0  0  0  0  0
    0.6681   41.6582   45.5872 C   0  0  0  0  0  2  0  0  0  0  0  0
    7.3628   43.4995   49.7892 C   0  0  0  0  0  0  0  0  0  0  0  0
    8.4351   43.2276   49.1743 O   0  0  0  0  0  0  0  0  0  0  0  0
    7.3960   44.5119   50.8054 C   0  0  0  0  0  0  0  0  0  0  0  0
    6.2117   44.9247   51.3910 C   0  0  0  0  0  3  0  0  0  0  0  0
    8.6182   45.0378   51.1644 C   0  0  0  0  0  0  0  0  0  0  0  0
    6.2673   45.9122   52.3824 C   0  0  0  0  0  3  0  0  0  0  0  0
    9.8998   44.8490   50.7915 N   0  0  0  0  0  0  0  0  0  0  0  0
    8.6687   46.0187   52.1501 C   0  0  0  0  0  0  0  0  0  0  0  0
    7.4954   46.4357   52.7383 C   0  0  0  0  0  3  0  0  0  0  0  0
   10.7071   45.6413   51.4791 N   0  0  0  0  0  0  0  0  0  0  0  0
    9.9828   46.3932   52.3433 C   0  0  0  0  0  3  0  0  0  0  0  0
  1  7  1  0
  1  2  1  0
  2  3  1  0
  4  3  1  0
  5  6  1  0
  5  4  1  0
  6  1  1  0
  7  8  1  0
  9  7  2  0
 10  8  1  0
 10 11  1  0
 11 13  1  0
 11 12  1  0
 13 12  1  0
 14  5  1  0
 15 14  2  0
 16 14  1  0
 17 16  2  0
 18 16  1  0
 19 17  1  0
 20 18  1  0
 21 18  2  0
 22 21  1  0
 22 19  2  0
 23 20  1  0
 24 21  1  0
 24 23  2  0
M  RAD  8   1   2   2   3   3   3   4   3   6   3  10   3  11   2  12   3
M  RAD  5  13   3  17   2  19   2  22   2  24   2
M  END
>  <REMARK>  (1) 
 SMILES O=C(NCC1CC1)C1CCCN(C(=O)c2cccc3cn[nH]c23)C1
 SMILES IDX 8 1 9 2 10 3 11 4 12 5 24 6 2 7 3 8 1 9 4 11 5 12 6 13 7 14
 SMILES IDX 13 15 14 16 15 17 16 18 23 19 17 20 22 21 19 22 18 23 21 24
 SMILES IDX 20 25
 H PARENT 3 10 22 26

>  <TORSDO>  (1) 
F 5

$$$$
