/home/pchatterjee/Documents/git/vs_workflow/DiffDock/diffdock_run/pdbqt_scrubbed/Z769272146.pdbqt
     RDKit          3D

 24 27  0  0  1  0  0  0  0  0999 V2000
    5.0132   40.9352   48.5380 C   0  0  0  0  0  3  0  0  0  0  0  0
    3.9721   41.1163   49.5863 C   0  0  0  0  0  2  0  0  0  0  0  0
    4.2200   42.3171   50.4680 C   0  0  0  0  0  2  0  0  0  0  0  0
    4.9862   43.3325   49.6464 C   0  0  0  0  0  2  0  0  0  0  0  0
    6.3401   42.8016   49.4093 N   0  0  0  0  0  0  0  0  0  0  0  0
    6.3854   41.4341   48.9134 C   0  0  0  0  0  2  0  0  0  0  0  0
    4.5753   41.3949   47.1979 C   0  0  0  0  0  0  0  0  0  0  0  0
    3.2128   41.1560   46.8438 N   0  0  0  0  0  0  0  0  0  0  0  0
    5.3747   41.9662   46.4183 O   0  0  0  0  0  0  0  0  0  0  0  0
    2.8196   40.8529   45.4823 C   0  0  0  0  0  2  0  0  0  0  0  0
    1.9229   41.9208   44.9074 C   0  0  0  0  0  3  0  0  0  0  0  0
    0.4359   41.5121   44.8323 C   0  0  0  0  0  2  0  0  0  0  0  0
    1.2718   41.5312   43.5911 C   0  0  0  0  0  2  0  0  0  0  0  0
    7.4933   43.5793   49.6511 C   0  0  0  0  0  0  0  0  0  0  0  0
    8.5348   43.4434   48.9451 O   0  0  0  0  0  0  0  0  0  0  0  0
    7.5076   44.5470   50.7104 C   0  0  0  0  0  0  0  0  0  0  0  0
    6.3136   44.9276   51.2980 C   0  0  0  0  0  3  0  0  0  0  0  0
    8.7220   45.0636   51.1073 C   0  0  0  0  0  0  0  0  0  0  0  0
    6.3507   45.8716   52.3317 C   0  0  0  0  0  3  0  0  0  0  0  0
   10.0093   44.8981   50.7430 N   0  0  0  0  0  0  0  0  0  0  0  0
    8.7542   46.0012   52.1350 C   0  0  0  0  0  0  0  0  0  0  0  0
    7.5710   46.3860   52.7256 C   0  0  0  0  0  3  0  0  0  0  0  0
   10.8031   45.6645   51.4745 N   0  0  0  0  0  0  0  0  0  0  0  0
   10.0634   46.3743   52.3610 C   0  0  0  0  0  3  0  0  0  0  0  0
  1  7  1  0
  1  2  1  0
  2  3  1  0
  4  3  1  0
  5  6  1  0
  5  4  1  0
  6  1  1  0
  7  8  1  0
  9  7  2  0
 10  8  1  0
 10 11  1  0
 11 13  1  0
 11 12  1  0
 13 12  1  0
 14  5  1  0
 15 14  2  0
 16 14  1  0
 17 16  2  0
 18 16  1  0
 19 17  1  0
 20 18  1  0
 21 18  2  0
 22 21  1  0
 22 19  2  0
 23 20  1  0
 24 21  1  0
 24 23  2  0
M  RAD  8   1   2   2   3   3   3   4   3   6   3  10   3  11   2  12   3
M  RAD  5  13   3  17   2  19   2  22   2  24   2
M  END
>  <REMARK>  (1) 
 SMILES O=C(NCC1CC1)C1CCCN(C(=O)c2cccc3cn[nH]c23)C1
 SMILES IDX 8 1 9 2 10 3 11 4 12 5 24 6 2 7 3 8 1 9 4 11 5 12 6 13 7 14
 SMILES IDX 13 15 14 16 15 17 16 18 23 19 17 20 22 21 19 22 18 23 21 24
 SMILES IDX 20 25
 H PARENT 3 10 22 26

>  <TORSDO>  (1) 
F 5

$$$$
