/home/pchatterjee/Documents/git/vs_workflow/DiffDock/diffdock_run/pdbqt_scrubbed/Z769272146.pdbqt
     RDKit          3D

 24 27  0  0  1  0  0  0  0  0999 V2000
    4.8449   40.9795   48.5029 C   0  0  0  0  0  3  0  0  0  0  0  0
    3.8389   41.1536   49.5861 C   0  0  0  0  0  2  0  0  0  0  0  0
    4.1480   42.3136   50.5024 C   0  0  0  0  0  2  0  0  0  0  0  0
    4.9227   43.3346   49.6960 C   0  0  0  0  0  2  0  0  0  0  0  0
    6.2524   42.7722   49.4019 N   0  0  0  0  0  0  0  0  0  0  0  0
    6.2417   41.4228   48.8566 C   0  0  0  0  0  2  0  0  0  0  0  0
    4.3851   41.5005   47.1929 C   0  0  0  0  0  0  0  0  0  0  0  0
    2.9755   41.5365   46.9680 N   0  0  0  0  0  0  0  0  0  0  0  0
    5.2066   41.8889   46.3282 O   0  0  0  0  0  0  0  0  0  0  0  0
    2.4175   41.6461   45.6351 C   0  0  0  0  0  2  0  0  0  0  0  0
    2.4873   40.3369   44.8893 C   0  0  0  0  0  3  0  0  0  0  0  0
    1.4882   40.2334   43.7168 C   0  0  0  0  0  2  0  0  0  0  0  0
    1.2220   39.5027   44.9954 C   0  0  0  0  0  2  0  0  0  0  0  0
    7.4355   43.5054   49.6382 C   0  0  0  0  0  0  0  0  0  0  0  0
    8.4829   43.2955   48.9596 O   0  0  0  0  0  0  0  0  0  0  0  0
    7.4743   44.5114   50.6606 C   0  0  0  0  0  0  0  0  0  0  0  0
    6.2968   44.8981   51.2771 C   0  0  0  0  0  3  0  0  0  0  0  0
    8.6948   45.0575   50.9943 C   0  0  0  0  0  0  0  0  0  0  0  0
    6.3578   45.8797   52.2740 C   0  0  0  0  0  3  0  0  0  0  0  0
    9.9704   44.8951   50.5897 N   0  0  0  0  0  0  0  0  0  0  0  0
    8.7507   46.0324   51.9856 C   0  0  0  0  0  0  0  0  0  0  0  0
    7.5841   46.4236   52.6045 C   0  0  0  0  0  3  0  0  0  0  0  0
   10.7790   45.6977   51.2637 N   0  0  0  0  0  0  0  0  0  0  0  0
   10.0618   46.4301   52.1503 C   0  0  0  0  0  3  0  0  0  0  0  0
  1  7  1  0
  1  2  1  0
  2  3  1  0
  4  3  1  0
  5  6  1  0
  5  4  1  0
  6  1  1  0
  7  8  1  0
  9  7  2  0
 10  8  1  0
 10 11  1  0
 11 13  1  0
 11 12  1  0
 13 12  1  0
 14  5  1  0
 15 14  2  0
 16 14  1  0
 17 16  2  0
 18 16  1  0
 19 17  1  0
 20 18  1  0
 21 18  2  0
 22 21  1  0
 22 19  2  0
 23 20  1  0
 24 21  1  0
 24 23  2  0
M  RAD  8   1   2   2   3   3   3   4   3   6   3  10   3  11   2  12   3
M  RAD  5  13   3  17   2  19   2  22   2  24   2
M  END
>  <REMARK>  (1) 
 SMILES O=C(NCC1CC1)C1CCCN(C(=O)c2cccc3cn[nH]c23)C1
 SMILES IDX 8 1 9 2 10 3 11 4 12 5 24 6 2 7 3 8 1 9 4 11 5 12 6 13 7 14
 SMILES IDX 13 15 14 16 15 17 16 18 23 19 17 20 22 21 19 22 18 23 21 24
 SMILES IDX 20 25
 H PARENT 3 10 22 26

>  <TORSDO>  (1) 
F 5

$$$$
