/home/pchatterjee/Documents/git/vs_workflow/DiffDock/diffdock_run/pdbqt_scrubbed/Z769272146.pdbqt
     RDKit          3D

 24 27  0  0  1  0  0  0  0  0999 V2000
    3.1560   43.6231   52.6273 C   0  0  0  0  0  3  0  0  0  0  0  0
    2.4338   43.8729   53.9047 C   0  0  0  0  0  2  0  0  0  0  0  0
    2.8562   45.1535   54.5847 C   0  0  0  0  0  2  0  0  0  0  0  0
    3.3195   46.1088   53.5050 C   0  0  0  0  0  2  0  0  0  0  0  0
    4.5806   45.5908   52.9460 N   0  0  0  0  0  0  0  0  0  0  0  0
    4.5533   44.1858   52.5676 C   0  0  0  0  0  2  0  0  0  0  0  0
    2.3471   43.9501   51.4282 C   0  0  0  0  0  0  0  0  0  0  0  0
    1.0921   43.2830   51.2911 N   0  0  0  0  0  0  0  0  0  0  0  0
    2.7572   44.7767   50.5787 O   0  0  0  0  0  0  0  0  0  0  0  0
    0.8093   42.4116   50.1683 C   0  0  0  0  0  2  0  0  0  0  0  0
    0.9123   40.9558   50.5492 C   0  0  0  0  0  3  0  0  0  0  0  0
    2.3549   40.4063   50.5270 C   0  0  0  0  0  2  0  0  0  0  0  0
    1.4040   40.0611   49.4241 C   0  0  0  0  0  2  0  0  0  0  0  0
    5.7178   46.4140   52.7966 C   0  0  0  0  0  0  0  0  0  0  0  0
    5.7956   47.5354   53.3782 O   0  0  0  0  0  0  0  0  0  0  0  0
    6.8168   45.9922   51.9763 C   0  0  0  0  0  0  0  0  0  0  0  0
    6.5658   45.2523   50.8337 C   0  0  0  0  0  3  0  0  0  0  0  0
    8.0923   46.3457   52.3601 C   0  0  0  0  0  0  0  0  0  0  0  0
    7.6529   44.8531   50.0462 C   0  0  0  0  0  3  0  0  0  0  0  0
    8.6391   47.0353   53.3812 N   0  0  0  0  0  0  0  0  0  0  0  0
    9.1694   45.9472   51.5745 C   0  0  0  0  0  0  0  0  0  0  0  0
    8.9294   45.2105   50.4358 C   0  0  0  0  0  3  0  0  0  0  0  0
    9.9569   47.0771   53.2628 N   0  0  0  0  0  0  0  0  0  0  0  0
   10.3371   46.4095   52.1463 C   0  0  0  0  0  3  0  0  0  0  0  0
  1  7  1  0
  1  2  1  0
  2  3  1  0
  4  3  1  0
  5  6  1  0
  5  4  1  0
  6  1  1  0
  7  8  1  0
  9  7  2  0
 10  8  1  0
 10 11  1  0
 11 13  1  0
 11 12  1  0
 13 12  1  0
 14  5  1  0
 15 14  2  0
 16 14  1  0
 17 16  2  0
 18 16  1  0
 19 17  1  0
 20 18  1  0
 21 18  2  0
 22 21  1  0
 22 19  2  0
 23 20  1  0
 24 21  1  0
 24 23  2  0
M  RAD  8   1   2   2   3   3   3   4   3   6   3  10   3  11   2  12   3
M  RAD  5  13   3  17   2  19   2  22   2  24   2
M  END
>  <REMARK>  (1) 
 SMILES O=C(NCC1CC1)C1CCCN(C(=O)c2cccc3cn[nH]c23)C1
 SMILES IDX 8 1 9 2 10 3 11 4 12 5 24 6 2 7 3 8 1 9 4 11 5 12 6 13 7 14
 SMILES IDX 13 15 14 16 15 17 16 18 23 19 17 20 22 21 19 22 18 23 21 24
 SMILES IDX 20 25
 H PARENT 3 10 22 26

>  <TORSDO>  (1) 
F 5

$$$$
