/home/pchatterjee/Documents/git/vs_workflow/DiffDock/diffdock_run/pdbqt_scrubbed/Z769272146.pdbqt
     RDKit          3D

 24 27  0  0  1  0  0  0  0  0999 V2000
    3.1680   43.5827   52.7476 C   0  0  0  0  0  3  0  0  0  0  0  0
    2.0211   44.1405   53.5151 C   0  0  0  0  0  2  0  0  0  0  0  0
    2.1942   45.5996   53.8644 C   0  0  0  0  0  2  0  0  0  0  0  0
    3.0671   46.2216   52.7946 C   0  0  0  0  0  2  0  0  0  0  0  0
    4.4278   45.6753   52.9395 N   0  0  0  0  0  0  0  0  0  0  0  0
    4.5000   44.2251   53.0400 C   0  0  0  0  0  2  0  0  0  0  0  0
    2.8906   43.4571   51.2963 C   0  0  0  0  0  0  0  0  0  0  0  0
    3.8563   42.7589   50.5097 N   0  0  0  0  0  0  0  0  0  0  0  0
    1.8513   43.9466   50.7930 O   0  0  0  0  0  0  0  0  0  0  0  0
    3.5638   41.4754   49.9037 C   0  0  0  0  0  2  0  0  0  0  0  0
    4.7502   40.9287   49.1496 C   0  0  0  0  0  3  0  0  0  0  0  0
    5.4389   41.9647   48.2353 C   0  0  0  0  0  2  0  0  0  0  0  0
    4.5616   40.9072   47.6422 C   0  0  0  0  0  2  0  0  0  0  0  0
    5.5627   46.5142   52.9749 C   0  0  0  0  0  0  0  0  0  0  0  0
    5.5393   47.6226   53.5855 O   0  0  0  0  0  0  0  0  0  0  0  0
    6.7752   46.1239   52.3143 C   0  0  0  0  0  0  0  0  0  0  0  0
    6.7059   45.3297   51.1827 C   0  0  0  0  0  3  0  0  0  0  0  0
    7.9736   46.5610   52.8358 C   0  0  0  0  0  0  0  0  0  0  0  0
    7.9012   44.9624   50.5523 C   0  0  0  0  0  3  0  0  0  0  0  0
    8.3536   47.3168   53.8854 N   0  0  0  0  0  0  0  0  0  0  0  0
    9.1588   46.1939   52.2059 C   0  0  0  0  0  0  0  0  0  0  0  0
    9.0997   45.4037   51.0794 C   0  0  0  0  0  3  0  0  0  0  0  0
    9.6721   47.4268   53.9275 N   0  0  0  0  0  0  0  0  0  0  0  0
   10.2215   46.7407   52.8959 C   0  0  0  0  0  3  0  0  0  0  0  0
  1  7  1  0
  1  2  1  0
  2  3  1  0
  4  3  1  0
  5  6  1  0
  5  4  1  0
  6  1  1  0
  7  8  1  0
  9  7  2  0
 10  8  1  0
 10 11  1  0
 11 13  1  0
 11 12  1  0
 13 12  1  0
 14  5  1  0
 15 14  2  0
 16 14  1  0
 17 16  2  0
 18 16  1  0
 19 17  1  0
 20 18  1  0
 21 18  2  0
 22 21  1  0
 22 19  2  0
 23 20  1  0
 24 21  1  0
 24 23  2  0
M  RAD  8   1   2   2   3   3   3   4   3   6   3  10   3  11   2  12   3
M  RAD  5  13   3  17   2  19   2  22   2  24   2
M  END
>  <REMARK>  (1) 
 SMILES O=C(NCC1CC1)C1CCCN(C(=O)c2cccc3cn[nH]c23)C1
 SMILES IDX 8 1 9 2 10 3 11 4 12 5 24 6 2 7 3 8 1 9 4 11 5 12 6 13 7 14
 SMILES IDX 13 15 14 16 15 17 16 18 23 19 17 20 22 21 19 22 18 23 21 24
 SMILES IDX 20 25
 H PARENT 3 10 22 26

>  <TORSDO>  (1) 
F 5

$$$$
