/home/pchatterjee/Documents/git/vs_workflow/DiffDock/diffdock_run/pdbqt_scrubbed/Z769272146.pdbqt
     RDKit          3D

 24 27  0  0  1  0  0  0  0  0999 V2000
    4.6617   42.0686   49.8345 C   0  0  0  0  0  3  0  0  0  0  0  0
    3.2971   42.6015   49.5708 C   0  0  0  0  0  2  0  0  0  0  0  0
    3.0495   43.9444   50.2158 C   0  0  0  0  0  2  0  0  0  0  0  0
    4.3853   44.6496   50.3224 C   0  0  0  0  0  2  0  0  0  0  0  0
    5.1995   43.9385   51.3235 N   0  0  0  0  0  0  0  0  0  0  0  0
    5.2670   42.4954   51.1476 C   0  0  0  0  0  2  0  0  0  0  0  0
    5.5850   42.2404   48.6870 C   0  0  0  0  0  0  0  0  0  0  0  0
    5.1890   41.6604   47.4437 N   0  0  0  0  0  0  0  0  0  0  0  0
    6.6633   42.8683   48.8143 O   0  0  0  0  0  0  0  0  0  0  0  0
    4.1083   40.6986   47.3597 C   0  0  0  0  0  2  0  0  0  0  0  0
    3.0042   41.1749   46.4490 C   0  0  0  0  0  3  0  0  0  0  0  0
    2.5501   40.1210   45.4161 C   0  0  0  0  0  2  0  0  0  0  0  0
    3.4116   41.2676   44.9883 C   0  0  0  0  0  2  0  0  0  0  0  0
    5.8573   44.6258   52.3666 C   0  0  0  0  0  0  0  0  0  0  0  0
    5.5167   44.4639   53.5747 O   0  0  0  0  0  0  0  0  0  0  0  0
    6.9339   45.5286   52.0757 C   0  0  0  0  0  0  0  0  0  0  0  0
    6.8758   46.8285   52.5479 C   0  0  0  0  0  3  0  0  0  0  0  0
    7.9959   45.0615   51.3319 C   0  0  0  0  0  0  0  0  0  0  0  0
    7.9384   47.6922   52.2544 C   0  0  0  0  0  3  0  0  0  0  0  0
    8.3300   43.8916   50.7513 N   0  0  0  0  0  0  0  0  0  0  0  0
    9.0496   45.9231   51.0429 C   0  0  0  0  0  0  0  0  0  0  0  0
    9.0004   47.2183   51.5085 C   0  0  0  0  0  3  0  0  0  0  0  0
    9.5000   43.9918   50.1403 N   0  0  0  0  0  0  0  0  0  0  0  0
    9.9908   45.2456   50.2948 C   0  0  0  0  0  3  0  0  0  0  0  0
  1  7  1  0
  1  2  1  0
  2  3  1  0
  4  3  1  0
  5  6  1  0
  5  4  1  0
  6  1  1  0
  7  8  1  0
  9  7  2  0
 10  8  1  0
 10 11  1  0
 11 13  1  0
 11 12  1  0
 13 12  1  0
 14  5  1  0
 15 14  2  0
 16 14  1  0
 17 16  2  0
 18 16  1  0
 19 17  1  0
 20 18  1  0
 21 18  2  0
 22 21  1  0
 22 19  2  0
 23 20  1  0
 24 21  1  0
 24 23  2  0
M  RAD  8   1   2   2   3   3   3   4   3   6   3  10   3  11   2  12   3
M  RAD  5  13   3  17   2  19   2  22   2  24   2
M  END
>  <REMARK>  (1) 
 SMILES O=C(NCC1CC1)C1CCCN(C(=O)c2cccc3cn[nH]c23)C1
 SMILES IDX 8 1 9 2 10 3 11 4 12 5 24 6 2 7 3 8 1 9 4 11 5 12 6 13 7 14
 SMILES IDX 13 15 14 16 15 17 16 18 23 19 17 20 22 21 19 22 18 23 21 24
 SMILES IDX 20 25
 H PARENT 3 10 22 26

>  <TORSDO>  (1) 
F 5

$$$$
