/home/pchatterjee/Documents/git/vs_workflow/DiffDock/diffdock_run/pdbqt_scrubbed/Z769272146.pdbqt
     RDKit          3D

 24 27  0  0  1  0  0  0  0  0999 V2000
    4.8631   40.9904   48.5692 C   0  0  0  0  0  3  0  0  0  0  0  0
    3.8586   41.2107   49.6454 C   0  0  0  0  0  2  0  0  0  0  0  0
    4.1520   42.4269   50.4912 C   0  0  0  0  0  2  0  0  0  0  0  0
    4.9064   43.4119   49.6230 C   0  0  0  0  0  2  0  0  0  0  0  0
    6.2441   42.8551   49.3556 N   0  0  0  0  0  0  0  0  0  0  0  0
    6.2537   41.4764   48.8897 C   0  0  0  0  0  2  0  0  0  0  0  0
    4.3895   41.4267   47.2334 C   0  0  0  0  0  0  0  0  0  0  0  0
    2.9903   41.3132   46.9727 N   0  0  0  0  0  0  0  0  0  0  0  0
    5.1913   41.8732   46.3783 O   0  0  0  0  0  0  0  0  0  0  0  0
    2.4774   40.4739   45.9085 C   0  0  0  0  0  2  0  0  0  0  0  0
    1.3536   41.1444   45.1584 C   0  0  0  0  0  3  0  0  0  0  0  0
    1.7581   41.6613   43.7610 C   0  0  0  0  0  2  0  0  0  0  0  0
    1.5880   42.6223   44.8957 C   0  0  0  0  0  2  0  0  0  0  0  0
    7.4157   43.6202   49.5432 C   0  0  0  0  0  0  0  0  0  0  0  0
    8.4390   43.4390   48.8210 O   0  0  0  0  0  0  0  0  0  0  0  0
    7.4700   44.6267   50.5644 C   0  0  0  0  0  0  0  0  0  0  0  0
    6.3059   44.9956   51.2161 C   0  0  0  0  0  3  0  0  0  0  0  0
    8.6916   45.1911   50.8616 C   0  0  0  0  0  0  0  0  0  0  0  0
    6.3820   45.9781   52.2111 C   0  0  0  0  0  3  0  0  0  0  0  0
    9.9568   45.0478   50.4189 N   0  0  0  0  0  0  0  0  0  0  0  0
    8.7626   46.1667   51.8512 C   0  0  0  0  0  0  0  0  0  0  0  0
    7.6094   46.5403   52.5049 C   0  0  0  0  0  3  0  0  0  0  0  0
   10.7732   45.8624   51.0686 N   0  0  0  0  0  0  0  0  0  0  0  0
   10.0720   46.5840   51.9767 C   0  0  0  0  0  3  0  0  0  0  0  0
  1  7  1  0
  1  2  1  0
  2  3  1  0
  4  3  1  0
  5  6  1  0
  5  4  1  0
  6  1  1  0
  7  8  1  0
  9  7  2  0
 10  8  1  0
 10 11  1  0
 11 13  1  0
 11 12  1  0
 13 12  1  0
 14  5  1  0
 15 14  2  0
 16 14  1  0
 17 16  2  0
 18 16  1  0
 19 17  1  0
 20 18  1  0
 21 18  2  0
 22 21  1  0
 22 19  2  0
 23 20  1  0
 24 21  1  0
 24 23  2  0
M  RAD  8   1   2   2   3   3   3   4   3   6   3  10   3  11   2  12   3
M  RAD  5  13   3  17   2  19   2  22   2  24   2
M  END
>  <REMARK>  (1) 
 SMILES O=C(NCC1CC1)C1CCCN(C(=O)c2cccc3cn[nH]c23)C1
 SMILES IDX 8 1 9 2 10 3 11 4 12 5 24 6 2 7 3 8 1 9 4 11 5 12 6 13 7 14
 SMILES IDX 13 15 14 16 15 17 16 18 23 19 17 20 22 21 19 22 18 23 21 24
 SMILES IDX 20 25
 H PARENT 3 10 22 26

>  <TORSDO>  (1) 
F 5

$$$$
