/home/pchatterjee/Documents/git/vs_workflow/DiffDock/diffdock_run/pdbqt_scrubbed/Z769272146.pdbqt
     RDKit          3D

 24 27  0  0  1  0  0  0  0  0999 V2000
    3.2060   43.4963   52.6161 C   0  0  0  0  0  3  0  0  0  0  0  0
    2.0940   43.7327   53.5768 C   0  0  0  0  0  2  0  0  0  0  0  0
    2.0675   45.1419   54.1191 C   0  0  0  0  0  2  0  0  0  0  0  0
    2.6766   46.0444   53.0666 C   0  0  0  0  0  2  0  0  0  0  0  0
    4.1161   45.7416   52.9816 N   0  0  0  0  0  0  0  0  0  0  0  0
    4.4401   44.3282   52.8564 C   0  0  0  0  0  2  0  0  0  0  0  0
    2.7644   43.5089   51.2006 C   0  0  0  0  0  0  0  0  0  0  0  0
    3.6471   42.9271   50.2408 N   0  0  0  0  0  0  0  0  0  0  0  0
    1.6630   44.0114   50.8724 O   0  0  0  0  0  0  0  0  0  0  0  0
    4.1221   41.5639   50.3680 C   0  0  0  0  0  2  0  0  0  0  0  0
    5.0056   41.1684   49.2113 C   0  0  0  0  0  3  0  0  0  0  0  0
    5.5885   42.3680   48.4335 C   0  0  0  0  0  2  0  0  0  0  0  0
    4.4581   41.5766   47.8542 C   0  0  0  0  0  2  0  0  0  0  0  0
    5.0910   46.7619   53.0196 C   0  0  0  0  0  0  0  0  0  0  0  0
    4.8057   47.9257   53.4271 O   0  0  0  0  0  0  0  0  0  0  0  0
    6.4355   46.4979   52.5939 C   0  0  0  0  0  0  0  0  0  0  0  0
    6.6526   45.6712   51.5051 C   0  0  0  0  0  3  0  0  0  0  0  0
    7.4691   47.0853   53.2909 C   0  0  0  0  0  0  0  0  0  0  0  0
    7.9725   45.4289   51.1051 C   0  0  0  0  0  3  0  0  0  0  0  0
    7.5748   47.9078   54.3537 N   0  0  0  0  0  0  0  0  0  0  0  0
    8.7791   46.8419   52.8898 C   0  0  0  0  0  0  0  0  0  0  0  0
    9.0047   46.0205   51.8076 C   0  0  0  0  0  3  0  0  0  0  0  0
    8.8455   48.1716   54.6146 N   0  0  0  0  0  0  0  0  0  0  0  0
    9.6385   47.5269   53.7244 C   0  0  0  0  0  3  0  0  0  0  0  0
  1  7  1  0
  1  2  1  0
  2  3  1  0
  4  3  1  0
  5  6  1  0
  5  4  1  0
  6  1  1  0
  7  8  1  0
  9  7  2  0
 10  8  1  0
 10 11  1  0
 11 13  1  0
 11 12  1  0
 13 12  1  0
 14  5  1  0
 15 14  2  0
 16 14  1  0
 17 16  2  0
 18 16  1  0
 19 17  1  0
 20 18  1  0
 21 18  2  0
 22 21  1  0
 22 19  2  0
 23 20  1  0
 24 21  1  0
 24 23  2  0
M  RAD  8   1   2   2   3   3   3   4   3   6   3  10   3  11   2  12   3
M  RAD  5  13   3  17   2  19   2  22   2  24   2
M  END
>  <REMARK>  (1) 
 SMILES O=C(NCC1CC1)C1CCCN(C(=O)c2cccc3cn[nH]c23)C1
 SMILES IDX 8 1 9 2 10 3 11 4 12 5 24 6 2 7 3 8 1 9 4 11 5 12 6 13 7 14
 SMILES IDX 13 15 14 16 15 17 16 18 23 19 17 20 22 21 19 22 18 23 21 24
 SMILES IDX 20 25
 H PARENT 3 10 22 26

>  <TORSDO>  (1) 
F 5

$$$$
