/home/pchatterjee/Documents/git/vs_workflow/DiffDock/diffdock_run/pdbqt_scrubbed/Z769272146.pdbqt
     RDKit          3D

 24 27  0  0  1  0  0  0  0  0999 V2000
    4.9576   40.8642   48.5036 C   0  0  0  0  0  3  0  0  0  0  0  0
    3.7913   41.2094   49.3617 C   0  0  0  0  0  2  0  0  0  0  0  0
    3.9994   42.4697   50.1673 C   0  0  0  0  0  2  0  0  0  0  0  0
    4.9538   43.3522   49.3904 C   0  0  0  0  0  2  0  0  0  0  0  0
    6.2826   42.7160   49.4083 N   0  0  0  0  0  0  0  0  0  0  0  0
    6.2944   41.3077   49.0411 C   0  0  0  0  0  2  0  0  0  0  0  0
    4.7575   41.2225   47.0786 C   0  0  0  0  0  0  0  0  0  0  0  0
    3.5700   40.7401   46.4494 N   0  0  0  0  0  0  0  0  0  0  0  0
    5.6005   41.9181   46.4633 O   0  0  0  0  0  0  0  0  0  0  0  0
    2.2548   40.9988   47.0003 C   0  0  0  0  0  2  0  0  0  0  0  0
    1.1858   40.9667   45.9368 C   0  0  0  0  0  3  0  0  0  0  0  0
    1.5912   41.6707   44.6240 C   0  0  0  0  0  2  0  0  0  0  0  0
    0.6437   42.3380   45.5709 C   0  0  0  0  0  2  0  0  0  0  0  0
    7.4446   43.4377   49.7575 C   0  0  0  0  0  0  0  0  0  0  0  0
    8.5647   43.1696   49.2329 O   0  0  0  0  0  0  0  0  0  0  0  0
    7.3783   44.4984   50.7216 C   0  0  0  0  0  0  0  0  0  0  0  0
    6.1571   44.8302   51.2824 C   0  0  0  0  0  3  0  0  0  0  0  0
    8.5450   45.1507   51.0570 C   0  0  0  0  0  0  0  0  0  0  0  0
    6.1155   45.8668   52.2231 C   0  0  0  0  0  3  0  0  0  0  0  0
    9.8412   45.0610   50.6975 N   0  0  0  0  0  0  0  0  0  0  0  0
    8.4990   46.1799   51.9923 C   0  0  0  0  0  0  0  0  0  0  0  0
    7.2883   46.5171   52.5556 C   0  0  0  0  0  3  0  0  0  0  0  0
   10.5680   45.9569   51.3466 N   0  0  0  0  0  0  0  0  0  0  0  0
    9.7722   46.6818   52.1700 C   0  0  0  0  0  3  0  0  0  0  0  0
  1  7  1  0
  1  2  1  0
  2  3  1  0
  4  3  1  0
  5  6  1  0
  5  4  1  0
  6  1  1  0
  7  8  1  0
  9  7  2  0
 10  8  1  0
 10 11  1  0
 11 13  1  0
 11 12  1  0
 13 12  1  0
 14  5  1  0
 15 14  2  0
 16 14  1  0
 17 16  2  0
 18 16  1  0
 19 17  1  0
 20 18  1  0
 21 18  2  0
 22 21  1  0
 22 19  2  0
 23 20  1  0
 24 21  1  0
 24 23  2  0
M  RAD  8   1   2   2   3   3   3   4   3   6   3  10   3  11   2  12   3
M  RAD  5  13   3  17   2  19   2  22   2  24   2
M  END
>  <REMARK>  (1) 
 SMILES O=C(NCC1CC1)C1CCCN(C(=O)c2cccc3cn[nH]c23)C1
 SMILES IDX 8 1 9 2 10 3 11 4 12 5 24 6 2 7 3 8 1 9 4 11 5 12 6 13 7 14
 SMILES IDX 13 15 14 16 15 17 16 18 23 19 17 20 22 21 19 22 18 23 21 24
 SMILES IDX 20 25
 H PARENT 3 10 22 26

>  <TORSDO>  (1) 
F 5

$$$$
