/home/pchatterjee/Documents/git/vs_workflow/DiffDock/diffdock_run/pdbqt_scrubbed/Z1719484408.pdbqt
     RDKit          3D

 28 30  0  0  1  0  0  0  0  0999 V2000
   12.7078   63.6376   83.1366 C   0  0  0  0  0  2  0  0  0  0  0  0
   12.4165   65.0587   83.1074 N   0  0  0  0  0  0  0  0  0  0  0  0
   11.2890   65.6085   82.4364 C   0  0  0  0  0  0  0  0  0  0  0  0
   10.2527   64.9545   82.1663 O   0  0  0  0  0  0  0  0  0  0  0  0
   11.3174   67.0088   82.0306 C   0  0  0  0  0  0  0  0  0  0  0  0
   10.1654   67.7772   82.1444 C   0  0  0  0  0  0  0  0  0  0  0  0
   10.2253   69.0958   81.7527 C   0  0  0  0  0  3  0  0  0  0  0  0
   11.3854   69.6550   81.2597 C   0  0  0  0  0  3  0  0  0  0  0  0
   12.4808   67.5782   81.5337 C   0  0  0  0  0  3  0  0  0  0  0  0
   12.5373   68.8981   81.1427 C   0  0  0  0  0  3  0  0  0  0  0  0
    8.9783   67.2873   82.6255 O   0  0  0  0  0  0  0  0  0  0  0  0
    7.8699   68.1810   82.7084 C   0  0  0  0  0  1  0  0  0  0  0  0
   13.3975   63.3511   84.4264 C   0  0  0  0  0  0  0  0  0  0  0  0
   13.9631   62.0706   84.6981 N   0  0  0  0  0  0  0  0  0  0  0  0
   14.0647   61.1268   83.6039 C   0  0  0  0  0  2  0  0  0  0  0  0
   14.4068   61.7757   86.0478 C   0  0  0  0  0  2  0  0  0  0  0  0
   15.2776   60.2639   83.7136 C   0  0  0  0  0  2  0  0  0  0  0  0
   15.8565   61.2973   85.9195 C   0  0  0  0  0  2  0  0  0  0  0  0
   15.7513   60.0002   85.1065 C   0  0  0  0  0  3  0  0  0  0  0  0
   13.4952   64.2573   85.3212 O   0  0  0  0  0  0  0  0  0  0  0  0
   14.8613   59.0862   85.9046 C   0  0  0  0  0  2  0  0  0  0  0  0
   14.4421   57.9396   85.2309 O   0  0  0  0  0  0  0  0  0  0  0  0
   14.5412   56.7115   85.8702 C   0  0  0  0  0  0  0  0  0  0  0  0
   15.7823   56.2354   86.2461 C   0  0  0  0  0  3  0  0  0  0  0  0
   13.4568   55.9152   86.1624 C   0  0  0  0  0  3  0  0  0  0  0  0
   15.9370   55.0109   86.8895 C   0  0  0  0  0  3  0  0  0  0  0  0
   13.5633   54.7055   86.7930 C   0  0  0  0  0  3  0  0  0  0  0  0
   14.8081   54.2646   87.1513 C   0  0  0  0  0  3  0  0  0  0  0  0
  2  3  1  0
  2  1  1  0
  3  4  2  0
  5  9  1  0
  5  3  1  0
  6  5  2  0
  7  8  2  0
  7  6  1  0
  8 10  1  0
 10  9  2  0
 11  6  1  0
 12 11  1  0
 13 20  2  0
 13  1  1  0
 14 13  1  0
 15 14  1  0
 16 14  1  0
 17 15  1  0
 18 16  1  0
 19 21  1  0
 19 18  1  0
 19 17  1  0
 21 22  1  0
 23 24  2  0
 23 22  1  0
 25 23  1  0
 26 24  1  0
 27 28  1  0
 27 25  2  0
 28 26  2  0
M  RAD  8   1   3   7   2   8   2   9   2  10   2  12   2  15   3  16   3
M  RAD  8  17   3  18   3  19   2  21   3  24   2  25   2  26   2  27   2
M  RAD  1  28   2
M  END
>  <REMARK>  (1) 
 SMILES COc1ccccc1C(=O)NCC(=O)N1CCC(COc2ccccc2)CC1
 SMILES IDX 12 1 11 2 9 3 10 4 8 6 3 7 4 8 5 9 7 10 6 11 2 12 1 13 13 14
 SMILES IDX 15 15 16 16 28 17 17 18 27 19 18 20 14 21 19 22 20 23 21 24
 SMILES IDX 22 25 26 26 23 27 25 28 24 29
 H PARENT 11 5

>  <TORSDO>  (1) 
F 7

$$$$
