/home/pchatterjee/Documents/git/vs_workflow/DiffDock/diffdock_run/pdbqt_scrubbed/Z1719484408.pdbqt
     RDKit          3D

 28 30  0  0  1  0  0  0  0  0999 V2000
   11.3670   86.5252   71.2296 C   0  0  0  0  0  2  0  0  0  0  0  0
   12.6757   86.0766   70.7921 N   0  0  0  0  0  0  0  0  0  0  0  0
   13.5107   85.2318   71.5750 C   0  0  0  0  0  0  0  0  0  0  0  0
   13.1513   84.7068   72.6566 O   0  0  0  0  0  0  0  0  0  0  0  0
   14.8642   84.9463   71.1135 C   0  0  0  0  0  0  0  0  0  0  0  0
   15.3989   83.6783   71.3055 C   0  0  0  0  0  0  0  0  0  0  0  0
   16.6793   83.4410   70.8583 C   0  0  0  0  0  3  0  0  0  0  0  0
   17.4244   84.4205   70.2360 C   0  0  0  0  0  3  0  0  0  0  0  0
   15.6198   85.9265   70.4867 C   0  0  0  0  0  3  0  0  0  0  0  0
   16.9008   85.6857   70.0404 C   0  0  0  0  0  3  0  0  0  0  0  0
   14.7157   82.6578   71.9158 O   0  0  0  0  0  0  0  0  0  0  0  0
   15.2815   81.3495   71.8655 C   0  0  0  0  0  1  0  0  0  0  0  0
   10.3688   85.5352   70.7347 C   0  0  0  0  0  0  0  0  0  0  0  0
    9.7791   84.5747   71.6081 N   0  0  0  0  0  0  0  0  0  0  0  0
    8.6867   83.7721   71.0972 C   0  0  0  0  0  2  0  0  0  0  0  0
   10.2973   84.4474   72.9575 C   0  0  0  0  0  2  0  0  0  0  0  0
    8.6875   82.3913   71.6639 C   0  0  0  0  0  2  0  0  0  0  0  0
   10.6237   82.9624   73.1452 C   0  0  0  0  0  2  0  0  0  0  0  0
    9.2616   82.2641   73.0380 C   0  0  0  0  0  3  0  0  0  0  0  0
   10.0200   85.5295   69.5060 O   0  0  0  0  0  0  0  0  0  0  0  0
    8.4089   82.8575   74.1267 C   0  0  0  0  0  2  0  0  0  0  0  0
    8.7622   82.4788   75.4213 O   0  0  0  0  0  0  0  0  0  0  0  0
    8.3518   81.2397   75.8938 C   0  0  0  0  0  0  0  0  0  0  0  0
    7.0729   80.7942   75.6212 C   0  0  0  0  0  3  0  0  0  0  0  0
    9.1552   80.4031   76.6353 C   0  0  0  0  0  3  0  0  0  0  0  0
    6.6117   79.5605   76.0711 C   0  0  0  0  0  3  0  0  0  0  0  0
    8.7428   79.1829   77.0974 C   0  0  0  0  0  3  0  0  0  0  0  0
    7.4695   78.7731   76.8088 C   0  0  0  0  0  3  0  0  0  0  0  0
  2  3  1  0
  2  1  1  0
  3  4  2  0
  5  9  1  0
  5  3  1  0
  6  5  2  0
  7  8  2  0
  7  6  1  0
  8 10  1  0
 10  9  2  0
 11  6  1  0
 12 11  1  0
 13 20  2  0
 13  1  1  0
 14 13  1  0
 15 14  1  0
 16 14  1  0
 17 15  1  0
 18 16  1  0
 19 21  1  0
 19 18  1  0
 19 17  1  0
 21 22  1  0
 23 24  2  0
 23 22  1  0
 25 23  1  0
 26 24  1  0
 27 28  1  0
 27 25  2  0
 28 26  2  0
M  RAD  8   1   3   7   2   8   2   9   2  10   2  12   2  15   3  16   3
M  RAD  8  17   3  18   3  19   2  21   3  24   2  25   2  26   2  27   2
M  RAD  1  28   2
M  END
>  <REMARK>  (1) 
 SMILES COc1ccccc1C(=O)NCC(=O)N1CCC(COc2ccccc2)CC1
 SMILES IDX 12 1 11 2 9 3 10 4 8 6 3 7 4 8 5 9 7 10 6 11 2 12 1 13 13 14
 SMILES IDX 15 15 16 16 28 17 17 18 27 19 18 20 14 21 19 22 20 23 21 24
 SMILES IDX 22 25 26 26 23 27 25 28 24 29
 H PARENT 11 5

>  <TORSDO>  (1) 
F 7

$$$$
