/home/pchatterjee/Documents/git/vs_workflow/DiffDock/diffdock_run/pdbqt_scrubbed/Z1719484408.pdbqt
     RDKit          3D

 28 30  0  0  1  0  0  0  0  0999 V2000
    9.5900   62.1947   55.1127 C   0  0  0  0  0  2  0  0  0  0  0  0
    9.5494   60.7722   55.3960 N   0  0  0  0  0  0  0  0  0  0  0  0
    8.3454   60.0145   55.4049 C   0  0  0  0  0  0  0  0  0  0  0  0
    7.2066   60.5153   55.2407 O   0  0  0  0  0  0  0  0  0  0  0  0
    8.4150   58.5732   55.6151 C   0  0  0  0  0  0  0  0  0  0  0  0
    7.2398   57.8433   55.7431 C   0  0  0  0  0  0  0  0  0  0  0  0
    7.3398   56.4843   55.9406 C   0  0  0  0  0  3  0  0  0  0  0  0
    8.5616   55.8489   56.0121 C   0  0  0  0  0  3  0  0  0  0  0  0
    9.6405   57.9270   55.6881 C   0  0  0  0  0  3  0  0  0  0  0  0
    9.7371   56.5670   55.8859 C   0  0  0  0  0  3  0  0  0  0  0  0
    5.9920   58.4089   55.6823 O   0  0  0  0  0  0  0  0  0  0  0  0
    4.8637   57.5677   55.9140 C   0  0  0  0  0  1  0  0  0  0  0  0
   11.0087   62.5513   54.8273 C   0  0  0  0  0  0  0  0  0  0  0  0
   11.3623   63.8283   54.3006 N   0  0  0  0  0  0  0  0  0  0  0  0
   10.3410   64.8551   54.2650 C   0  0  0  0  0  2  0  0  0  0  0  0
   12.7184   64.0376   53.8287 C   0  0  0  0  0  2  0  0  0  0  0  0
   10.9035   66.2188   54.4923 C   0  0  0  0  0  2  0  0  0  0  0  0
   13.2275   65.2890   54.5510 C   0  0  0  0  0  2  0  0  0  0  0  0
   12.3151   66.4121   54.0406 C   0  0  0  0  0  3  0  0  0  0  0  0
   11.9433   61.7101   55.0518 O   0  0  0  0  0  0  0  0  0  0  0  0
   12.4929   66.4388   52.5466 C   0  0  0  0  0  2  0  0  0  0  0  0
   13.8112   66.3149   52.1099 O   0  0  0  0  0  0  0  0  0  0  0  0
   14.4449   67.4234   51.5652 C   0  0  0  0  0  0  0  0  0  0  0  0
   14.1106   67.8444   50.2926 C   0  0  0  0  0  3  0  0  0  0  0  0
   15.4094   68.1505   52.2257 C   0  0  0  0  0  3  0  0  0  0  0  0
   14.7154   68.9492   49.7002 C   0  0  0  0  0  3  0  0  0  0  0  0
   16.0292   69.2422   51.6814 C   0  0  0  0  0  3  0  0  0  0  0  0
   15.6737   69.6314   50.4186 C   0  0  0  0  0  3  0  0  0  0  0  0
  2  3  1  0
  2  1  1  0
  3  4  2  0
  5  9  1  0
  5  3  1  0
  6  5  2  0
  7  8  2  0
  7  6  1  0
  8 10  1  0
 10  9  2  0
 11  6  1  0
 12 11  1  0
 13 20  2  0
 13  1  1  0
 14 13  1  0
 15 14  1  0
 16 14  1  0
 17 15  1  0
 18 16  1  0
 19 21  1  0
 19 18  1  0
 19 17  1  0
 21 22  1  0
 23 24  2  0
 23 22  1  0
 25 23  1  0
 26 24  1  0
 27 28  1  0
 27 25  2  0
 28 26  2  0
M  RAD  8   1   3   7   2   8   2   9   2  10   2  12   2  15   3  16   3
M  RAD  8  17   3  18   3  19   2  21   3  24   2  25   2  26   2  27   2
M  RAD  1  28   2
M  END
>  <REMARK>  (1) 
 SMILES COc1ccccc1C(=O)NCC(=O)N1CCC(COc2ccccc2)CC1
 SMILES IDX 12 1 11 2 9 3 10 4 8 6 3 7 4 8 5 9 7 10 6 11 2 12 1 13 13 14
 SMILES IDX 15 15 16 16 28 17 17 18 27 19 18 20 14 21 19 22 20 23 21 24
 SMILES IDX 22 25 26 26 23 27 25 28 24 29
 H PARENT 11 5

>  <TORSDO>  (1) 
F 7

$$$$
