/home/pchatterjee/Documents/git/vs_workflow/DiffDock/diffdock_run/pdbqt_scrubbed/Z1719484408.pdbqt
     RDKit          3D

 28 30  0  0  1  0  0  0  0  0999 V2000
    8.3327   44.2314   50.9762 C   0  0  0  0  0  2  0  0  0  0  0  0
    7.1276   44.9165   51.4049 N   0  0  0  0  0  0  0  0  0  0  0  0
    7.1390   46.0349   52.2840 C   0  0  0  0  0  0  0  0  0  0  0  0
    8.1884   46.5921   52.6879 O   0  0  0  0  0  0  0  0  0  0  0  0
    5.8716   46.5809   52.7549 C   0  0  0  0  0  0  0  0  0  0  0  0
    5.8750   47.6081   53.6905 C   0  0  0  0  0  0  0  0  0  0  0  0
    4.6616   48.1016   54.1147 C   0  0  0  0  0  3  0  0  0  0  0  0
    3.4678   47.6037   53.6364 C   0  0  0  0  0  3  0  0  0  0  0  0
    4.6667   46.0851   52.2783 C   0  0  0  0  0  3  0  0  0  0  0  0
    3.4542   46.5812   52.7049 C   0  0  0  0  0  3  0  0  0  0  0  0
    7.0230   48.1507   54.2085 O   0  0  0  0  0  0  0  0  0  0  0  0
    6.8965   49.1084   55.2578 C   0  0  0  0  0  1  0  0  0  0  0  0
    8.1656   43.8979   49.5332 C   0  0  0  0  0  0  0  0  0  0  0  0
    7.0701   43.1085   49.0751 N   0  0  0  0  0  0  0  0  0  0  0  0
    7.2822   42.2551   47.9239 C   0  0  0  0  0  2  0  0  0  0  0  0
    5.8040   43.1967   49.7784 C   0  0  0  0  0  2  0  0  0  0  0  0
    6.4979   40.9880   48.0085 C   0  0  0  0  0  2  0  0  0  0  0  0
    5.4175   41.7571   50.1323 C   0  0  0  0  0  2  0  0  0  0  0  0
    5.2153   41.0791   48.7706 C   0  0  0  0  0  3  0  0  0  0  0  0
    9.0101   44.3179   48.6718 O   0  0  0  0  0  0  0  0  0  0  0  0
    4.1335   41.8628   48.0781 C   0  0  0  0  0  2  0  0  0  0  0  0
    4.0107   41.6132   46.7118 O   0  0  0  0  0  0  0  0  0  0  0  0
    2.8728   42.0521   46.0488 C   0  0  0  0  0  0  0  0  0  0  0  0
    2.9584   42.4322   44.7234 C   0  0  0  0  0  3  0  0  0  0  0  0
    1.6320   42.1362   46.6394 C   0  0  0  0  0  3  0  0  0  0  0  0
    1.8484   42.8796   44.0129 C   0  0  0  0  0  3  0  0  0  0  0  0
    0.5151   42.5701   45.9785 C   0  0  0  0  0  3  0  0  0  0  0  0
    0.6362   42.9387   44.6664 C   0  0  0  0  0  3  0  0  0  0  0  0
  2  3  1  0
  2  1  1  0
  3  4  2  0
  5  9  1  0
  5  3  1  0
  6  5  2  0
  7  8  2  0
  7  6  1  0
  8 10  1  0
 10  9  2  0
 11  6  1  0
 12 11  1  0
 13 20  2  0
 13  1  1  0
 14 13  1  0
 15 14  1  0
 16 14  1  0
 17 15  1  0
 18 16  1  0
 19 21  1  0
 19 18  1  0
 19 17  1  0
 21 22  1  0
 23 24  2  0
 23 22  1  0
 25 23  1  0
 26 24  1  0
 27 28  1  0
 27 25  2  0
 28 26  2  0
M  RAD  8   1   3   7   2   8   2   9   2  10   2  12   2  15   3  16   3
M  RAD  8  17   3  18   3  19   2  21   3  24   2  25   2  26   2  27   2
M  RAD  1  28   2
M  END
>  <REMARK>  (1) 
 SMILES COc1ccccc1C(=O)NCC(=O)N1CCC(COc2ccccc2)CC1
 SMILES IDX 12 1 11 2 9 3 10 4 8 6 3 7 4 8 5 9 7 10 6 11 2 12 1 13 13 14
 SMILES IDX 15 15 16 16 28 17 17 18 27 19 18 20 14 21 19 22 20 23 21 24
 SMILES IDX 22 25 26 26 23 27 25 28 24 29
 H PARENT 11 5

>  <TORSDO>  (1) 
F 7

$$$$
