/home/pchatterjee/Documents/git/vs_workflow/DiffDock/diffdock_run/pdbqt_scrubbed/Z1719484408.pdbqt
     RDKit          3D

 28 30  0  0  1  0  0  0  0  0999 V2000
   12.2185   63.4774   83.1780 C   0  0  0  0  0  2  0  0  0  0  0  0
   12.2659   64.7062   82.4079 N   0  0  0  0  0  0  0  0  0  0  0  0
   11.5327   65.8736   82.7591 C   0  0  0  0  0  0  0  0  0  0  0  0
   10.8706   65.9870   83.8190 O   0  0  0  0  0  0  0  0  0  0  0  0
   11.5369   67.0146   81.8512 C   0  0  0  0  0  0  0  0  0  0  0  0
   10.3294   67.5559   81.4276 C   0  0  0  0  0  0  0  0  0  0  0  0
   10.3676   68.6328   80.5705 C   0  0  0  0  0  3  0  0  0  0  0  0
   11.5597   69.1719   80.1345 C   0  0  0  0  0  3  0  0  0  0  0  0
   12.7321   67.5623   81.4083 C   0  0  0  0  0  3  0  0  0  0  0  0
   12.7669   68.6400   80.5506 C   0  0  0  0  0  3  0  0  0  0  0  0
    9.1082   67.0711   81.8206 O   0  0  0  0  0  0  0  0  0  0  0  0
    7.9413   67.6326   81.2227 C   0  0  0  0  0  1  0  0  0  0  0  0
   13.4800   62.7321   82.9050 C   0  0  0  0  0  0  0  0  0  0  0  0
   13.9817   61.7602   83.8199 N   0  0  0  0  0  0  0  0  0  0  0  0
   15.2094   61.0728   83.4754 C   0  0  0  0  0  2  0  0  0  0  0  0
   13.2442   61.5076   85.0437 C   0  0  0  0  0  2  0  0  0  0  0  0
   16.0363   60.7578   84.6774 C   0  0  0  0  0  2  0  0  0  0  0  0
   14.2544   61.6649   86.1846 C   0  0  0  0  0  2  0  0  0  0  0  0
   15.2699   60.5403   85.9421 C   0  0  0  0  0  3  0  0  0  0  0  0
   14.1414   62.9531   81.8349 O   0  0  0  0  0  0  0  0  0  0  0  0
   14.4810   59.2594   85.9799 C   0  0  0  0  0  2  0  0  0  0  0  0
   15.1202   58.1592   85.4097 O   0  0  0  0  0  0  0  0  0  0  0  0
   15.1341   56.9569   86.1035 C   0  0  0  0  0  0  0  0  0  0  0  0
   14.1274   56.0348   85.8922 C   0  0  0  0  0  3  0  0  0  0  0  0
   16.1095   56.6130   87.0121 C   0  0  0  0  0  3  0  0  0  0  0  0
   14.0942   54.8150   86.5616 C   0  0  0  0  0  3  0  0  0  0  0  0
   16.1157   55.4256   87.6919 C   0  0  0  0  0  3  0  0  0  0  0  0
   15.1032   54.5354   87.4581 C   0  0  0  0  0  3  0  0  0  0  0  0
  2  3  1  0
  2  1  1  0
  3  4  2  0
  5  9  1  0
  5  3  1  0
  6  5  2  0
  7  8  2  0
  7  6  1  0
  8 10  1  0
 10  9  2  0
 11  6  1  0
 12 11  1  0
 13 20  2  0
 13  1  1  0
 14 13  1  0
 15 14  1  0
 16 14  1  0
 17 15  1  0
 18 16  1  0
 19 21  1  0
 19 18  1  0
 19 17  1  0
 21 22  1  0
 23 24  2  0
 23 22  1  0
 25 23  1  0
 26 24  1  0
 27 28  1  0
 27 25  2  0
 28 26  2  0
M  RAD  8   1   3   7   2   8   2   9   2  10   2  12   2  15   3  16   3
M  RAD  8  17   3  18   3  19   2  21   3  24   2  25   2  26   2  27   2
M  RAD  1  28   2
M  END
>  <REMARK>  (1) 
 SMILES COc1ccccc1C(=O)NCC(=O)N1CCC(COc2ccccc2)CC1
 SMILES IDX 12 1 11 2 9 3 10 4 8 6 3 7 4 8 5 9 7 10 6 11 2 12 1 13 13 14
 SMILES IDX 15 15 16 16 28 17 17 18 27 19 18 20 14 21 19 22 20 23 21 24
 SMILES IDX 22 25 26 26 23 27 25 28 24 29
 H PARENT 11 5

>  <TORSDO>  (1) 
F 7

$$$$
