/home/pchatterjee/Documents/git/vs_workflow/DiffDock/diffdock_run/pdbqt_scrubbed/Z1719484408.pdbqt
     RDKit          3D

 28 30  0  0  1  0  0  0  0  0999 V2000
   11.4108   61.0312   83.0664 C   0  0  0  0  0  2  0  0  0  0  0  0
   12.0517   61.0188   84.3680 N   0  0  0  0  0  0  0  0  0  0  0  0
   13.4069   61.4007   84.5720 C   0  0  0  0  0  0  0  0  0  0  0  0
   14.1794   61.7468   83.6457 O   0  0  0  0  0  0  0  0  0  0  0  0
   13.9496   61.3970   85.9254 C   0  0  0  0  0  0  0  0  0  0  0  0
   14.6112   60.2686   86.3937 C   0  0  0  0  0  0  0  0  0  0  0  0
   15.1120   60.2970   87.6760 C   0  0  0  0  0  3  0  0  0  0  0  0
   14.9707   61.4038   88.4864 C   0  0  0  0  0  3  0  0  0  0  0  0
   13.8114   62.5067   86.7465 C   0  0  0  0  0  3  0  0  0  0  0  0
   14.3137   62.5319   88.0291 C   0  0  0  0  0  3  0  0  0  0  0  0
   14.7882   59.1342   85.6436 O   0  0  0  0  0  0  0  0  0  0  0  0
   15.6463   58.1182   86.1589 C   0  0  0  0  0  1  0  0  0  0  0  0
   10.0664   61.6512   83.2382 C   0  0  0  0  0  0  0  0  0  0  0  0
    9.8562   63.0435   83.0136 N   0  0  0  0  0  0  0  0  0  0  0  0
    8.5096   63.5587   83.1541 C   0  0  0  0  0  2  0  0  0  0  0  0
   10.9926   63.8725   82.6576 C   0  0  0  0  0  2  0  0  0  0  0  0
    8.4910   64.9505   83.6930 C   0  0  0  0  0  2  0  0  0  0  0  0
   10.9930   65.0370   83.6531 C   0  0  0  0  0  2  0  0  0  0  0  0
    9.6856   65.7831   83.3557 C   0  0  0  0  0  3  0  0  0  0  0  0
    9.0677   60.9386   83.5934 O   0  0  0  0  0  0  0  0  0  0  0  0
    9.7684   66.1974   81.9115 C   0  0  0  0  0  2  0  0  0  0  0  0
   11.0593   66.4389   81.4431 O   0  0  0  0  0  0  0  0  0  0  0  0
   11.3771   67.7063   80.9743 C   0  0  0  0  0  0  0  0  0  0  0  0
   10.3974   68.4823   80.3857 C   0  0  0  0  0  3  0  0  0  0  0  0
   12.6364   68.2560   81.0589 C   0  0  0  0  0  3  0  0  0  0  0  0
   10.6631   69.7591   79.8995 C   0  0  0  0  0  3  0  0  0  0  0  0
   12.9414   69.5064   80.5942 C   0  0  0  0  0  3  0  0  0  0  0  0
   11.9466   70.2476   80.0168 C   0  0  0  0  0  3  0  0  0  0  0  0
  2  3  1  0
  2  1  1  0
  3  4  2  0
  5  9  1  0
  5  3  1  0
  6  5  2  0
  7  8  2  0
  7  6  1  0
  8 10  1  0
 10  9  2  0
 11  6  1  0
 12 11  1  0
 13 20  2  0
 13  1  1  0
 14 13  1  0
 15 14  1  0
 16 14  1  0
 17 15  1  0
 18 16  1  0
 19 21  1  0
 19 18  1  0
 19 17  1  0
 21 22  1  0
 23 24  2  0
 23 22  1  0
 25 23  1  0
 26 24  1  0
 27 28  1  0
 27 25  2  0
 28 26  2  0
M  RAD  8   1   3   7   2   8   2   9   2  10   2  12   2  15   3  16   3
M  RAD  8  17   3  18   3  19   2  21   3  24   2  25   2  26   2  27   2
M  RAD  1  28   2
M  END
>  <REMARK>  (1) 
 SMILES COc1ccccc1C(=O)NCC(=O)N1CCC(COc2ccccc2)CC1
 SMILES IDX 12 1 11 2 9 3 10 4 8 6 3 7 4 8 5 9 7 10 6 11 2 12 1 13 13 14
 SMILES IDX 15 15 16 16 28 17 17 18 27 19 18 20 14 21 19 22 20 23 21 24
 SMILES IDX 22 25 26 26 23 27 25 28 24 29
 H PARENT 11 5

>  <TORSDO>  (1) 
F 7

$$$$
