/home/pchatterjee/Documents/git/vs_workflow/DiffDock/diffdock_run/pdbqt_scrubbed/Z1719484408.pdbqt
     RDKit          3D

 28 30  0  0  1  0  0  0  0  0999 V2000
    8.3756   45.3712   50.7767 C   0  0  0  0  0  2  0  0  0  0  0  0
    8.0976   43.9605   50.5813 N   0  0  0  0  0  0  0  0  0  0  0  0
    7.8287   43.3895   49.3064 C   0  0  0  0  0  0  0  0  0  0  0  0
    8.6192   43.4546   48.3340 O   0  0  0  0  0  0  0  0  0  0  0  0
    6.5700   42.6844   49.0954 C   0  0  0  0  0  0  0  0  0  0  0  0
    5.4653   43.0098   49.8726 C   0  0  0  0  0  0  0  0  0  0  0  0
    4.2917   42.3256   49.6485 C   0  0  0  0  0  3  0  0  0  0  0  0
    4.1963   41.3431   48.6855 C   0  0  0  0  0  3  0  0  0  0  0  0
    6.4665   41.6949   48.1285 C   0  0  0  0  0  3  0  0  0  0  0  0
    5.2906   41.0121   47.9068 C   0  0  0  0  0  3  0  0  0  0  0  0
    5.4883   43.9747   50.8468 O   0  0  0  0  0  0  0  0  0  0  0  0
    4.3650   44.0707   51.7205 C   0  0  0  0  0  1  0  0  0  0  0  0
    8.8975   45.5340   52.1632 C   0  0  0  0  0  0  0  0  0  0  0  0
    8.5283   46.6506   52.9697 N   0  0  0  0  0  0  0  0  0  0  0  0
    8.5168   46.4759   54.4077 C   0  0  0  0  0  2  0  0  0  0  0  0
    8.1842   47.8998   52.3167 C   0  0  0  0  0  2  0  0  0  0  0  0
    8.9202   47.7178   55.1305 C   0  0  0  0  0  2  0  0  0  0  0  0
    9.0636   48.9719   52.9681 C   0  0  0  0  0  2  0  0  0  0  0  0
    8.5988   48.9986   54.4302 C   0  0  0  0  0  3  0  0  0  0  0  0
    9.6934   44.6669   52.6592 O   0  0  0  0  0  0  0  0  0  0  0  0
    7.1327   49.3351   54.3891 C   0  0  0  0  0  2  0  0  0  0  0  0
    6.7850   50.3348   53.4814 O   0  0  0  0  0  0  0  0  0  0  0  0
    5.8460   51.2856   53.8572 C   0  0  0  0  0  0  0  0  0  0  0  0
    4.5000   51.0127   53.7075 C   0  0  0  0  0  3  0  0  0  0  0  0
    6.1749   52.5147   54.3829 C   0  0  0  0  0  3  0  0  0  0  0  0
    3.5183   51.9308   54.0684 C   0  0  0  0  0  3  0  0  0  0  0  0
    5.2428   53.4465   54.7508 C   0  0  0  0  0  3  0  0  0  0  0  0
    3.9185   53.1428   54.5888 C   0  0  0  0  0  3  0  0  0  0  0  0
  2  3  1  0
  2  1  1  0
  3  4  2  0
  5  9  1  0
  5  3  1  0
  6  5  2  0
  7  8  2  0
  7  6  1  0
  8 10  1  0
 10  9  2  0
 11  6  1  0
 12 11  1  0
 13 20  2  0
 13  1  1  0
 14 13  1  0
 15 14  1  0
 16 14  1  0
 17 15  1  0
 18 16  1  0
 19 21  1  0
 19 18  1  0
 19 17  1  0
 21 22  1  0
 23 24  2  0
 23 22  1  0
 25 23  1  0
 26 24  1  0
 27 28  1  0
 27 25  2  0
 28 26  2  0
M  RAD  8   1   3   7   2   8   2   9   2  10   2  12   2  15   3  16   3
M  RAD  8  17   3  18   3  19   2  21   3  24   2  25   2  26   2  27   2
M  RAD  1  28   2
M  END
>  <REMARK>  (1) 
 SMILES COc1ccccc1C(=O)NCC(=O)N1CCC(COc2ccccc2)CC1
 SMILES IDX 12 1 11 2 9 3 10 4 8 6 3 7 4 8 5 9 7 10 6 11 2 12 1 13 13 14
 SMILES IDX 15 15 16 16 28 17 17 18 27 19 18 20 14 21 19 22 20 23 21 24
 SMILES IDX 22 25 26 26 23 27 25 28 24 29
 H PARENT 11 5

>  <TORSDO>  (1) 
F 7

$$$$
