/home/pchatterjee/Documents/git/vs_workflow/DiffDock/diffdock_run/pdbqt_scrubbed/Z1719484408.pdbqt
     RDKit          3D

 28 30  0  0  1  0  0  0  0  0999 V2000
   10.2427   61.5686   83.7137 C   0  0  0  0  0  2  0  0  0  0  0  0
   11.0100   61.4795   84.9420 N   0  0  0  0  0  0  0  0  0  0  0  0
   12.4235   61.6333   84.9896 C   0  0  0  0  0  0  0  0  0  0  0  0
   13.1381   61.8180   83.9748 O   0  0  0  0  0  0  0  0  0  0  0  0
   13.1008   61.5765   86.2796 C   0  0  0  0  0  0  0  0  0  0  0  0
   14.0588   60.5960   86.5065 C   0  0  0  0  0  0  0  0  0  0  0  0
   14.6799   60.5695   87.7349 C   0  0  0  0  0  3  0  0  0  0  0  0
   14.3736   61.4809   88.7235 C   0  0  0  0  0  3  0  0  0  0  0  0
   12.7979   62.4900   87.2789 C   0  0  0  0  0  3  0  0  0  0  0  0
   13.4214   62.4606   88.5071 C   0  0  0  0  0  3  0  0  0  0  0  0
   14.4129   59.6588   85.5701 O   0  0  0  0  0  0  0  0  0  0  0  0
   15.4257   58.7161   85.9163 C   0  0  0  0  0  1  0  0  0  0  0  0
    9.4166   62.8065   83.7938 C   0  0  0  0  0  0  0  0  0  0  0  0
    9.8857   64.0478   83.2719 N   0  0  0  0  0  0  0  0  0  0  0  0
   11.1810   64.0663   82.6236 C   0  0  0  0  0  2  0  0  0  0  0  0
    9.0495   65.2252   83.4138 C   0  0  0  0  0  2  0  0  0  0  0  0
   11.2320   65.0379   81.4918 C   0  0  0  0  0  2  0  0  0  0  0  0
    8.9074   65.8131   82.0063 C   0  0  0  0  0  2  0  0  0  0  0  0
   10.3360   66.2264   81.6281 C   0  0  0  0  0  3  0  0  0  0  0  0
    8.2611   62.7773   84.3373 O   0  0  0  0  0  0  0  0  0  0  0  0
   10.7685   67.2157   82.6762 C   0  0  0  0  0  2  0  0  0  0  0  0
   10.9817   68.5116   82.2081 O   0  0  0  0  0  0  0  0  0  0  0  0
   12.2489   68.8653   81.7650 C   0  0  0  0  0  0  0  0  0  0  0  0
   12.3843   69.6247   80.6190 C   0  0  0  0  0  3  0  0  0  0  0  0
   13.4101   68.5002   82.4081 C   0  0  0  0  0  3  0  0  0  0  0  0
   13.6311   70.0062   80.1320 C   0  0  0  0  0  3  0  0  0  0  0  0
   14.6555   68.8531   81.9645 C   0  0  0  0  0  3  0  0  0  0  0  0
   14.7527   69.6058   80.8259 C   0  0  0  0  0  3  0  0  0  0  0  0
  2  3  1  0
  2  1  1  0
  3  4  2  0
  5  9  1  0
  5  3  1  0
  6  5  2  0
  7  8  2  0
  7  6  1  0
  8 10  1  0
 10  9  2  0
 11  6  1  0
 12 11  1  0
 13 20  2  0
 13  1  1  0
 14 13  1  0
 15 14  1  0
 16 14  1  0
 17 15  1  0
 18 16  1  0
 19 21  1  0
 19 18  1  0
 19 17  1  0
 21 22  1  0
 23 24  2  0
 23 22  1  0
 25 23  1  0
 26 24  1  0
 27 28  1  0
 27 25  2  0
 28 26  2  0
M  RAD  8   1   3   7   2   8   2   9   2  10   2  12   2  15   3  16   3
M  RAD  8  17   3  18   3  19   2  21   3  24   2  25   2  26   2  27   2
M  RAD  1  28   2
M  END
>  <REMARK>  (1) 
 SMILES COc1ccccc1C(=O)NCC(=O)N1CCC(COc2ccccc2)CC1
 SMILES IDX 12 1 11 2 9 3 10 4 8 6 3 7 4 8 5 9 7 10 6 11 2 12 1 13 13 14
 SMILES IDX 15 15 16 16 28 17 17 18 27 19 18 20 14 21 19 22 20 23 21 24
 SMILES IDX 22 25 26 26 23 27 25 28 24 29
 H PARENT 11 5

>  <TORSDO>  (1) 
F 7

$$$$
