/home/pchatterjee/Documents/git/vs_workflow/DiffDock/diffdock_run/pdbqt_scrubbed/Z1719484408.pdbqt
     RDKit          3D

 28 30  0  0  1  0  0  0  0  0999 V2000
   10.9118   85.0699   69.5165 C   0  0  0  0  0  2  0  0  0  0  0  0
   12.0685   84.2932   69.9216 N   0  0  0  0  0  0  0  0  0  0  0  0
   13.3518   84.8658   70.1432 C   0  0  0  0  0  0  0  0  0  0  0  0
   13.6183   86.0754   69.9418 O   0  0  0  0  0  0  0  0  0  0  0  0
   14.4328   84.0180   70.6318 C   0  0  0  0  0  0  0  0  0  0  0  0
   15.6455   84.5943   70.9893 C   0  0  0  0  0  0  0  0  0  0  0  0
   16.6460   83.7663   71.4468 C   0  0  0  0  0  3  0  0  0  0  0  0
   16.4682   82.4030   71.5539 C   0  0  0  0  0  3  0  0  0  0  0  0
   14.2614   82.6457   70.7422 C   0  0  0  0  0  3  0  0  0  0  0  0
   15.2646   81.8201   71.2005 C   0  0  0  0  0  3  0  0  0  0  0  0
   15.8918   85.9409   70.9085 O   0  0  0  0  0  0  0  0  0  0  0  0
   17.2279   86.3911   71.1240 C   0  0  0  0  0  1  0  0  0  0  0  0
   10.2275   85.5297   70.7582 C   0  0  0  0  0  0  0  0  0  0  0  0
    9.7040   84.6011   71.7053 N   0  0  0  0  0  0  0  0  0  0  0  0
    8.5164   83.8558   71.3412 C   0  0  0  0  0  2  0  0  0  0  0  0
   10.3807   84.4478   72.9797 C   0  0  0  0  0  2  0  0  0  0  0  0
    8.5180   82.4770   71.9127 C   0  0  0  0  0  2  0  0  0  0  0  0
   10.6518   82.9480   73.1350 C   0  0  0  0  0  2  0  0  0  0  0  0
    9.2531   82.3208   73.2047 C   0  0  0  0  0  3  0  0  0  0  0  0
   10.0963   86.7772   70.9986 O   0  0  0  0  0  0  0  0  0  0  0  0
    8.5757   82.9577   74.3878 C   0  0  0  0  0  2  0  0  0  0  0  0
    8.9525   82.4427   75.6275 O   0  0  0  0  0  0  0  0  0  0  0  0
    8.4071   81.2373   76.0475 C   0  0  0  0  0  0  0  0  0  0  0  0
    9.2041   80.3183   76.7022 C   0  0  0  0  0  3  0  0  0  0  0  0
    7.0904   80.8872   75.8501 C   0  0  0  0  0  3  0  0  0  0  0  0
    8.7071   79.0955   77.1438 C   0  0  0  0  0  3  0  0  0  0  0  0
    6.5606   79.6966   76.2674 C   0  0  0  0  0  3  0  0  0  0  0  0
    7.3787   78.8097   76.9127 C   0  0  0  0  0  3  0  0  0  0  0  0
  2  3  1  0
  2  1  1  0
  3  4  2  0
  5  9  1  0
  5  3  1  0
  6  5  2  0
  7  8  2  0
  7  6  1  0
  8 10  1  0
 10  9  2  0
 11  6  1  0
 12 11  1  0
 13 20  2  0
 13  1  1  0
 14 13  1  0
 15 14  1  0
 16 14  1  0
 17 15  1  0
 18 16  1  0
 19 21  1  0
 19 18  1  0
 19 17  1  0
 21 22  1  0
 23 24  2  0
 23 22  1  0
 25 23  1  0
 26 24  1  0
 27 28  1  0
 27 25  2  0
 28 26  2  0
M  RAD  8   1   3   7   2   8   2   9   2  10   2  12   2  15   3  16   3
M  RAD  8  17   3  18   3  19   2  21   3  24   2  25   2  26   2  27   2
M  RAD  1  28   2
M  END
>  <REMARK>  (1) 
 SMILES COc1ccccc1C(=O)NCC(=O)N1CCC(COc2ccccc2)CC1
 SMILES IDX 12 1 11 2 9 3 10 4 8 6 3 7 4 8 5 9 7 10 6 11 2 12 1 13 13 14
 SMILES IDX 15 15 16 16 28 17 17 18 27 19 18 20 14 21 19 22 20 23 21 24
 SMILES IDX 22 25 26 26 23 27 25 28 24 29
 H PARENT 11 5

>  <TORSDO>  (1) 
F 7

$$$$
