/home/pchatterjee/Documents/git/vs_workflow/DiffDock/diffdock_run/pdbqt_scrubbed/Z1719484408.pdbqt
     RDKit          3D

 28 30  0  0  1  0  0  0  0  0999 V2000
   20.5329   62.9487   52.4605 C   0  0  0  0  0  2  0  0  0  0  0  0
   21.7837   63.3113   53.1004 N   0  0  0  0  0  0  0  0  0  0  0  0
   22.6483   64.3247   52.6010 C   0  0  0  0  0  0  0  0  0  0  0  0
   22.4616   64.9261   51.5156 O   0  0  0  0  0  0  0  0  0  0  0  0
   23.8233   64.7016   53.3777 C   0  0  0  0  0  0  0  0  0  0  0  0
   24.5666   65.8123   52.9978 C   0  0  0  0  0  0  0  0  0  0  0  0
   25.6704   66.1416   53.7522 C   0  0  0  0  0  3  0  0  0  0  0  0
   26.0428   65.4028   54.8555 C   0  0  0  0  0  3  0  0  0  0  0  0
   24.2041   63.9632   54.4888 C   0  0  0  0  0  3  0  0  0  0  0  0
   25.3092   64.2955   55.2415 C   0  0  0  0  0  3  0  0  0  0  0  0
   24.2548   66.5917   51.9134 O   0  0  0  0  0  0  0  0  0  0  0  0
   25.0880   67.7153   51.6349 C   0  0  0  0  0  1  0  0  0  0  0  0
   19.8481   61.9656   53.3470 C   0  0  0  0  0  0  0  0  0  0  0  0
   18.4402   61.7524   53.2722 N   0  0  0  0  0  0  0  0  0  0  0  0
   17.8036   61.8667   51.9759 C   0  0  0  0  0  2  0  0  0  0  0  0
   17.7169   61.4335   54.4890 C   0  0  0  0  0  2  0  0  0  0  0  0
   16.6624   60.9173   51.8218 C   0  0  0  0  0  2  0  0  0  0  0  0
   16.9342   60.1510   54.1900 C   0  0  0  0  0  2  0  0  0  0  0  0
   15.9500   60.5625   53.0870 C   0  0  0  0  0  3  0  0  0  0  0  0
   20.5175   61.2891   54.1989 O   0  0  0  0  0  0  0  0  0  0  0  0
   15.1227   61.6764   53.6694 C   0  0  0  0  0  2  0  0  0  0  0  0
   14.6660   61.4517   54.9675 O   0  0  0  0  0  0  0  0  0  0  0  0
   13.3004   61.3346   55.1878 C   0  0  0  0  0  0  0  0  0  0  0  0
   12.4961   62.4545   55.1009 C   0  0  0  0  0  3  0  0  0  0  0  0
   12.6776   60.1460   55.4950 C   0  0  0  0  0  3  0  0  0  0  0  0
   11.1219   62.3920   55.3125 C   0  0  0  0  0  3  0  0  0  0  0  0
   11.3305   60.0393   55.7107 C   0  0  0  0  0  3  0  0  0  0  0  0
   10.5639   61.1688   55.6166 C   0  0  0  0  0  3  0  0  0  0  0  0
  2  3  1  0
  2  1  1  0
  3  4  2  0
  5  9  1  0
  5  3  1  0
  6  5  2  0
  7  8  2  0
  7  6  1  0
  8 10  1  0
 10  9  2  0
 11  6  1  0
 12 11  1  0
 13 20  2  0
 13  1  1  0
 14 13  1  0
 15 14  1  0
 16 14  1  0
 17 15  1  0
 18 16  1  0
 19 21  1  0
 19 18  1  0
 19 17  1  0
 21 22  1  0
 23 24  2  0
 23 22  1  0
 25 23  1  0
 26 24  1  0
 27 28  1  0
 27 25  2  0
 28 26  2  0
M  RAD  8   1   3   7   2   8   2   9   2  10   2  12   2  15   3  16   3
M  RAD  8  17   3  18   3  19   2  21   3  24   2  25   2  26   2  27   2
M  RAD  1  28   2
M  END
>  <REMARK>  (1) 
 SMILES COc1ccccc1C(=O)NCC(=O)N1CCC(COc2ccccc2)CC1
 SMILES IDX 12 1 11 2 9 3 10 4 8 6 3 7 4 8 5 9 7 10 6 11 2 12 1 13 13 14
 SMILES IDX 15 15 16 16 28 17 17 18 27 19 18 20 14 21 19 22 20 23 21 24
 SMILES IDX 22 25 26 26 23 27 25 28 24 29
 H PARENT 11 5

>  <TORSDO>  (1) 
F 7

$$$$
