/home/pchatterjee/Documents/git/vs_workflow/DiffDock/diffdock_run/pdbqt_scrubbed/Z1041113928.pdbqt
     RDKit          3D

 31 35  0  0  0  0  0  0  0  0999 V2000
    9.6416   47.5509   53.4129 N   0  0  0  0  0  0  0  0  0  0  0  0
    8.2113   47.7932   53.2807 C   0  0  0  0  0  2  0  0  0  0  0  0
    7.7277   47.5473   51.8808 C   0  0  0  0  0  2  0  0  0  0  0  0
    8.3507   46.3412   51.3661 N   0  0  0  0  0  0  0  0  0  0  0  0
    9.7901   46.1141   51.4326 C   0  0  0  0  0  2  0  0  0  0  0  0
   10.4663   47.1337   52.3153 C   0  0  0  0  0  2  0  0  0  0  0  0
   10.2257   47.7415   54.6919 C   0  0  0  0  0  0  0  0  0  0  0  0
    9.7322   48.7665   55.4855 C   0  0  0  0  0  0  0  0  0  0  0  0
   10.2528   49.0166   56.7523 C   0  0  0  0  0  3  0  0  0  0  0  0
   11.2701   48.2228   57.2011 C   0  0  0  0  0  3  0  0  0  0  0  0
   11.2552   46.9402   55.1489 C   0  0  0  0  0  3  0  0  0  0  0  0
   11.7609   47.1999   56.4062 C   0  0  0  0  0  3  0  0  0  0  0  0
    8.6971   49.5991   55.0683 O   0  0  0  0  0  0  0  0  0  0  0  0
    8.2445   50.6882   55.8692 C   0  0  0  0  0  1  0  0  0  0  0  0
    7.5872   45.2888   50.7556 C   0  0  0  0  0  0  0  0  0  0  0  0
    6.2896   45.1413   51.0925 N   0  0  0  0  0  0  0  0  0  0  0  0
    8.1367   44.4482   49.8567 N   0  0  0  0  0  0  0  0  0  0  0  0
    5.5286   44.1570   50.5381 C   0  0  0  0  0  0  0  0  0  0  0  0
    7.4382   43.4592   49.2762 C   0  0  0  0  0  0  0  0  0  0  0  0
    6.1023   43.3001   49.6170 C   0  0  0  0  0  0  0  0  0  0  0  0
    8.0355   42.6458   48.3831 N   0  0  0  0  0  0  0  0  0  0  0  0
    5.3818   42.3204   49.0521 N   0  0  0  0  0  0  0  0  0  0  0  0
    7.2733   41.6627   47.8302 C   0  0  0  0  0  3  0  0  0  0  0  0
    5.9490   41.4901   48.1554 C   0  0  0  0  0  3  0  0  0  0  0  0
    4.1559   44.0050   50.8978 N   0  0  0  0  0  0  0  0  0  0  0  0
    3.5165   44.7710   51.8912 C   0  0  0  0  0  0  0  0  0  0  0  0
    3.1266   44.2798   53.1196 C   0  0  0  0  0  3  0  0  0  0  0  0
    3.2551   46.1145   51.6278 C   0  0  0  0  0  3  0  0  0  0  0  0
    2.4988   45.0680   54.0716 C   0  0  0  0  0  3  0  0  0  0  0  0
    2.6253   46.9122   52.5781 C   0  0  0  0  0  3  0  0  0  0  0  0
    2.2414   46.4136   53.7975 C   0  0  0  0  0  3  0  0  0  0  0  0
  1  2  1  0
  1  7  1  0
  3  2  1  0
  4  3  1  0
  5  6  1  0
  5  4  1  0
  6  1  1  0
  7 11  1  0
  8  7  2  0
  8  9  1  0
  9 10  2  0
 10 12  1  0
 11 12  2  0
 13 14  1  0
 13  8  1  0
 15  4  1  0
 15 16  2  0
 17 15  1  0
 18 16  1  0
 18 25  1  0
 19 17  2  0
 19 20  1  0
 20 18  2  0
 21 19  1  0
 22 20  1  0
 23 21  2  0
 23 24  1  0
 24 22  2  0
 25 26  1  0
 26 27  2  0
 26 28  1  0
 27 29  1  0
 28 30  2  0
 29 31  2  0
 30 31  1  0
M  RAD  8   2   3   3   3   5   3   6   3   9   2  10   2  11   2  12   2
M  RAD  8  14   2  23   2  24   2  27   2  28   2  29   2  30   2  31   2
M  END
>  <REMARK>  (1) 
 SMILES COc1ccccc1N1CCN(c2nc(Nc3ccccc3)c3nccnc3n2)CC1
 SMILES IDX 9 1 10 2 11 3 12 4 30 5 31 6 8 7 3 8 4 9 5 10 7 11 6 12 2 13
 SMILES IDX 1 14 13 15 14 16 29 17 15 18 28 19 23 20 27 21 24 22 26 23
 SMILES IDX 25 24 16 25 17 27 18 28 22 29 19 30 21 31 20 32
 H PARENT 16 26

>  <TORSDO>  (1) 
F 5

$$$$
