/home/pchatterjee/Documents/git/vs_workflow/DiffDock/diffdock_run/pdbqt_scrubbed/Z1041113928.pdbqt
     RDKit          3D

 31 35  0  0  0  0  0  0  0  0999 V2000
    2.1082   45.0689   53.8145 N   0  0  0  0  0  0  0  0  0  0  0  0
    3.0543   46.1699   53.9364 C   0  0  0  0  0  2  0  0  0  0  0  0
    4.4724   45.6842   54.0198 C   0  0  0  0  0  2  0  0  0  0  0  0
    4.6659   44.6111   53.0614 N   0  0  0  0  0  0  0  0  0  0  0  0
    3.7629   43.4688   52.9722 C   0  0  0  0  0  2  0  0  0  0  0  0
    2.5131   43.6927   53.7868 C   0  0  0  0  0  2  0  0  0  0  0  0
    0.7300   45.3933   53.7202 C   0  0  0  0  0  0  0  0  0  0  0  0
   -0.1017   45.0049   54.7601 C   0  0  0  0  0  0  0  0  0  0  0  0
   -1.4651   45.2863   54.7410 C   0  0  0  0  0  3  0  0  0  0  0  0
   -1.9708   45.9599   53.6652 C   0  0  0  0  0  3  0  0  0  0  0  0
    0.2152   46.0746   52.6332 C   0  0  0  0  0  3  0  0  0  0  0  0
   -1.1376   46.3465   52.6282 C   0  0  0  0  0  3  0  0  0  0  0  0
    0.3709   44.3172   55.8747 O   0  0  0  0  0  0  0  0  0  0  0  0
    0.8906   45.0030   57.0115 C   0  0  0  0  0  1  0  0  0  0  0  0
    5.7634   44.6041   52.1348 C   0  0  0  0  0  0  0  0  0  0  0  0
    5.7517   43.7242   51.1127 N   0  0  0  0  0  0  0  0  0  0  0  0
    6.8013   45.4544   52.2634 N   0  0  0  0  0  0  0  0  0  0  0  0
    6.7716   43.6830   50.2108 C   0  0  0  0  0  0  0  0  0  0  0  0
    7.8354   45.4618   51.4068 C   0  0  0  0  0  0  0  0  0  0  0  0
    7.8315   44.5598   50.3521 C   0  0  0  0  0  0  0  0  0  0  0  0
    8.8487   46.3330   51.5804 N   0  0  0  0  0  0  0  0  0  0  0  0
    8.8517   44.5461   49.4822 N   0  0  0  0  0  0  0  0  0  0  0  0
    9.8671   46.2903   50.6780 C   0  0  0  0  0  3  0  0  0  0  0  0
    9.8803   45.4041   49.6276 C   0  0  0  0  0  3  0  0  0  0  0  0
    6.7545   42.7501   49.1310 N   0  0  0  0  0  0  0  0  0  0  0  0
    5.6277   41.9854   48.7736 C   0  0  0  0  0  0  0  0  0  0  0  0
    5.3901   41.4983   47.5053 C   0  0  0  0  0  3  0  0  0  0  0  0
    4.6835   41.6950   49.7570 C   0  0  0  0  0  3  0  0  0  0  0  0
    4.2668   40.7482   47.1940 C   0  0  0  0  0  3  0  0  0  0  0  0
    3.5533   40.9427   49.4524 C   0  0  0  0  0  3  0  0  0  0  0  0
    3.3264   40.4628   48.1872 C   0  0  0  0  0  3  0  0  0  0  0  0
  1  2  1  0
  1  7  1  0
  3  2  1  0
  4  3  1  0
  5  6  1  0
  5  4  1  0
  6  1  1  0
  7 11  1  0
  8  7  2  0
  8  9  1  0
  9 10  2  0
 10 12  1  0
 11 12  2  0
 13 14  1  0
 13  8  1  0
 15  4  1  0
 15 16  2  0
 17 15  1  0
 18 16  1  0
 18 25  1  0
 19 17  2  0
 19 20  1  0
 20 18  2  0
 21 19  1  0
 22 20  1  0
 23 21  2  0
 23 24  1  0
 24 22  2  0
 25 26  1  0
 26 27  2  0
 26 28  1  0
 27 29  1  0
 28 30  2  0
 29 31  2  0
 30 31  1  0
M  RAD  8   2   3   3   3   5   3   6   3   9   2  10   2  11   2  12   2
M  RAD  8  14   2  23   2  24   2  27   2  28   2  29   2  30   2  31   2
M  END
>  <REMARK>  (1) 
 SMILES COc1ccccc1N1CCN(c2nc(Nc3ccccc3)c3nccnc3n2)CC1
 SMILES IDX 9 1 10 2 11 3 12 4 30 5 31 6 8 7 3 8 4 9 5 10 7 11 6 12 2 13
 SMILES IDX 1 14 13 15 14 16 29 17 15 18 28 19 23 20 27 21 24 22 26 23
 SMILES IDX 25 24 16 25 17 27 18 28 22 29 19 30 21 31 20 32
 H PARENT 16 26

>  <TORSDO>  (1) 
F 5

$$$$
