/home/pchatterjee/Documents/git/vs_workflow/DiffDock/diffdock_run/pdbqt_scrubbed/Z1041113928.pdbqt
     RDKit          3D

 31 35  0  0  0  0  0  0  0  0999 V2000
    9.3706   47.2895   54.1905 N   0  0  0  0  0  0  0  0  0  0  0  0
   10.1488   46.8297   53.0481 C   0  0  0  0  0  2  0  0  0  0  0  0
    9.8070   45.4180   52.6682 C   0  0  0  0  0  2  0  0  0  0  0  0
    8.3675   45.2416   52.7349 N   0  0  0  0  0  0  0  0  0  0  0  0
    7.5835   45.6374   53.8997 C   0  0  0  0  0  2  0  0  0  0  0  0
    8.4037   46.4656   54.8575 C   0  0  0  0  0  2  0  0  0  0  0  0
    9.5938   48.6140   54.6482 C   0  0  0  0  0  0  0  0  0  0  0  0
   10.5683   48.8118   55.6152 C   0  0  0  0  0  0  0  0  0  0  0  0
   10.8459   50.0814   56.1147 C   0  0  0  0  0  3  0  0  0  0  0  0
   10.1307   51.1383   55.6269 C   0  0  0  0  0  3  0  0  0  0  0  0
    8.8719   49.6855   54.1567 C   0  0  0  0  0  3  0  0  0  0  0  0
    9.1581   50.9375   54.6611 C   0  0  0  0  0  3  0  0  0  0  0  0
   11.3204   47.7642   56.1400 O   0  0  0  0  0  0  0  0  0  0  0  0
   12.7130   47.9058   56.4107 C   0  0  0  0  0  1  0  0  0  0  0  0
    7.6186   44.6636   51.6542 C   0  0  0  0  0  0  0  0  0  0  0  0
    6.2711   44.6844   51.7068 N   0  0  0  0  0  0  0  0  0  0  0  0
    8.2302   44.1026   50.5921 N   0  0  0  0  0  0  0  0  0  0  0  0
    5.5216   44.1478   50.7040 C   0  0  0  0  0  0  0  0  0  0  0  0
    7.5462   43.5578   49.5731 C   0  0  0  0  0  0  0  0  0  0  0  0
    6.1592   43.5749   49.6190 C   0  0  0  0  0  0  0  0  0  0  0  0
    8.2065   43.0095   48.5342 N   0  0  0  0  0  0  0  0  0  0  0  0
    5.4518   43.0377   48.6146 N   0  0  0  0  0  0  0  0  0  0  0  0
    7.4557   42.4738   47.5330 C   0  0  0  0  0  3  0  0  0  0  0  0
    6.0816   42.4816   47.5613 C   0  0  0  0  0  3  0  0  0  0  0  0
    4.0959   44.1724   50.7643 N   0  0  0  0  0  0  0  0  0  0  0  0
    3.3655   44.8102   51.7850 C   0  0  0  0  0  0  0  0  0  0  0  0
    2.6867   44.1463   52.7854 C   0  0  0  0  0  3  0  0  0  0  0  0
    3.3178   46.2032   51.7959 C   0  0  0  0  0  3  0  0  0  0  0  0
    1.9783   44.8123   53.7734 C   0  0  0  0  0  3  0  0  0  0  0  0
    2.6089   46.8791   52.7843 C   0  0  0  0  0  3  0  0  0  0  0  0
    1.9368   46.2089   53.7752 C   0  0  0  0  0  3  0  0  0  0  0  0
  1  2  1  0
  1  7  1  0
  3  2  1  0
  4  3  1  0
  5  6  1  0
  5  4  1  0
  6  1  1  0
  7 11  1  0
  8  7  2  0
  8  9  1  0
  9 10  2  0
 10 12  1  0
 11 12  2  0
 13 14  1  0
 13  8  1  0
 15  4  1  0
 15 16  2  0
 17 15  1  0
 18 16  1  0
 18 25  1  0
 19 17  2  0
 19 20  1  0
 20 18  2  0
 21 19  1  0
 22 20  1  0
 23 21  2  0
 23 24  1  0
 24 22  2  0
 25 26  1  0
 26 27  2  0
 26 28  1  0
 27 29  1  0
 28 30  2  0
 29 31  2  0
 30 31  1  0
M  RAD  8   2   3   3   3   5   3   6   3   9   2  10   2  11   2  12   2
M  RAD  8  14   2  23   2  24   2  27   2  28   2  29   2  30   2  31   2
M  END
>  <REMARK>  (1) 
 SMILES COc1ccccc1N1CCN(c2nc(Nc3ccccc3)c3nccnc3n2)CC1
 SMILES IDX 9 1 10 2 11 3 12 4 30 5 31 6 8 7 3 8 4 9 5 10 7 11 6 12 2 13
 SMILES IDX 1 14 13 15 14 16 29 17 15 18 28 19 23 20 27 21 24 22 26 23
 SMILES IDX 25 24 16 25 17 27 18 28 22 29 19 30 21 31 20 32
 H PARENT 16 26

>  <TORSDO>  (1) 
F 5

$$$$
