/home/pchatterjee/Documents/git/vs_workflow/DiffDock/diffdock_run/pdbqt_scrubbed/Z1041113928.pdbqt
     RDKit          3D

 31 35  0  0  0  0  0  0  0  0999 V2000
    3.7821   47.9958   53.2974 N   0  0  0  0  0  0  0  0  0  0  0  0
    5.1424   48.1183   53.8039 C   0  0  0  0  0  2  0  0  0  0  0  0
    5.8234   46.7846   53.9107 C   0  0  0  0  0  2  0  0  0  0  0  0
    5.5135   45.9953   52.7323 N   0  0  0  0  0  0  0  0  0  0  0  0
    4.1489   45.8098   52.2512 C   0  0  0  0  0  2  0  0  0  0  0  0
    3.1881   46.7352   52.9557 C   0  0  0  0  0  2  0  0  0  0  0  0
    3.0281   49.1878   53.1423 C   0  0  0  0  0  0  0  0  0  0  0  0
    3.5393   50.3559   53.6884 C   0  0  0  0  0  0  0  0  0  0  0  0
    2.8587   51.5654   53.5782 C   0  0  0  0  0  3  0  0  0  0  0  0
    1.6647   51.5769   52.9141 C   0  0  0  0  0  3  0  0  0  0  0  0
    1.8198   49.2028   52.4710 C   0  0  0  0  0  3  0  0  0  0  0  0
    1.1568   50.4086   52.3698 C   0  0  0  0  0  3  0  0  0  0  0  0
    4.7514   50.3899   54.3728 O   0  0  0  0  0  0  0  0  0  0  0  0
    5.2329   51.5857   54.9818 C   0  0  0  0  0  1  0  0  0  0  0  0
    6.5342   45.3431   51.9605 C   0  0  0  0  0  0  0  0  0  0  0  0
    6.1830   44.3539   51.1137 N   0  0  0  0  0  0  0  0  0  0  0  0
    7.8309   45.6964   52.0630 N   0  0  0  0  0  0  0  0  0  0  0  0
    7.1183   43.7085   50.3626 C   0  0  0  0  0  0  0  0  0  0  0  0
    8.7981   45.0978   51.3494 C   0  0  0  0  0  0  0  0  0  0  0  0
    8.4457   44.0788   50.4756 C   0  0  0  0  0  0  0  0  0  0  0  0
   10.0800   45.4892   51.4894 N   0  0  0  0  0  0  0  0  0  0  0  0
    9.3918   43.4644   49.7510 N   0  0  0  0  0  0  0  0  0  0  0  0
   11.0132   44.8430   50.7379 C   0  0  0  0  0  3  0  0  0  0  0  0
   10.6828   43.8319   49.8675 C   0  0  0  0  0  3  0  0  0  0  0  0
    6.7416   42.6622   49.4680 N   0  0  0  0  0  0  0  0  0  0  0  0
    5.4214   42.1966   49.3181 C   0  0  0  0  0  0  0  0  0  0  0  0
    4.5197   42.0714   50.3543 C   0  0  0  0  0  3  0  0  0  0  0  0
    4.9855   41.8354   48.0444 C   0  0  0  0  0  3  0  0  0  0  0  0
    3.2270   41.6082   50.1647 C   0  0  0  0  0  3  0  0  0  0  0  0
    3.6894   41.3695   47.8459 C   0  0  0  0  0  3  0  0  0  0  0  0
    2.8001   41.2488   48.8838 C   0  0  0  0  0  3  0  0  0  0  0  0
  1  2  1  0
  1  7  1  0
  3  2  1  0
  4  3  1  0
  5  6  1  0
  5  4  1  0
  6  1  1  0
  7 11  1  0
  8  7  2  0
  8  9  1  0
  9 10  2  0
 10 12  1  0
 11 12  2  0
 13 14  1  0
 13  8  1  0
 15  4  1  0
 15 16  2  0
 17 15  1  0
 18 16  1  0
 18 25  1  0
 19 17  2  0
 19 20  1  0
 20 18  2  0
 21 19  1  0
 22 20  1  0
 23 21  2  0
 23 24  1  0
 24 22  2  0
 25 26  1  0
 26 27  2  0
 26 28  1  0
 27 29  1  0
 28 30  2  0
 29 31  2  0
 30 31  1  0
M  RAD  8   2   3   3   3   5   3   6   3   9   2  10   2  11   2  12   2
M  RAD  8  14   2  23   2  24   2  27   2  28   2  29   2  30   2  31   2
M  END
>  <REMARK>  (1) 
 SMILES COc1ccccc1N1CCN(c2nc(Nc3ccccc3)c3nccnc3n2)CC1
 SMILES IDX 9 1 10 2 11 3 12 4 30 5 31 6 8 7 3 8 4 9 5 10 7 11 6 12 2 13
 SMILES IDX 1 14 13 15 14 16 29 17 15 18 28 19 23 20 27 21 24 22 26 23
 SMILES IDX 25 24 16 25 17 27 18 28 22 29 19 30 21 31 20 32
 H PARENT 16 26

>  <TORSDO>  (1) 
F 5

$$$$
