/home/pchatterjee/Documents/git/vs_workflow/DiffDock/diffdock_run/pdbqt_scrubbed/Z1041113928.pdbqt
     RDKit          3D

 31 35  0  0  0  0  0  0  0  0999 V2000
    9.5065   47.3153   54.0356 N   0  0  0  0  0  0  0  0  0  0  0  0
   10.1757   47.0098   52.7783 C   0  0  0  0  0  2  0  0  0  0  0  0
    9.8922   45.6092   52.3179 C   0  0  0  0  0  2  0  0  0  0  0  0
    8.4866   45.3134   52.5285 N   0  0  0  0  0  0  0  0  0  0  0  0
    7.8188   45.5531   53.8031 C   0  0  0  0  0  2  0  0  0  0  0  0
    8.6851   46.3671   54.7320 C   0  0  0  0  0  2  0  0  0  0  0  0
    9.6878   48.6136   54.5788 C   0  0  0  0  0  0  0  0  0  0  0  0
   10.6845   48.7879   55.5274 C   0  0  0  0  0  0  0  0  0  0  0  0
   10.9239   50.0310   56.1067 C   0  0  0  0  0  3  0  0  0  0  0  0
   10.1481   51.0858   55.7166 C   0  0  0  0  0  3  0  0  0  0  0  0
    8.9046   49.6829   54.1862 C   0  0  0  0  0  3  0  0  0  0  0  0
    9.1534   50.9087   54.7688 C   0  0  0  0  0  3  0  0  0  0  0  0
   11.4980   47.7414   55.9540 O   0  0  0  0  0  0  0  0  0  0  0  0
   12.8284   47.9680   56.4135 C   0  0  0  0  0  1  0  0  0  0  0  0
    7.6588   44.7634   51.4917 C   0  0  0  0  0  0  0  0  0  0  0  0
    6.3181   44.8065   51.6324 N   0  0  0  0  0  0  0  0  0  0  0  0
    8.1899   44.2069   50.3849 N   0  0  0  0  0  0  0  0  0  0  0  0
    5.4955   44.2968   50.6738 C   0  0  0  0  0  0  0  0  0  0  0  0
    7.4313   43.6880   49.4059 C   0  0  0  0  0  0  0  0  0  0  0  0
    6.0508   43.7282   49.5423 C   0  0  0  0  0  0  0  0  0  0  0  0
    8.0128   43.1430   48.3192 N   0  0  0  0  0  0  0  0  0  0  0  0
    5.2701   43.2171   48.5795 N   0  0  0  0  0  0  0  0  0  0  0  0
    7.1890   42.6341   47.3623 C   0  0  0  0  0  3  0  0  0  0  0  0
    5.8199   42.6650   47.4803 C   0  0  0  0  0  3  0  0  0  0  0  0
    4.0774   44.3448   50.8274 N   0  0  0  0  0  0  0  0  0  0  0  0
    3.4265   44.9806   51.9018 C   0  0  0  0  0  0  0  0  0  0  0  0
    2.7994   46.2059   51.8145 C   0  0  0  0  0  3  0  0  0  0  0  0
    3.4079   44.3398   53.1395 C   0  0  0  0  0  3  0  0  0  0  0  0
    2.1689   46.7986   52.8974 C   0  0  0  0  0  3  0  0  0  0  0  0
    2.7771   44.9282   54.2313 C   0  0  0  0  0  3  0  0  0  0  0  0
    2.1560   46.1478   54.1338 C   0  0  0  0  0  3  0  0  0  0  0  0
  1  2  1  0
  1  7  1  0
  3  2  1  0
  4  3  1  0
  5  6  1  0
  5  4  1  0
  6  1  1  0
  7 11  1  0
  8  7  2  0
  8  9  1  0
  9 10  2  0
 10 12  1  0
 11 12  2  0
 13 14  1  0
 13  8  1  0
 15  4  1  0
 15 16  2  0
 17 15  1  0
 18 16  1  0
 18 25  1  0
 19 17  2  0
 19 20  1  0
 20 18  2  0
 21 19  1  0
 22 20  1  0
 23 21  2  0
 23 24  1  0
 24 22  2  0
 25 26  1  0
 26 27  2  0
 26 28  1  0
 27 29  1  0
 28 30  2  0
 29 31  2  0
 30 31  1  0
M  RAD  8   2   3   3   3   5   3   6   3   9   2  10   2  11   2  12   2
M  RAD  8  14   2  23   2  24   2  27   2  28   2  29   2  30   2  31   2
M  END
>  <REMARK>  (1) 
 SMILES COc1ccccc1N1CCN(c2nc(Nc3ccccc3)c3nccnc3n2)CC1
 SMILES IDX 9 1 10 2 11 3 12 4 30 5 31 6 8 7 3 8 4 9 5 10 7 11 6 12 2 13
 SMILES IDX 1 14 13 15 14 16 29 17 15 18 28 19 23 20 27 21 24 22 26 23
 SMILES IDX 25 24 16 25 17 27 18 28 22 29 19 30 21 31 20 32
 H PARENT 16 26

>  <TORSDO>  (1) 
F 5

$$$$
