/home/pchatterjee/Documents/git/vs_workflow/DiffDock/diffdock_run/pdbqt_scrubbed/Z1041113928.pdbqt
     RDKit          3D

 31 35  0  0  0  0  0  0  0  0999 V2000
    9.7992   46.4603   53.2368 N   0  0  0  0  0  0  0  0  0  0  0  0
   10.1959   46.3794   51.8375 C   0  0  0  0  0  2  0  0  0  0  0  0
    9.9315   45.0203   51.2572 C   0  0  0  0  0  2  0  0  0  0  0  0
    8.6359   44.5507   51.7139 N   0  0  0  0  0  0  0  0  0  0  0  0
    8.2496   44.5647   53.1205 C   0  0  0  0  0  2  0  0  0  0  0  0
    9.2315   45.3530   53.9514 C   0  0  0  0  0  2  0  0  0  0  0  0
    9.9909   47.6976   53.9045 C   0  0  0  0  0  0  0  0  0  0  0  0
    8.8710   48.4688   54.1780 C   0  0  0  0  0  0  0  0  0  0  0  0
    8.9771   49.6945   54.8298 C   0  0  0  0  0  3  0  0  0  0  0  0
   10.2203   50.1252   55.1977 C   0  0  0  0  0  3  0  0  0  0  0  0
   11.2474   48.1362   54.2781 C   0  0  0  0  0  3  0  0  0  0  0  0
   11.3370   49.3527   54.9232 C   0  0  0  0  0  3  0  0  0  0  0  0
    7.5859   48.0688   53.8213 O   0  0  0  0  0  0  0  0  0  0  0  0
    6.4464   48.8796   54.0984 C   0  0  0  0  0  1  0  0  0  0  0  0
    7.6462   44.0398   50.8070 C   0  0  0  0  0  0  0  0  0  0  0  0
    6.3406   44.2058   51.1015 N   0  0  0  0  0  0  0  0  0  0  0  0
    7.9919   43.4003   49.6720 N   0  0  0  0  0  0  0  0  0  0  0  0
    5.3689   43.7373   50.2699 C   0  0  0  0  0  0  0  0  0  0  0  0
    7.0803   42.9163   48.8129 C   0  0  0  0  0  0  0  0  0  0  0  0
    5.7345   43.0827   49.1081 C   0  0  0  0  0  0  0  0  0  0  0  0
    7.4791   42.2845   47.6914 N   0  0  0  0  0  0  0  0  0  0  0  0
    4.8036   42.6090   48.2673 N   0  0  0  0  0  0  0  0  0  0  0  0
    6.5065   41.8170   46.8616 C   0  0  0  0  0  3  0  0  0  0  0  0
    5.1690   41.9725   47.1375 C   0  0  0  0  0  3  0  0  0  0  0  0
    3.9886   43.9154   50.5860 N   0  0  0  0  0  0  0  0  0  0  0  0
    3.5272   44.6411   51.7008 C   0  0  0  0  0  0  0  0  0  0  0  0
    3.6134   44.1997   53.0047 C   0  0  0  0  0  3  0  0  0  0  0  0
    2.9433   45.8884   51.4855 C   0  0  0  0  0  3  0  0  0  0  0  0
    3.1465   44.9456   54.0757 C   0  0  0  0  0  3  0  0  0  0  0  0
    2.4722   46.6431   52.5554 C   0  0  0  0  0  3  0  0  0  0  0  0
    2.5628   46.1946   53.8490 C   0  0  0  0  0  3  0  0  0  0  0  0
  1  2  1  0
  1  7  1  0
  3  2  1  0
  4  3  1  0
  5  6  1  0
  5  4  1  0
  6  1  1  0
  7 11  1  0
  8  7  2  0
  8  9  1  0
  9 10  2  0
 10 12  1  0
 11 12  2  0
 13 14  1  0
 13  8  1  0
 15  4  1  0
 15 16  2  0
 17 15  1  0
 18 16  1  0
 18 25  1  0
 19 17  2  0
 19 20  1  0
 20 18  2  0
 21 19  1  0
 22 20  1  0
 23 21  2  0
 23 24  1  0
 24 22  2  0
 25 26  1  0
 26 27  2  0
 26 28  1  0
 27 29  1  0
 28 30  2  0
 29 31  2  0
 30 31  1  0
M  RAD  8   2   3   3   3   5   3   6   3   9   2  10   2  11   2  12   2
M  RAD  8  14   2  23   2  24   2  27   2  28   2  29   2  30   2  31   2
M  END
>  <REMARK>  (1) 
 SMILES COc1ccccc1N1CCN(c2nc(Nc3ccccc3)c3nccnc3n2)CC1
 SMILES IDX 9 1 10 2 11 3 12 4 30 5 31 6 8 7 3 8 4 9 5 10 7 11 6 12 2 13
 SMILES IDX 1 14 13 15 14 16 29 17 15 18 28 19 23 20 27 21 24 22 26 23
 SMILES IDX 25 24 16 25 17 27 18 28 22 29 19 30 21 31 20 32
 H PARENT 16 26

>  <TORSDO>  (1) 
F 5

$$$$
