/home/pchatterjee/Documents/git/vs_workflow/DiffDock/diffdock_run/pdbqt_scrubbed/Z1041113928.pdbqt
     RDKit          3D

 31 35  0  0  0  0  0  0  0  0999 V2000
    2.0437   45.5610   53.6309 N   0  0  0  0  0  0  0  0  0  0  0  0
    2.0516   44.6053   52.5316 C   0  0  0  0  0  2  0  0  0  0  0  0
    2.9224   45.0624   51.3972 C   0  0  0  0  0  2  0  0  0  0  0  0
    4.1497   45.6221   51.9339 N   0  0  0  0  0  0  0  0  0  0  0  0
    4.1548   46.6286   52.9899 C   0  0  0  0  0  2  0  0  0  0  0  0
    2.7852   46.7890   53.6016 C   0  0  0  0  0  2  0  0  0  0  0  0
    1.2617   45.2447   54.7719 C   0  0  0  0  0  0  0  0  0  0  0  0
   -0.0635   44.8868   54.5727 C   0  0  0  0  0  0  0  0  0  0  0  0
   -0.8948   44.5625   55.6415 C   0  0  0  0  0  3  0  0  0  0  0  0
   -0.3718   44.6050   56.9029 C   0  0  0  0  0  3  0  0  0  0  0  0
    1.7878   45.2867   56.0495 C   0  0  0  0  0  3  0  0  0  0  0  0
    0.9521   44.9628   57.0987 C   0  0  0  0  0  3  0  0  0  0  0  0
   -0.6374   44.8304   53.3054 O   0  0  0  0  0  0  0  0  0  0  0  0
   -1.5645   45.8176   52.8598 C   0  0  0  0  0  1  0  0  0  0  0  0
    5.4439   45.2197   51.4584 C   0  0  0  0  0  0  0  0  0  0  0  0
    5.5417   44.1309   50.6686 N   0  0  0  0  0  0  0  0  0  0  0  0
    6.5592   45.9037   51.7826 N   0  0  0  0  0  0  0  0  0  0  0  0
    6.7489   43.7138   50.1953 C   0  0  0  0  0  0  0  0  0  0  0  0
    7.7768   45.5420   51.3472 C   0  0  0  0  0  0  0  0  0  0  0  0
    7.8868   44.4227   50.5341 C   0  0  0  0  0  0  0  0  0  0  0  0
    8.8605   46.2607   51.7008 N   0  0  0  0  0  0  0  0  0  0  0  0
    9.0908   44.0397   50.0854 N   0  0  0  0  0  0  0  0  0  0  0  0
   10.0661   45.8423   51.2268 C   0  0  0  0  0  3  0  0  0  0  0  0
   10.1942   44.7365   50.4206 C   0  0  0  0  0  3  0  0  0  0  0  0
    6.8472   42.5609   49.3599 N   0  0  0  0  0  0  0  0  0  0  0  0
    5.7371   41.8149   48.9199 C   0  0  0  0  0  0  0  0  0  0  0  0
    4.6762   41.4537   49.7238 C   0  0  0  0  0  3  0  0  0  0  0  0
    5.6962   41.4091   47.5871 C   0  0  0  0  0  3  0  0  0  0  0  0
    3.6007   40.7177   49.2515 C   0  0  0  0  0  3  0  0  0  0  0  0
    4.6201   40.6701   47.1053 C   0  0  0  0  0  3  0  0  0  0  0  0
    3.5695   40.3159   47.9136 C   0  0  0  0  0  3  0  0  0  0  0  0
  1  2  1  0
  1  7  1  0
  3  2  1  0
  4  3  1  0
  5  6  1  0
  5  4  1  0
  6  1  1  0
  7 11  1  0
  8  7  2  0
  8  9  1  0
  9 10  2  0
 10 12  1  0
 11 12  2  0
 13 14  1  0
 13  8  1  0
 15  4  1  0
 15 16  2  0
 17 15  1  0
 18 16  1  0
 18 25  1  0
 19 17  2  0
 19 20  1  0
 20 18  2  0
 21 19  1  0
 22 20  1  0
 23 21  2  0
 23 24  1  0
 24 22  2  0
 25 26  1  0
 26 27  2  0
 26 28  1  0
 27 29  1  0
 28 30  2  0
 29 31  2  0
 30 31  1  0
M  RAD  8   2   3   3   3   5   3   6   3   9   2  10   2  11   2  12   2
M  RAD  8  14   2  23   2  24   2  27   2  28   2  29   2  30   2  31   2
M  END
>  <REMARK>  (1) 
 SMILES COc1ccccc1N1CCN(c2nc(Nc3ccccc3)c3nccnc3n2)CC1
 SMILES IDX 9 1 10 2 11 3 12 4 30 5 31 6 8 7 3 8 4 9 5 10 7 11 6 12 2 13
 SMILES IDX 1 14 13 15 14 16 29 17 15 18 28 19 23 20 27 21 24 22 26 23
 SMILES IDX 25 24 16 25 17 27 18 28 22 29 19 30 21 31 20 32
 H PARENT 16 26

>  <TORSDO>  (1) 
F 5

$$$$
