/home/pchatterjee/Documents/git/vs_workflow/DiffDock/diffdock_run/pdbqt_scrubbed/Z1041113928.pdbqt
     RDKit          3D

 31 35  0  0  0  0  0  0  0  0999 V2000
    4.0905   40.6088   48.3364 N   0  0  0  0  0  0  0  0  0  0  0  0
    3.6907   41.0460   49.6672 C   0  0  0  0  0  2  0  0  0  0  0  0
    4.8743   41.2720   50.5626 C   0  0  0  0  0  2  0  0  0  0  0  0
    5.9155   41.9525   49.8139 N   0  0  0  0  0  0  0  0  0  0  0  0
    6.3721   41.4877   48.5087 C   0  0  0  0  0  2  0  0  0  0  0  0
    5.4613   40.4189   47.9574 C   0  0  0  0  0  2  0  0  0  0  0  0
    3.0636   40.3655   47.3878 C   0  0  0  0  0  0  0  0  0  0  0  0
    1.7480   40.4410   47.8204 C   0  0  0  0  0  0  0  0  0  0  0  0
    0.6851   40.2153   46.9499 C   0  0  0  0  0  3  0  0  0  0  0  0
    0.9690   39.9149   45.6477 C   0  0  0  0  0  3  0  0  0  0  0  0
    3.3475   40.0613   46.0695 C   0  0  0  0  0  3  0  0  0  0  0  0
    2.2840   39.8402   45.2186 C   0  0  0  0  0  3  0  0  0  0  0  0
    1.4132   40.7439   49.1376 O   0  0  0  0  0  0  0  0  0  0  0  0
    0.0732   40.6367   49.6121 C   0  0  0  0  0  1  0  0  0  0  0  0
    6.5663   43.1323   50.3114 C   0  0  0  0  0  0  0  0  0  0  0  0
    5.8803   43.9676   51.1179 N   0  0  0  0  0  0  0  0  0  0  0  0
    7.8432   43.4223   49.9914 N   0  0  0  0  0  0  0  0  0  0  0  0
    6.4584   45.0975   51.6123 C   0  0  0  0  0  0  0  0  0  0  0  0
    8.4672   44.5204   50.4473 C   0  0  0  0  0  0  0  0  0  0  0  0
    7.7687   45.3856   51.2778 C   0  0  0  0  0  0  0  0  0  0  0  0
    9.7455   44.7641   50.0971 N   0  0  0  0  0  0  0  0  0  0  0  0
    8.3682   46.4893   51.7470 N   0  0  0  0  0  0  0  0  0  0  0  0
   10.3215   45.8938   50.5922 C   0  0  0  0  0  3  0  0  0  0  0  0
    9.6454   46.7620   51.4158 C   0  0  0  0  0  3  0  0  0  0  0  0
    5.7281   45.9784   52.4654 N   0  0  0  0  0  0  0  0  0  0  0  0
    4.4255   45.7171   52.9313 C   0  0  0  0  0  0  0  0  0  0  0  0
    3.2754   46.0204   52.2329 C   0  0  0  0  0  3  0  0  0  0  0  0
    4.2753   45.1128   54.1783 C   0  0  0  0  0  3  0  0  0  0  0  0
    2.0098   45.7464   52.7274 C   0  0  0  0  0  3  0  0  0  0  0  0
    3.0082   44.8345   54.6816 C   0  0  0  0  0  3  0  0  0  0  0  0
    1.8703   45.1404   53.9786 C   0  0  0  0  0  3  0  0  0  0  0  0
  1  2  1  0
  1  7  1  0
  3  2  1  0
  4  3  1  0
  5  6  1  0
  5  4  1  0
  6  1  1  0
  7 11  1  0
  8  7  2  0
  8  9  1  0
  9 10  2  0
 10 12  1  0
 11 12  2  0
 13 14  1  0
 13  8  1  0
 15  4  1  0
 15 16  2  0
 17 15  1  0
 18 16  1  0
 18 25  1  0
 19 17  2  0
 19 20  1  0
 20 18  2  0
 21 19  1  0
 22 20  1  0
 23 21  2  0
 23 24  1  0
 24 22  2  0
 25 26  1  0
 26 27  2  0
 26 28  1  0
 27 29  1  0
 28 30  2  0
 29 31  2  0
 30 31  1  0
M  RAD  8   2   3   3   3   5   3   6   3   9   2  10   2  11   2  12   2
M  RAD  8  14   2  23   2  24   2  27   2  28   2  29   2  30   2  31   2
M  END
>  <REMARK>  (1) 
 SMILES COc1ccccc1N1CCN(c2nc(Nc3ccccc3)c3nccnc3n2)CC1
 SMILES IDX 9 1 10 2 11 3 12 4 30 5 31 6 8 7 3 8 4 9 5 10 7 11 6 12 2 13
 SMILES IDX 1 14 13 15 14 16 29 17 15 18 28 19 23 20 27 21 24 22 26 23
 SMILES IDX 25 24 16 25 17 27 18 28 22 29 19 30 21 31 20 32
 H PARENT 16 26

>  <TORSDO>  (1) 
F 5

$$$$
