/home/pchatterjee/Documents/git/vs_workflow/DiffDock/diffdock_run/pdbqt_scrubbed/Z1041113928.pdbqt
     RDKit          3D

 31 35  0  0  0  0  0  0  0  0999 V2000
    2.0868   45.2790   53.8962 N   0  0  0  0  0  0  0  0  0  0  0  0
    3.1191   46.2850   54.1065 C   0  0  0  0  0  2  0  0  0  0  0  0
    4.4885   45.6751   54.1883 C   0  0  0  0  0  2  0  0  0  0  0  0
    4.6153   44.6497   53.1684 N   0  0  0  0  0  0  0  0  0  0  0  0
    3.6216   43.5969   52.9891 C   0  0  0  0  0  2  0  0  0  0  0  0
    2.3745   43.8773   53.7902 C   0  0  0  0  0  2  0  0  0  0  0  0
    0.7439   45.7257   53.7942 C   0  0  0  0  0  0  0  0  0  0  0  0
    0.0487   45.9686   54.9696 C   0  0  0  0  0  0  0  0  0  0  0  0
   -1.2720   46.4089   54.9523 C   0  0  0  0  0  3  0  0  0  0  0  0
   -1.8742   46.5982   53.7406 C   0  0  0  0  0  3  0  0  0  0  0  0
    0.1317   45.9183   52.5698 C   0  0  0  0  0  3  0  0  0  0  0  0
   -1.1773   46.3548   52.5684 C   0  0  0  0  0  3  0  0  0  0  0  0
    0.6229   45.7890   56.2253 O   0  0  0  0  0  0  0  0  0  0  0  0
   -0.0548   45.0856   57.2637 C   0  0  0  0  0  1  0  0  0  0  0  0
    5.7319   44.6049   52.2660 C   0  0  0  0  0  0  0  0  0  0  0  0
    5.7242   43.7076   51.2591 N   0  0  0  0  0  0  0  0  0  0  0  0
    6.7836   45.4368   52.4023 N   0  0  0  0  0  0  0  0  0  0  0  0
    6.7620   43.6306   50.3803 C   0  0  0  0  0  0  0  0  0  0  0  0
    7.8355   45.4089   51.5682 C   0  0  0  0  0  0  0  0  0  0  0  0
    7.8360   44.4887   50.5293 C   0  0  0  0  0  0  0  0  0  0  0  0
    8.8622   46.2629   51.7487 N   0  0  0  0  0  0  0  0  0  0  0  0
    8.8740   44.4397   49.6820 N   0  0  0  0  0  0  0  0  0  0  0  0
    9.8984   46.1844   50.8694 C   0  0  0  0  0  3  0  0  0  0  0  0
    9.9163   45.2797   49.8348 C   0  0  0  0  0  3  0  0  0  0  0  0
    6.7492   42.6793   49.3165 N   0  0  0  0  0  0  0  0  0  0  0  0
    5.6145   41.9326   48.9464 C   0  0  0  0  0  0  0  0  0  0  0  0
    4.5038   41.7601   49.7457 C   0  0  0  0  0  3  0  0  0  0  0  0
    5.6008   41.3230   47.6930 C   0  0  0  0  0  3  0  0  0  0  0  0
    3.4053   41.0162   49.3438 C   0  0  0  0  0  3  0  0  0  0  0  0
    4.5019   40.5747   47.2822 C   0  0  0  0  0  3  0  0  0  0  0  0
    3.4017   40.4093   48.0853 C   0  0  0  0  0  3  0  0  0  0  0  0
  1  2  1  0
  1  7  1  0
  3  2  1  0
  4  3  1  0
  5  6  1  0
  5  4  1  0
  6  1  1  0
  7 11  1  0
  8  7  2  0
  8  9  1  0
  9 10  2  0
 10 12  1  0
 11 12  2  0
 13 14  1  0
 13  8  1  0
 15  4  1  0
 15 16  2  0
 17 15  1  0
 18 16  1  0
 18 25  1  0
 19 17  2  0
 19 20  1  0
 20 18  2  0
 21 19  1  0
 22 20  1  0
 23 21  2  0
 23 24  1  0
 24 22  2  0
 25 26  1  0
 26 27  2  0
 26 28  1  0
 27 29  1  0
 28 30  2  0
 29 31  2  0
 30 31  1  0
M  RAD  8   2   3   3   3   5   3   6   3   9   2  10   2  11   2  12   2
M  RAD  8  14   2  23   2  24   2  27   2  28   2  29   2  30   2  31   2
M  END
>  <REMARK>  (1) 
 SMILES COc1ccccc1N1CCN(c2nc(Nc3ccccc3)c3nccnc3n2)CC1
 SMILES IDX 9 1 10 2 11 3 12 4 30 5 31 6 8 7 3 8 4 9 5 10 7 11 6 12 2 13
 SMILES IDX 1 14 13 15 14 16 29 17 15 18 28 19 23 20 27 21 24 22 26 23
 SMILES IDX 25 24 16 25 17 27 18 28 22 29 19 30 21 31 20 32
 H PARENT 16 26

>  <TORSDO>  (1) 
F 5

$$$$
