/home/pchatterjee/Documents/git/vs_workflow/DiffDock/diffdock_run/pdbqt_scrubbed/Z1041113928.pdbqt
     RDKit          3D

 31 35  0  0  0  0  0  0  0  0999 V2000
    2.2338   45.7867   53.2902 N   0  0  0  0  0  0  0  0  0  0  0  0
    2.2486   44.9556   52.0939 C   0  0  0  0  0  2  0  0  0  0  0  0
    3.2399   45.4491   51.0802 C   0  0  0  0  0  2  0  0  0  0  0  0
    4.4636   45.8357   51.7590 N   0  0  0  0  0  0  0  0  0  0  0  0
    4.4694   46.7205   52.9187 C   0  0  0  0  0  2  0  0  0  0  0  0
    3.0742   46.9388   53.4493 C   0  0  0  0  0  2  0  0  0  0  0  0
    1.3418   45.4239   54.3323 C   0  0  0  0  0  0  0  0  0  0  0  0
    1.6063   45.8979   55.6087 C   0  0  0  0  0  0  0  0  0  0  0  0
    0.7781   45.5859   56.6834 C   0  0  0  0  0  3  0  0  0  0  0  0
   -0.3114   44.7949   56.4512 C   0  0  0  0  0  3  0  0  0  0  0  0
    0.2386   44.6237   54.1007 C   0  0  0  0  0  3  0  0  0  0  0  0
   -0.5730   44.3229   55.1754 C   0  0  0  0  0  3  0  0  0  0  0  0
    2.7045   46.7063   55.8903 O   0  0  0  0  0  0  0  0  0  0  0  0
    2.8330   47.3853   57.1372 C   0  0  0  0  0  1  0  0  0  0  0  0
    5.7533   45.3702   51.3312 C   0  0  0  0  0  0  0  0  0  0  0  0
    5.8252   44.2960   50.5189 N   0  0  0  0  0  0  0  0  0  0  0  0
    6.8896   45.9809   51.7220 N   0  0  0  0  0  0  0  0  0  0  0  0
    7.0273   43.8208   50.0891 C   0  0  0  0  0  0  0  0  0  0  0  0
    8.1034   45.5596   51.3319 C   0  0  0  0  0  0  0  0  0  0  0  0
    8.1868   44.4549   50.4960 C   0  0  0  0  0  0  0  0  0  0  0  0
    9.2088   46.2061   51.7515 N   0  0  0  0  0  0  0  0  0  0  0  0
    9.3865   44.0133   50.0916 N   0  0  0  0  0  0  0  0  0  0  0  0
   10.4091   45.7298   51.3209 C   0  0  0  0  0  3  0  0  0  0  0  0
   10.5110   44.6373   50.4931 C   0  0  0  0  0  3  0  0  0  0  0  0
    7.0981   42.6837   49.2296 N   0  0  0  0  0  0  0  0  0  0  0  0
    5.9724   41.9583   48.7951 C   0  0  0  0  0  0  0  0  0  0  0  0
    4.9472   41.5472   49.6211 C   0  0  0  0  0  3  0  0  0  0  0  0
    5.8763   41.6282   47.4443 C   0  0  0  0  0  3  0  0  0  0  0  0
    3.8546   40.8337   49.1535 C   0  0  0  0  0  3  0  0  0  0  0  0
    4.7828   40.9122   46.9671 C   0  0  0  0  0  3  0  0  0  0  0  0
    3.7680   40.5079   47.7975 C   0  0  0  0  0  3  0  0  0  0  0  0
  1  2  1  0
  1  7  1  0
  3  2  1  0
  4  3  1  0
  5  6  1  0
  5  4  1  0
  6  1  1  0
  7 11  1  0
  8  7  2  0
  8  9  1  0
  9 10  2  0
 10 12  1  0
 11 12  2  0
 13 14  1  0
 13  8  1  0
 15  4  1  0
 15 16  2  0
 17 15  1  0
 18 16  1  0
 18 25  1  0
 19 17  2  0
 19 20  1  0
 20 18  2  0
 21 19  1  0
 22 20  1  0
 23 21  2  0
 23 24  1  0
 24 22  2  0
 25 26  1  0
 26 27  2  0
 26 28  1  0
 27 29  1  0
 28 30  2  0
 29 31  2  0
 30 31  1  0
M  RAD  8   2   3   3   3   5   3   6   3   9   2  10   2  11   2  12   2
M  RAD  8  14   2  23   2  24   2  27   2  28   2  29   2  30   2  31   2
M  END
>  <REMARK>  (1) 
 SMILES COc1ccccc1N1CCN(c2nc(Nc3ccccc3)c3nccnc3n2)CC1
 SMILES IDX 9 1 10 2 11 3 12 4 30 5 31 6 8 7 3 8 4 9 5 10 7 11 6 12 2 13
 SMILES IDX 1 14 13 15 14 16 29 17 15 18 28 19 23 20 27 21 24 22 26 23
 SMILES IDX 25 24 16 25 17 27 18 28 22 29 19 30 21 31 20 32
 H PARENT 16 26

>  <TORSDO>  (1) 
F 5

$$$$
