/home/pchatterjee/Documents/git/vs_workflow/DiffDock/diffdock_run/pdbqt_scrubbed/Z442313918.pdbqt
     RDKit          3D

 24 26  0  0  0  0  0  0  0  0999 V2000
    6.6364   44.7560   51.1954 C   0  0  0  0  0  0  0  0  0  0  0  0
    6.2346   43.7084   50.4345 N   0  0  0  0  0  0  0  0  0  0  0  0
    7.0554   43.0897   49.5592 C   0  0  0  0  0  0  0  0  0  0  0  0
    6.6184   41.9996   48.7750 N   0  0  0  0  0  0  0  0  0  0  0  0
    8.3153   43.5514   49.4587 N   0  0  0  0  0  0  0  0  0  0  0  0
    8.7748   44.5928   50.1910 C   0  0  0  0  0  0  0  0  0  0  0  0
    9.9655   44.9878   50.0596 O   0  0  0  0  0  0  0  0  0  0  0  0
    7.9260   45.2156   51.0812 C   0  0  0  0  0  0  0  0  0  0  0  0
    5.6572   45.3391   52.1031 C   0  0  0  0  0  0  0  0  0  0  0  0
    3.8734   46.3150   53.9668 C   0  0  0  0  0  0  0  0  0  0  0  0
    3.8851   46.8302   52.6875 C   0  0  0  0  0  3  0  0  0  0  0  0
    4.7496   45.2994   54.3540 C   0  0  0  0  0  3  0  0  0  0  0  0
    4.7847   46.3310   51.7649 C   0  0  0  0  0  3  0  0  0  0  0  0
    5.6262   44.8338   53.4042 C   0  0  0  0  0  3  0  0  0  0  0  0
    2.9887   46.7749   54.9495 O   0  0  0  0  0  0  0  0  0  0  0  0
    1.9047   45.9981   55.4222 C   0  0  0  0  0  1  0  0  0  0  0  0
    8.3601   46.3179   51.8772 C   0  0  0  0  0  0  0  0  0  0  0  0
    8.7263   47.1991   52.5200 N   0  0  0  0  0  0  0  0  0  0  0  0
    5.2688   41.5634   48.8521 C   0  0  0  0  0  0  0  0  0  0  0  0
    4.4503   41.8614   49.9423 C   0  0  0  0  0  3  0  0  0  0  0  0
    4.6645   40.8107   47.8525 C   0  0  0  0  0  3  0  0  0  0  0  0
    3.1453   41.4316   50.0020 C   0  0  0  0  0  3  0  0  0  0  0  0
    3.3772   40.3828   47.9041 C   0  0  0  0  0  3  0  0  0  0  0  0
    2.6027   40.6897   48.9821 C   0  0  0  0  0  3  0  0  0  0  0  0
  1  2  1  0
  1  8  2  0
  2  3  2  0
  3  4  1  0
  3  5  1  0
  6  5  1  0
  6  7  2  0
  8  6  1  0
  9 13  2  0
  9  1  1  0
 10 11  2  0
 11 13  1  0
 12 10  1  0
 12 14  2  0
 14  9  1  0
 15 10  1  0
 16 15  1  0
 17  8  1  0
 18 17  3  0
 19  4  1  0
 19 21  1  0
 20 19  2  0
 22 20  1  0
 22 24  2  0
 23 21  2  0
 24 23  1  0
M  RAD  8  11   2  12   2  13   2  14   2  16   2  20   2  21   2  22   2
M  RAD  2  23   2  24   2
M  END
>  <REMARK>  (1) 
 SMILES COc1ccc(-c2nc(Nc3ccccc3)[nH]c(=O)c2C#N)cc1
 SMILES IDX 7 1 8 2 9 3 10 4 17 5 18 6 19 7 20 8 6 11 3 12 4 13 24 14
 SMILES IDX 5 15 23 16 2 17 1 18 21 19 22 20 11 21 12 22 16 23 13 24
 SMILES IDX 15 25 14 26
 H PARENT 10 9 17 10

>  <TORSDO>  (1) 
F 4

$$$$
