/home/pchatterjee/Documents/git/vs_workflow/DiffDock/diffdock_run/pdbqt_scrubbed/Z442313918.pdbqt
     RDKit          3D

 24 26  0  0  0  0  0  0  0  0999 V2000
    6.5672   44.5886   51.2009 C   0  0  0  0  0  0  0  0  0  0  0  0
    6.2213   43.5685   50.3776 N   0  0  0  0  0  0  0  0  0  0  0  0
    7.0902   43.0113   49.5074 C   0  0  0  0  0  0  0  0  0  0  0  0
    6.7112   41.9491   48.6576 N   0  0  0  0  0  0  0  0  0  0  0  0
    8.3408   43.5071   49.4772 N   0  0  0  0  0  0  0  0  0  0  0  0
    8.7454   44.5238   50.2739 C   0  0  0  0  0  0  0  0  0  0  0  0
    9.9298   44.9529   50.2071 O   0  0  0  0  0  0  0  0  0  0  0  0
    7.8479   45.0837   51.1580 C   0  0  0  0  0  0  0  0  0  0  0  0
    5.5398   45.1050   52.0957 C   0  0  0  0  0  0  0  0  0  0  0  0
    3.7175   46.0318   53.9470 C   0  0  0  0  0  0  0  0  0  0  0  0
    3.4325   46.1102   52.5998 C   0  0  0  0  0  3  0  0  0  0  0  0
    4.9179   45.4898   54.4102 C   0  0  0  0  0  3  0  0  0  0  0  0
    4.3556   45.6416   51.6845 C   0  0  0  0  0  3  0  0  0  0  0  0
    5.8054   45.0366   53.4646 C   0  0  0  0  0  3  0  0  0  0  0  0
    2.8274   46.4876   54.9268 O   0  0  0  0  0  0  0  0  0  0  0  0
    1.5834   45.8613   55.1762 C   0  0  0  0  0  1  0  0  0  0  0  0
    8.2234   46.1575   52.0201 C   0  0  0  0  0  0  0  0  0  0  0  0
    8.5389   47.0275   52.7037 N   0  0  0  0  0  0  0  0  0  0  0  0
    5.3720   41.4758   48.6641 C   0  0  0  0  0  0  0  0  0  0  0  0
    4.8058   40.8261   47.5666 C   0  0  0  0  0  3  0  0  0  0  0  0
    4.5286   41.6232   49.7585 C   0  0  0  0  0  3  0  0  0  0  0  0
    3.5072   40.3736   47.5885 C   0  0  0  0  0  3  0  0  0  0  0  0
    3.2460   41.1794   49.7879 C   0  0  0  0  0  3  0  0  0  0  0  0
    2.7211   40.5485   48.7004 C   0  0  0  0  0  3  0  0  0  0  0  0
  1  2  1  0
  1  8  2  0
  2  3  2  0
  3  4  1  0
  3  5  1  0
  6  5  1  0
  6  7  2  0
  8  6  1  0
  9 13  2  0
  9  1  1  0
 10 11  2  0
 11 13  1  0
 12 10  1  0
 12 14  2  0
 14  9  1  0
 15 10  1  0
 16 15  1  0
 17  8  1  0
 18 17  3  0
 19  4  1  0
 19 21  1  0
 20 19  2  0
 22 20  1  0
 22 24  2  0
 23 21  2  0
 24 23  1  0
M  RAD  8  11   2  12   2  13   2  14   2  16   2  20   2  21   2  22   2
M  RAD  2  23   2  24   2
M  END
>  <REMARK>  (1) 
 SMILES COc1ccc(-c2nc(Nc3ccccc3)[nH]c(=O)c2C#N)cc1
 SMILES IDX 7 1 8 2 9 3 10 4 17 5 18 6 19 7 20 8 6 11 3 12 4 13 24 14
 SMILES IDX 5 15 23 16 2 17 1 18 21 19 22 20 11 21 12 22 16 23 13 24
 SMILES IDX 15 25 14 26
 H PARENT 10 9 17 10

>  <TORSDO>  (1) 
F 4

$$$$
