/home/pchatterjee/Documents/git/vs_workflow/DiffDock/diffdock_run/pdbqt_scrubbed/Z442313918.pdbqt
     RDKit          3D

 24 26  0  0  0  0  0  0  0  0999 V2000
    6.6019   44.6538   51.1662 C   0  0  0  0  0  0  0  0  0  0  0  0
    6.2396   43.6403   50.3419 N   0  0  0  0  0  0  0  0  0  0  0  0
    7.1006   43.0668   49.4744 C   0  0  0  0  0  0  0  0  0  0  0  0
    6.7044   42.0118   48.6234 N   0  0  0  0  0  0  0  0  0  0  0  0
    8.3604   43.5390   49.4482 N   0  0  0  0  0  0  0  0  0  0  0  0
    8.7815   44.5479   50.2462 C   0  0  0  0  0  0  0  0  0  0  0  0
    9.9739   44.9546   50.1832 O   0  0  0  0  0  0  0  0  0  0  0  0
    7.8919   45.1247   51.1275 C   0  0  0  0  0  0  0  0  0  0  0  0
    5.5817   45.1895   52.0578 C   0  0  0  0  0  0  0  0  0  0  0  0
    3.7630   46.1348   53.9033 C   0  0  0  0  0  0  0  0  0  0  0  0
    3.5334   46.3131   52.5551 C   0  0  0  0  0  3  0  0  0  0  0  0
    4.9046   45.4808   54.3704 C   0  0  0  0  0  3  0  0  0  0  0  0
    4.4539   45.8339   51.6426 C   0  0  0  0  0  3  0  0  0  0  0  0
    5.7918   45.0211   53.4276 C   0  0  0  0  0  3  0  0  0  0  0  0
    2.8721   46.5951   54.8802 O   0  0  0  0  0  0  0  0  0  0  0  0
    1.6136   45.9904   55.1090 C   0  0  0  0  0  1  0  0  0  0  0  0
    8.2847   46.1913   51.9907 C   0  0  0  0  0  0  0  0  0  0  0  0
    8.6114   47.0397   52.6959 N   0  0  0  0  0  0  0  0  0  0  0  0
    5.3553   41.5671   48.6220 C   0  0  0  0  0  0  0  0  0  0  0  0
    4.7802   40.9346   47.5191 C   0  0  0  0  0  3  0  0  0  0  0  0
    4.5104   41.7277   49.7135 C   0  0  0  0  0  3  0  0  0  0  0  0
    3.4723   40.5098   47.5334 C   0  0  0  0  0  3  0  0  0  0  0  0
    3.2186   41.3112   49.7353 C   0  0  0  0  0  3  0  0  0  0  0  0
    2.6851   40.6965   48.6427 C   0  0  0  0  0  3  0  0  0  0  0  0
  1  2  1  0
  1  8  2  0
  2  3  2  0
  3  4  1  0
  3  5  1  0
  6  5  1  0
  6  7  2  0
  8  6  1  0
  9 13  2  0
  9  1  1  0
 10 11  2  0
 11 13  1  0
 12 10  1  0
 12 14  2  0
 14  9  1  0
 15 10  1  0
 16 15  1  0
 17  8  1  0
 18 17  3  0
 19  4  1  0
 19 21  1  0
 20 19  2  0
 22 20  1  0
 22 24  2  0
 23 21  2  0
 24 23  1  0
M  RAD  8  11   2  12   2  13   2  14   2  16   2  20   2  21   2  22   2
M  RAD  2  23   2  24   2
M  END
>  <REMARK>  (1) 
 SMILES COc1ccc(-c2nc(Nc3ccccc3)[nH]c(=O)c2C#N)cc1
 SMILES IDX 7 1 8 2 9 3 10 4 17 5 18 6 19 7 20 8 6 11 3 12 4 13 24 14
 SMILES IDX 5 15 23 16 2 17 1 18 21 19 22 20 11 21 12 22 16 23 13 24
 SMILES IDX 15 25 14 26
 H PARENT 10 9 17 10

>  <TORSDO>  (1) 
F 4

$$$$
