/home/pchatterjee/Documents/git/vs_workflow/DiffDock/diffdock_run/pdbqt_scrubbed/Z442313918.pdbqt
     RDKit          3D

 24 26  0  0  0  0  0  0  0  0999 V2000
   11.1062   66.0900   82.5930 C   0  0  0  0  0  0  0  0  0  0  0  0
   12.0374   65.3331   83.2238 N   0  0  0  0  0  0  0  0  0  0  0  0
   13.3573   65.6119   83.1706 C   0  0  0  0  0  0  0  0  0  0  0  0
   14.3125   64.8114   83.8345 N   0  0  0  0  0  0  0  0  0  0  0  0
   13.7349   66.6883   82.4567 N   0  0  0  0  0  0  0  0  0  0  0  0
   12.8528   67.4820   81.8055 C   0  0  0  0  0  0  0  0  0  0  0  0
   13.2579   68.4803   81.1493 O   0  0  0  0  0  0  0  0  0  0  0  0
   11.5078   67.1858   81.8682 C   0  0  0  0  0  0  0  0  0  0  0  0
    9.7127   65.6862   82.7260 C   0  0  0  0  0  0  0  0  0  0  0  0
    7.0243   65.0850   82.8627 C   0  0  0  0  0  0  0  0  0  0  0  0
    7.9447   64.2781   83.4984 C   0  0  0  0  0  3  0  0  0  0  0  0
    7.4168   66.2139   82.1411 C   0  0  0  0  0  3  0  0  0  0  0  0
    9.2881   64.5924   83.4208 C   0  0  0  0  0  3  0  0  0  0  0  0
    8.7620   66.4876   82.0910 C   0  0  0  0  0  3  0  0  0  0  0  0
    5.6494   64.8242   82.9012 O   0  0  0  0  0  0  0  0  0  0  0  0
    5.1147   63.6356   83.4519 C   0  0  0  0  0  1  0  0  0  0  0  0
   10.5363   67.9900   81.1999 C   0  0  0  0  0  0  0  0  0  0  0  0
    9.7600   68.6528   80.6689 N   0  0  0  0  0  0  0  0  0  0  0  0
   13.9014   63.9103   84.8527 C   0  0  0  0  0  0  0  0  0  0  0  0
   14.4559   63.9293   86.1331 C   0  0  0  0  0  3  0  0  0  0  0  0
   12.9208   62.9465   84.6516 C   0  0  0  0  0  3  0  0  0  0  0  0
   14.0469   63.0499   87.1083 C   0  0  0  0  0  3  0  0  0  0  0  0
   12.5119   62.0751   85.6089 C   0  0  0  0  0  3  0  0  0  0  0  0
   13.0722   62.1181   86.8499 C   0  0  0  0  0  3  0  0  0  0  0  0
  1  2  1  0
  1  8  2  0
  2  3  2  0
  3  4  1  0
  3  5  1  0
  6  5  1  0
  6  7  2  0
  8  6  1  0
  9 13  2  0
  9  1  1  0
 10 11  2  0
 11 13  1  0
 12 10  1  0
 12 14  2  0
 14  9  1  0
 15 10  1  0
 16 15  1  0
 17  8  1  0
 18 17  3  0
 19  4  1  0
 19 21  1  0
 20 19  2  0
 22 20  1  0
 22 24  2  0
 23 21  2  0
 24 23  1  0
M  RAD  8  11   2  12   2  13   2  14   2  16   2  20   2  21   2  22   2
M  RAD  2  23   2  24   2
M  END
>  <REMARK>  (1) 
 SMILES COc1ccc(-c2nc(Nc3ccccc3)[nH]c(=O)c2C#N)cc1
 SMILES IDX 7 1 8 2 9 3 10 4 17 5 18 6 19 7 20 8 6 11 3 12 4 13 24 14
 SMILES IDX 5 15 23 16 2 17 1 18 21 19 22 20 11 21 12 22 16 23 13 24
 SMILES IDX 15 25 14 26
 H PARENT 10 9 17 10

>  <TORSDO>  (1) 
F 4

$$$$
