/home/pchatterjee/Documents/git/vs_workflow/DiffDock/diffdock_run/pdbqt_scrubbed/Z442313918.pdbqt
     RDKit          3D

 24 26  0  0  0  0  0  0  0  0999 V2000
    6.6027   44.6354   51.1686 C   0  0  0  0  0  0  0  0  0  0  0  0
    6.2605   43.6200   50.3382 N   0  0  0  0  0  0  0  0  0  0  0  0
    7.1327   43.0687   49.4674 C   0  0  0  0  0  0  0  0  0  0  0  0
    6.7575   42.0113   48.6101 N   0  0  0  0  0  0  0  0  0  0  0  0
    8.3829   43.5659   49.4442 N   0  0  0  0  0  0  0  0  0  0  0  0
    8.7840   44.5782   50.2483 C   0  0  0  0  0  0  0  0  0  0  0  0
    9.9681   45.0087   50.1879 O   0  0  0  0  0  0  0  0  0  0  0  0
    7.8831   45.1320   51.1329 C   0  0  0  0  0  0  0  0  0  0  0  0
    5.5720   45.1455   52.0632 C   0  0  0  0  0  0  0  0  0  0  0  0
    3.7420   46.0578   53.9142 C   0  0  0  0  0  0  0  0  0  0  0  0
    3.4660   46.1539   52.5663 C   0  0  0  0  0  3  0  0  0  0  0  0
    4.9370   45.5047   54.3782 C   0  0  0  0  0  3  0  0  0  0  0  0
    4.3928   45.6925   51.6510 C   0  0  0  0  0  3  0  0  0  0  0  0
    5.8285   45.0591   53.4328 C   0  0  0  0  0  3  0  0  0  0  0  0
    2.8477   46.5056   54.8938 O   0  0  0  0  0  0  0  0  0  0  0  0
    1.4557   46.2627   54.8224 C   0  0  0  0  0  1  0  0  0  0  0  0
    8.2548   46.2010   52.0026 C   0  0  0  0  0  0  0  0  0  0  0  0
    8.5653   47.0516   52.7122 N   0  0  0  0  0  0  0  0  0  0  0  0
    5.4358   41.4928   48.6560 C   0  0  0  0  0  0  0  0  0  0  0  0
    4.8456   40.8584   47.5622 C   0  0  0  0  0  3  0  0  0  0  0  0
    4.6347   41.5777   49.7882 C   0  0  0  0  0  3  0  0  0  0  0  0
    3.5646   40.3616   47.6226 C   0  0  0  0  0  3  0  0  0  0  0  0
    3.3696   41.0899   49.8556 C   0  0  0  0  0  3  0  0  0  0  0  0
    2.8205   40.4754   48.7707 C   0  0  0  0  0  3  0  0  0  0  0  0
  1  2  1  0
  1  8  2  0
  2  3  2  0
  3  4  1  0
  3  5  1  0
  6  5  1  0
  6  7  2  0
  8  6  1  0
  9 13  2  0
  9  1  1  0
 10 11  2  0
 11 13  1  0
 12 10  1  0
 12 14  2  0
 14  9  1  0
 15 10  1  0
 16 15  1  0
 17  8  1  0
 18 17  3  0
 19  4  1  0
 19 21  1  0
 20 19  2  0
 22 20  1  0
 22 24  2  0
 23 21  2  0
 24 23  1  0
M  RAD  8  11   2  12   2  13   2  14   2  16   2  20   2  21   2  22   2
M  RAD  2  23   2  24   2
M  END
>  <REMARK>  (1) 
 SMILES COc1ccc(-c2nc(Nc3ccccc3)[nH]c(=O)c2C#N)cc1
 SMILES IDX 7 1 8 2 9 3 10 4 17 5 18 6 19 7 20 8 6 11 3 12 4 13 24 14
 SMILES IDX 5 15 23 16 2 17 1 18 21 19 22 20 11 21 12 22 16 23 13 24
 SMILES IDX 15 25 14 26
 H PARENT 10 9 17 10

>  <TORSDO>  (1) 
F 4

$$$$
