/home/pchatterjee/Documents/git/vs_workflow/DiffDock/diffdock_run/pdbqt_scrubbed/Z442313918.pdbqt
     RDKit          3D

 24 26  0  0  0  0  0  0  0  0999 V2000
    6.6503   44.6710   51.1737 C   0  0  0  0  0  0  0  0  0  0  0  0
    6.2124   43.6742   50.3660 N   0  0  0  0  0  0  0  0  0  0  0  0
    7.0057   43.0819   49.4481 C   0  0  0  0  0  0  0  0  0  0  0  0
    6.5313   42.0447   48.6155 N   0  0  0  0  0  0  0  0  0  0  0  0
    8.2753   43.5175   49.3529 N   0  0  0  0  0  0  0  0  0  0  0  0
    8.7704   44.5083   50.1309 C   0  0  0  0  0  0  0  0  0  0  0  0
    9.9687   44.8807   50.0025 O   0  0  0  0  0  0  0  0  0  0  0  0
    7.9493   45.1046   51.0643 C   0  0  0  0  0  0  0  0  0  0  0  0
    5.6983   45.2300   52.1245 C   0  0  0  0  0  0  0  0  0  0  0  0
    3.7771   46.3384   53.7639 C   0  0  0  0  0  0  0  0  0  0  0  0
    4.9164   45.7868   54.3117 C   0  0  0  0  0  3  0  0  0  0  0  0
    3.5625   46.3535   52.3844 C   0  0  0  0  0  3  0  0  0  0  0  0
    5.8698   45.2353   53.4772 C   0  0  0  0  0  3  0  0  0  0  0  0
    4.5368   45.7942   51.5938 C   0  0  0  0  0  3  0  0  0  0  0  0
    2.7723   46.9132   54.5512 O   0  0  0  0  0  0  0  0  0  0  0  0
    2.1286   46.2105   55.5971 C   0  0  0  0  0  1  0  0  0  0  0  0
    8.4215   46.1534   51.9094 C   0  0  0  0  0  0  0  0  0  0  0  0
    8.8058   47.0086   52.5762 N   0  0  0  0  0  0  0  0  0  0  0  0
    5.1917   41.5888   48.7400 C   0  0  0  0  0  0  0  0  0  0  0  0
    4.5737   40.8141   47.7575 C   0  0  0  0  0  3  0  0  0  0  0  0
    4.3993   41.8784   49.8442 C   0  0  0  0  0  3  0  0  0  0  0  0
    3.2757   40.3804   47.8929 C   0  0  0  0  0  3  0  0  0  0  0  0
    3.1175   41.4540   49.9851 C   0  0  0  0  0  3  0  0  0  0  0  0
    2.5414   40.6988   49.0084 C   0  0  0  0  0  3  0  0  0  0  0  0
  1  2  1  0
  1  8  2  0
  2  3  2  0
  3  4  1  0
  3  5  1  0
  6  5  1  0
  6  7  2  0
  8  6  1  0
  9 13  2  0
  9  1  1  0
 10 11  2  0
 11 13  1  0
 12 10  1  0
 12 14  2  0
 14  9  1  0
 15 10  1  0
 16 15  1  0
 17  8  1  0
 18 17  3  0
 19  4  1  0
 19 21  1  0
 20 19  2  0
 22 20  1  0
 22 24  2  0
 23 21  2  0
 24 23  1  0
M  RAD  8  11   2  12   2  13   2  14   2  16   2  20   2  21   2  22   2
M  RAD  2  23   2  24   2
M  END
>  <REMARK>  (1) 
 SMILES COc1ccc(-c2nc(Nc3ccccc3)[nH]c(=O)c2C#N)cc1
 SMILES IDX 7 1 8 2 9 3 10 4 17 5 18 6 19 7 20 8 6 11 3 12 4 13 24 14
 SMILES IDX 5 15 23 16 2 17 1 18 21 19 22 20 11 21 12 22 16 23 13 24
 SMILES IDX 15 25 14 26
 H PARENT 10 9 17 10

>  <TORSDO>  (1) 
F 4

$$$$
