/home/pchatterjee/Documents/git/vs_workflow/DiffDock/diffdock_run/pdbqt_scrubbed/Z442313918.pdbqt
     RDKit          3D

 24 26  0  0  0  0  0  0  0  0999 V2000
    6.5846   44.6249   51.0635 C   0  0  0  0  0  0  0  0  0  0  0  0
    6.2233   43.6137   50.2360 N   0  0  0  0  0  0  0  0  0  0  0  0
    7.0717   43.0746   49.3347 C   0  0  0  0  0  0  0  0  0  0  0  0
    6.6768   42.0213   48.4810 N   0  0  0  0  0  0  0  0  0  0  0  0
    8.3176   43.5797   49.2773 N   0  0  0  0  0  0  0  0  0  0  0  0
    8.7370   44.5883   50.0765 C   0  0  0  0  0  0  0  0  0  0  0  0
    9.9162   45.0266   49.9834 O   0  0  0  0  0  0  0  0  0  0  0  0
    7.8603   45.1297   50.9925 C   0  0  0  0  0  0  0  0  0  0  0  0
    5.5787   45.1217   51.9930 C   0  0  0  0  0  0  0  0  0  0  0  0
    3.7987   46.0043   53.9062 C   0  0  0  0  0  0  0  0  0  0  0  0
    3.4932   46.1347   52.5675 C   0  0  0  0  0  3  0  0  0  0  0  0
    4.9991   45.4308   54.3297 C   0  0  0  0  0  3  0  0  0  0  0  0
    4.3952   45.6877   51.6208 C   0  0  0  0  0  3  0  0  0  0  0  0
    5.8653   45.0008   53.3540 C   0  0  0  0  0  3  0  0  0  0  0  0
    2.9306   46.4357   54.9161 O   0  0  0  0  0  0  0  0  0  0  0  0
    1.5243   46.3186   54.8131 C   0  0  0  0  0  1  0  0  0  0  0  0
    8.2520   46.1943   51.8588 C   0  0  0  0  0  0  0  0  0  0  0  0
    8.5579   47.0453   52.5701 N   0  0  0  0  0  0  0  0  0  0  0  0
    5.3373   41.5492   48.5061 C   0  0  0  0  0  0  0  0  0  0  0  0
    4.7513   40.9114   47.4121 C   0  0  0  0  0  3  0  0  0  0  0  0
    4.5134   41.6862   49.6167 C   0  0  0  0  0  3  0  0  0  0  0  0
    3.4528   40.4599   47.4521 C   0  0  0  0  0  3  0  0  0  0  0  0
    3.2310   41.2432   49.6639 C   0  0  0  0  0  3  0  0  0  0  0  0
    2.6865   40.6241   48.5794 C   0  0  0  0  0  3  0  0  0  0  0  0
  1  2  1  0
  1  8  2  0
  2  3  2  0
  3  4  1  0
  3  5  1  0
  6  5  1  0
  6  7  2  0
  8  6  1  0
  9 13  2  0
  9  1  1  0
 10 11  2  0
 11 13  1  0
 12 10  1  0
 12 14  2  0
 14  9  1  0
 15 10  1  0
 16 15  1  0
 17  8  1  0
 18 17  3  0
 19  4  1  0
 19 21  1  0
 20 19  2  0
 22 20  1  0
 22 24  2  0
 23 21  2  0
 24 23  1  0
M  RAD  8  11   2  12   2  13   2  14   2  16   2  20   2  21   2  22   2
M  RAD  2  23   2  24   2
M  END
>  <REMARK>  (1) 
 SMILES COc1ccc(-c2nc(Nc3ccccc3)[nH]c(=O)c2C#N)cc1
 SMILES IDX 7 1 8 2 9 3 10 4 17 5 18 6 19 7 20 8 6 11 3 12 4 13 24 14
 SMILES IDX 5 15 23 16 2 17 1 18 21 19 22 20 11 21 12 22 16 23 13 24
 SMILES IDX 15 25 14 26
 H PARENT 10 9 17 10

>  <TORSDO>  (1) 
F 4

$$$$
