/home/pchatterjee/Documents/git/vs_workflow/DiffDock/diffdock_run/pdbqt_scrubbed/Z442313918.pdbqt
     RDKit          3D

 24 26  0  0  0  0  0  0  0  0999 V2000
    6.6780   44.5993   51.2255 C   0  0  0  0  0  0  0  0  0  0  0  0
    6.3330   43.5823   50.3981 N   0  0  0  0  0  0  0  0  0  0  0  0
    7.2079   43.0152   49.5404 C   0  0  0  0  0  0  0  0  0  0  0  0
    6.8297   41.9564   48.6861 N   0  0  0  0  0  0  0  0  0  0  0  0
    8.4640   43.4979   49.5274 N   0  0  0  0  0  0  0  0  0  0  0  0
    8.8682   44.5108   50.3289 C   0  0  0  0  0  0  0  0  0  0  0  0
   10.0578   44.9274   50.2784 O   0  0  0  0  0  0  0  0  0  0  0  0
    7.9644   45.0809   51.2001 C   0  0  0  0  0  0  0  0  0  0  0  0
    5.6438   45.1272   52.1055 C   0  0  0  0  0  0  0  0  0  0  0  0
    3.8078   46.0790   53.9305 C   0  0  0  0  0  0  0  0  0  0  0  0
    3.5299   46.1325   52.5806 C   0  0  0  0  0  3  0  0  0  0  0  0
    5.0078   45.5500   54.4095 C   0  0  0  0  0  3  0  0  0  0  0  0
    4.4598   45.6517   51.6785 C   0  0  0  0  0  3  0  0  0  0  0  0
    5.9022   45.0839   53.4768 C   0  0  0  0  0  3  0  0  0  0  0  0
    2.9106   46.5483   54.8972 O   0  0  0  0  0  0  0  0  0  0  0  0
    1.6501   45.9464   55.1225 C   0  0  0  0  0  1  0  0  0  0  0  0
    8.3391   46.1514   52.0667 C   0  0  0  0  0  0  0  0  0  0  0  0
    8.6475   47.0232   52.7512 N   0  0  0  0  0  0  0  0  0  0  0  0
    5.4950   41.4707   48.7030 C   0  0  0  0  0  0  0  0  0  0  0  0
    4.6504   41.6500   49.7992 C   0  0  0  0  0  3  0  0  0  0  0  0
    4.9322   40.7836   47.6343 C   0  0  0  0  0  3  0  0  0  0  0  0
    3.3602   41.1736   49.8001 C   0  0  0  0  0  3  0  0  0  0  0  0
    3.6598   40.3103   47.6275 C   0  0  0  0  0  3  0  0  0  0  0  0
    2.8590   40.5011   48.7131 C   0  0  0  0  0  3  0  0  0  0  0  0
  1  2  1  0
  1  8  2  0
  2  3  2  0
  3  4  1  0
  3  5  1  0
  6  5  1  0
  6  7  2  0
  8  6  1  0
  9 13  2  0
  9  1  1  0
 10 11  2  0
 11 13  1  0
 12 10  1  0
 12 14  2  0
 14  9  1  0
 15 10  1  0
 16 15  1  0
 17  8  1  0
 18 17  3  0
 19  4  1  0
 19 21  1  0
 20 19  2  0
 22 20  1  0
 22 24  2  0
 23 21  2  0
 24 23  1  0
M  RAD  8  11   2  12   2  13   2  14   2  16   2  20   2  21   2  22   2
M  RAD  2  23   2  24   2
M  END
>  <REMARK>  (1) 
 SMILES COc1ccc(-c2nc(Nc3ccccc3)[nH]c(=O)c2C#N)cc1
 SMILES IDX 7 1 8 2 9 3 10 4 17 5 18 6 19 7 20 8 6 11 3 12 4 13 24 14
 SMILES IDX 5 15 23 16 2 17 1 18 21 19 22 20 11 21 12 22 16 23 13 24
 SMILES IDX 15 25 14 26
 H PARENT 10 9 17 10

>  <TORSDO>  (1) 
F 4

$$$$
