/home/pchatterjee/Documents/git/vs_workflow/DiffDock/diffdock_run/pdbqt_scrubbed/Z442313918.pdbqt
     RDKit          3D

 24 26  0  0  0  0  0  0  0  0999 V2000
    6.7247   44.5754   51.2915 C   0  0  0  0  0  0  0  0  0  0  0  0
    6.3427   43.5300   50.5174 N   0  0  0  0  0  0  0  0  0  0  0  0
    7.1769   42.9339   49.6391 C   0  0  0  0  0  0  0  0  0  0  0  0
    6.7606   41.8458   48.8411 N   0  0  0  0  0  0  0  0  0  0  0  0
    8.4299   43.4163   49.5493 N   0  0  0  0  0  0  0  0  0  0  0  0
    8.8698   44.4568   50.2950 C   0  0  0  0  0  0  0  0  0  0  0  0
   10.0547   44.8718   50.1732 O   0  0  0  0  0  0  0  0  0  0  0  0
    8.0074   45.0564   51.1880 C   0  0  0  0  0  0  0  0  0  0  0  0
    5.7326   45.1331   52.2011 C   0  0  0  0  0  0  0  0  0  0  0  0
    3.8925   46.0308   54.0493 C   0  0  0  0  0  0  0  0  0  0  0  0
    4.1016   46.7389   52.8843 C   0  0  0  0  0  3  0  0  0  0  0  0
    4.5937   44.8558   54.3266 C   0  0  0  0  0  3  0  0  0  0  0  0
    5.0269   46.2764   51.9680 C   0  0  0  0  0  3  0  0  0  0  0  0
    5.5032   44.4338   53.3875 C   0  0  0  0  0  3  0  0  0  0  0  0
    2.9708   46.4431   55.0190 O   0  0  0  0  0  0  0  0  0  0  0  0
    2.0093   45.5677   55.5768 C   0  0  0  0  0  1  0  0  0  0  0  0
    8.4207   46.1565   51.9980 C   0  0  0  0  0  0  0  0  0  0  0  0
    8.7643   47.0491   52.6376 N   0  0  0  0  0  0  0  0  0  0  0  0
    5.3993   41.4401   48.8454 C   0  0  0  0  0  0  0  0  0  0  0  0
    4.8306   40.7276   47.7890 C   0  0  0  0  0  3  0  0  0  0  0  0
    4.5352   41.7208   49.8969 C   0  0  0  0  0  3  0  0  0  0  0  0
    3.5106   40.3420   47.8082 C   0  0  0  0  0  3  0  0  0  0  0  0
    3.2314   41.3437   49.9232 C   0  0  0  0  0  3  0  0  0  0  0  0
    2.7046   40.6487   48.8765 C   0  0  0  0  0  3  0  0  0  0  0  0
  1  2  1  0
  1  8  2  0
  2  3  2  0
  3  4  1  0
  3  5  1  0
  6  5  1  0
  6  7  2  0
  8  6  1  0
  9 13  2  0
  9  1  1  0
 10 11  2  0
 11 13  1  0
 12 10  1  0
 12 14  2  0
 14  9  1  0
 15 10  1  0
 16 15  1  0
 17  8  1  0
 18 17  3  0
 19  4  1  0
 19 21  1  0
 20 19  2  0
 22 20  1  0
 22 24  2  0
 23 21  2  0
 24 23  1  0
M  RAD  8  11   2  12   2  13   2  14   2  16   2  20   2  21   2  22   2
M  RAD  2  23   2  24   2
M  END
>  <REMARK>  (1) 
 SMILES COc1ccc(-c2nc(Nc3ccccc3)[nH]c(=O)c2C#N)cc1
 SMILES IDX 7 1 8 2 9 3 10 4 17 5 18 6 19 7 20 8 6 11 3 12 4 13 24 14
 SMILES IDX 5 15 23 16 2 17 1 18 21 19 22 20 11 21 12 22 16 23 13 24
 SMILES IDX 15 25 14 26
 H PARENT 10 9 17 10

>  <TORSDO>  (1) 
F 4

$$$$
