/home/pchatterjee/Documents/git/vs_workflow/DiffDock/diffdock_run/pdbqt_scrubbed/Z442313918.pdbqt
     RDKit          3D

 24 26  0  0  0  0  0  0  0  0999 V2000
    6.4922   44.7776   51.1515 C   0  0  0  0  0  0  0  0  0  0  0  0
    6.1257   43.7708   50.3209 N   0  0  0  0  0  0  0  0  0  0  0  0
    6.9879   43.1898   49.4596 C   0  0  0  0  0  0  0  0  0  0  0  0
    6.5874   42.1419   48.6019 N   0  0  0  0  0  0  0  0  0  0  0  0
    8.2533   43.6474   49.4463 N   0  0  0  0  0  0  0  0  0  0  0  0
    8.6788   44.6491   50.2511 C   0  0  0  0  0  0  0  0  0  0  0  0
    9.8763   45.0421   50.2002 O   0  0  0  0  0  0  0  0  0  0  0  0
    7.7879   45.2336   51.1259 C   0  0  0  0  0  0  0  0  0  0  0  0
    5.4701   45.3225   52.0352 C   0  0  0  0  0  0  0  0  0  0  0  0
    3.6422   46.2778   53.8666 C   0  0  0  0  0  0  0  0  0  0  0  0
    3.4477   46.4979   52.5190 C   0  0  0  0  0  3  0  0  0  0  0  0
    4.7523   45.5759   54.3401 C   0  0  0  0  0  3  0  0  0  0  0  0
    4.3724   46.0130   51.6137 C   0  0  0  0  0  3  0  0  0  0  0  0
    5.6450   45.1125   53.4043 C   0  0  0  0  0  3  0  0  0  0  0  0
    2.7452   46.7411   54.8364 O   0  0  0  0  0  0  0  0  0  0  0  0
    1.4489   46.1970   54.9968 C   0  0  0  0  0  1  0  0  0  0  0  0
    8.1851   46.2931   51.9959 C   0  0  0  0  0  0  0  0  0  0  0  0
    8.4910   47.1440   52.7074 N   0  0  0  0  0  0  0  0  0  0  0  0
    5.2710   41.6152   48.6887 C   0  0  0  0  0  0  0  0  0  0  0  0
    4.4743   41.7830   49.8220 C   0  0  0  0  0  3  0  0  0  0  0  0
    4.6801   40.8965   47.6566 C   0  0  0  0  0  3  0  0  0  0  0  0
    3.2015   41.2667   49.8906 C   0  0  0  0  0  3  0  0  0  0  0  0
    3.4245   40.3838   47.7167 C   0  0  0  0  0  3  0  0  0  0  0  0
    2.6706   40.5643   48.8371 C   0  0  0  0  0  3  0  0  0  0  0  0
  1  2  1  0
  1  8  2  0
  2  3  2  0
  3  4  1  0
  3  5  1  0
  6  5  1  0
  6  7  2  0
  8  6  1  0
  9 13  2  0
  9  1  1  0
 10 11  2  0
 11 13  1  0
 12 10  1  0
 12 14  2  0
 14  9  1  0
 15 10  1  0
 16 15  1  0
 17  8  1  0
 18 17  3  0
 19  4  1  0
 19 21  1  0
 20 19  2  0
 22 20  1  0
 22 24  2  0
 23 21  2  0
 24 23  1  0
M  RAD  8  11   2  12   2  13   2  14   2  16   2  20   2  21   2  22   2
M  RAD  2  23   2  24   2
M  END
>  <REMARK>  (1) 
 SMILES COc1ccc(-c2nc(Nc3ccccc3)[nH]c(=O)c2C#N)cc1
 SMILES IDX 7 1 8 2 9 3 10 4 17 5 18 6 19 7 20 8 6 11 3 12 4 13 24 14
 SMILES IDX 5 15 23 16 2 17 1 18 21 19 22 20 11 21 12 22 16 23 13 24
 SMILES IDX 15 25 14 26
 H PARENT 10 9 17 10

>  <TORSDO>  (1) 
F 4

$$$$
