/home/pchatterjee/Documents/git/vs_workflow/DiffDock/diffdock_run/pdbqt_scrubbed/4566.pdbqt
     RDKit          3D

 28 31  0  0  1  0  0  0  0  0999 V2000
    7.4251   42.7049   49.5189 N   0  0  0  0  0  0  0  0  0  0  0  0
    6.1449   42.0866   49.2773 C   0  0  0  0  0  0  0  0  0  0  0  0
    3.6754   40.8803   48.7928 C   0  0  0  0  0  0  0  0  0  0  0  0
    3.8305   41.7316   49.8916 C   0  0  0  0  0  3  0  0  0  0  0  0
    4.7466   40.6264   47.9324 C   0  0  0  0  0  3  0  0  0  0  0  0
    5.0620   42.3104   50.1018 C   0  0  0  0  0  3  0  0  0  0  0  0
    5.9646   41.2406   48.1980 C   0  0  0  0  0  3  0  0  0  0  0  0
    2.1225   40.1569   48.5366 S   0  0  2  0  0  0  0  0  0  0  0  0
    2.2038   39.2635   47.3415 O   0  0  0  0  0  0  0  0  0  0  0  0
    1.1258   41.2500   48.2851 O   0  0  0  0  0  0  0  0  0  0  0  0
    1.6557   39.2587   49.9384 N   0  0  0  0  0  0  0  0  0  0  0  0
    7.6099   44.0148   48.9223 C   0  0  0  0  0  3  0  0  0  0  0  0
    6.6627   44.9126   49.5555 N   0  0  0  0  0  0  0  0  0  0  0  0
    8.9403   44.4993   49.2372 N   0  0  0  0  0  0  0  0  0  0  0  0
    6.8502   45.3618   50.7510 C   0  0  0  0  0  0  0  0  0  0  0  0
    9.1657   44.9253   50.4197 C   0  0  0  0  0  0  0  0  0  0  0  0
    8.0782   44.9249   51.4615 C   0  0  0  0  0  3  0  0  0  0  0  0
   10.3472   45.4620   51.0490 N   0  0  0  0  0  0  0  0  0  0  0  0
    8.5899   45.9704   52.3353 N   0  0  0  0  0  0  0  0  0  0  0  0
   10.0185   46.0667   52.1562 C   0  0  0  0  0  3  0  0  0  0  0  0
    5.9658   46.2226   51.3898 O   0  0  0  0  0  0  0  0  0  0  0  0
    4.5873   45.8689   51.2740 C   0  0  0  0  0  2  0  0  0  0  0  0
    4.2356   45.2277   52.6176 C   0  0  0  0  0  3  0  0  0  0  0  0
    3.9739   46.2855   53.6499 C   0  0  0  0  0  2  0  0  0  0  0  0
    2.9994   44.3801   52.3302 C   0  0  0  0  0  2  0  0  0  0  0  0
    2.5459   46.7167   53.5556 C   0  0  0  0  0  2  0  0  0  0  0  0
    1.9821   45.2432   51.6298 C   0  0  0  0  0  2  0  0  0  0  0  0
    2.0303   46.6657   52.1345 C   0  0  0  0  0  2  0  0  0  0  0  0
  1  2  1  0
  2  7  2  0
  3  8  1  0
  3  5  2  0
  4  3  1  0
  6  4  2  0
  6  2  1  0
  7  5  1  0
  8  9  2  0
 10  8  2  0
  8 11  1  1
 12  1  1  0
 12 13  1  0
 13 15  2  0
 14 16  2  0
 14 12  1  0
 15 21  1  0
 17 16  1  0
 17 19  1  0
 17 15  1  0
 18 16  1  0
 18 20  2  0
 20 19  1  0
 21 22  1  0
 22 23  1  0
 23 24  1  0
 24 26  1  0
 25 23  1  0
 27 25  1  0
 27 28  1  0
 28 26  1  0
M  RAD  8   4   2   5   2   6   2   7   2  12   2  17   2  20   2  22   3
M  RAD  6  23   2  24   3  25   3  26   3  27   3  28   3
M  END
>  <REMARK>  (1) 
 SMILES NS(=O)(=O)c1ccc(Nc2nc(OCC3CCCCC3)c3[nH]cnc3n2)cc1
 SMILES IDX 9 1 8 3 5 4 6 5 28 6 7 7 27 8 2 9 3 10 4 11 1 12 10 15 11 16
 SMILES IDX 26 17 12 18 25 19 21 20 24 21 22 22 23 23 13 25 14 26 15 27
 SMILES IDX 16 28 20 29 17 30 19 31 18 32
 H PARENT 9 2 1 13 1 14 22 24

>  <TORSDO>  (1) 
F 7

$$$$
