/home/pchatterjee/Documents/git/vs_workflow/DiffDock/diffdock_run/pdbqt_scrubbed/4566.pdbqt
     RDKit          3D

 28 31  0  0  1  0  0  0  0  0999 V2000
    7.6171   42.9093   49.5695 N   0  0  0  0  0  0  0  0  0  0  0  0
    6.4087   42.1373   49.4170 C   0  0  0  0  0  0  0  0  0  0  0  0
    4.0765   40.6372   49.1028 C   0  0  0  0  0  0  0  0  0  0  0  0
    4.2867   41.3579   50.2829 C   0  0  0  0  0  3  0  0  0  0  0  0
    5.0242   40.6601   48.0764 C   0  0  0  0  0  3  0  0  0  0  0  0
    5.4479   42.0876   50.4055 C   0  0  0  0  0  3  0  0  0  0  0  0
    6.1760   41.4156   48.2603 C   0  0  0  0  0  3  0  0  0  0  0  0
    2.6128   39.7223   48.9578 S   0  0  2  0  0  0  0  0  0  0  0  0
    2.8502   38.3525   49.5056 O   0  0  0  0  0  0  0  0  0  0  0  0
    2.2527   39.6311   47.5040 O   0  0  0  0  0  0  0  0  0  0  0  0
    1.3398   40.5119   49.8213 N   0  0  0  0  0  0  0  0  0  0  0  0
    7.6010   44.2246   48.9568 C   0  0  0  0  0  3  0  0  0  0  0  0
    6.6097   45.0147   49.6620 N   0  0  0  0  0  0  0  0  0  0  0  0
    8.8872   44.8627   49.1622 N   0  0  0  0  0  0  0  0  0  0  0  0
    6.8387   45.4966   50.8374 C   0  0  0  0  0  0  0  0  0  0  0  0
    9.1554   45.3257   50.3217 C   0  0  0  0  0  0  0  0  0  0  0  0
    8.1618   45.2123   51.4477 C   0  0  0  0  0  3  0  0  0  0  0  0
   10.3131   46.0023   50.8524 N   0  0  0  0  0  0  0  0  0  0  0  0
    8.6170   46.3200   52.2749 N   0  0  0  0  0  0  0  0  0  0  0  0
   10.0061   46.5781   51.9810 C   0  0  0  0  0  3  0  0  0  0  0  0
    5.9144   46.2573   51.5433 O   0  0  0  0  0  0  0  0  0  0  0  0
    4.5463   45.9683   51.2542 C   0  0  0  0  0  2  0  0  0  0  0  0
    4.1577   44.8807   52.2571 C   0  0  0  0  0  3  0  0  0  0  0  0
    4.1972   45.4211   53.6569 C   0  0  0  0  0  2  0  0  0  0  0  0
    2.7529   44.4538   51.8403 C   0  0  0  0  0  2  0  0  0  0  0  0
    2.8905   46.0792   53.9630 C   0  0  0  0  0  2  0  0  0  0  0  0
    1.8977   45.6879   51.7138 C   0  0  0  0  0  2  0  0  0  0  0  0
    2.2813   46.7276   52.7397 C   0  0  0  0  0  2  0  0  0  0  0  0
  1  2  1  0
  2  7  2  0
  3  8  1  0
  3  5  2  0
  4  3  1  0
  6  4  2  0
  6  2  1  0
  7  5  1  0
  8  9  2  0
 10  8  2  0
  8 11  1  1
 12  1  1  0
 12 13  1  0
 13 15  2  0
 14 16  2  0
 14 12  1  0
 15 21  1  0
 17 16  1  0
 17 19  1  0
 17 15  1  0
 18 16  1  0
 18 20  2  0
 20 19  1  0
 21 22  1  0
 22 23  1  0
 23 24  1  0
 24 26  1  0
 25 23  1  0
 27 25  1  0
 27 28  1  0
 28 26  1  0
M  RAD  8   4   2   5   2   6   2   7   2  12   2  17   2  20   2  22   3
M  RAD  6  23   2  24   3  25   3  26   3  27   3  28   3
M  END
>  <REMARK>  (1) 
 SMILES NS(=O)(=O)c1ccc(Nc2nc(OCC3CCCCC3)c3[nH]cnc3n2)cc1
 SMILES IDX 9 1 8 3 5 4 6 5 28 6 7 7 27 8 2 9 3 10 4 11 1 12 10 15 11 16
 SMILES IDX 26 17 12 18 25 19 21 20 24 21 22 22 23 23 13 25 14 26 15 27
 SMILES IDX 16 28 20 29 17 30 19 31 18 32
 H PARENT 9 2 1 13 1 14 22 24

>  <TORSDO>  (1) 
F 7

$$$$
