/home/pchatterjee/Documents/git/vs_workflow/DiffDock/diffdock_run/pdbqt_scrubbed/4566.pdbqt
     RDKit          3D

 28 31  0  0  1  0  0  0  0  0999 V2000
    7.3167   42.4787   49.5837 N   0  0  0  0  0  0  0  0  0  0  0  0
    6.0654   41.7764   49.4400 C   0  0  0  0  0  0  0  0  0  0  0  0
    3.6386   40.4231   49.1814 C   0  0  0  0  0  0  0  0  0  0  0  0
    4.5485   40.4294   48.1193 C   0  0  0  0  0  3  0  0  0  0  0  0
    3.9321   41.0890   50.3742 C   0  0  0  0  0  3  0  0  0  0  0  0
    5.7365   41.1066   48.2799 C   0  0  0  0  0  3  0  0  0  0  0  0
    5.1480   41.7545   50.4748 C   0  0  0  0  0  3  0  0  0  0  0  0
    2.1467   39.5686   48.9700 S   0  0  2  0  0  0  0  0  0  0  0  0
    2.2404   38.2607   49.6868 O   0  0  0  0  0  0  0  0  0  0  0  0
    1.9413   39.3288   47.5031 O   0  0  0  0  0  0  0  0  0  0  0  0
    0.8377   40.5118   49.5916 N   0  0  0  0  0  0  0  0  0  0  0  0
    7.4029   43.7516   48.8923 C   0  0  0  0  0  3  0  0  0  0  0  0
    6.5309   44.6784   49.5886 N   0  0  0  0  0  0  0  0  0  0  0  0
    8.7550   44.2648   49.0037 N   0  0  0  0  0  0  0  0  0  0  0  0
    6.8634   45.2004   50.7215 C   0  0  0  0  0  0  0  0  0  0  0  0
    9.1238   44.7630   50.1201 C   0  0  0  0  0  0  0  0  0  0  0  0
    8.1792   44.8168   51.2918 C   0  0  0  0  0  3  0  0  0  0  0  0
   10.3677   45.3461   50.5589 N   0  0  0  0  0  0  0  0  0  0  0  0
    8.7825   45.9172   52.0293 N   0  0  0  0  0  0  0  0  0  0  0  0
   10.1746   46.0138   51.6618 C   0  0  0  0  0  3  0  0  0  0  0  0
    6.0551   46.0911   51.4174 O   0  0  0  0  0  0  0  0  0  0  0  0
    4.6519   45.8544   51.2987 C   0  0  0  0  0  2  0  0  0  0  0  0
    4.2881   45.0392   52.5408 C   0  0  0  0  0  3  0  0  0  0  0  0
    4.3830   45.8916   53.7727 C   0  0  0  0  0  2  0  0  0  0  0  0
    2.8651   44.5524   52.2812 C   0  0  0  0  0  2  0  0  0  0  0  0
    3.0948   46.6269   53.9577 C   0  0  0  0  0  2  0  0  0  0  0  0
    2.0186   45.7380   51.8963 C   0  0  0  0  0  2  0  0  0  0  0  0
    2.4492   46.9819   52.6366 C   0  0  0  0  0  2  0  0  0  0  0  0
  1  2  1  0
  2  7  2  0
  3  8  1  0
  3  5  2  0
  4  3  1  0
  6  4  2  0
  6  2  1  0
  7  5  1  0
  8  9  2  0
 10  8  2  0
  8 11  1  1
 12  1  1  0
 12 13  1  0
 13 15  2  0
 14 16  2  0
 14 12  1  0
 15 21  1  0
 17 16  1  0
 17 19  1  0
 17 15  1  0
 18 16  1  0
 18 20  2  0
 20 19  1  0
 21 22  1  0
 22 23  1  0
 23 24  1  0
 24 26  1  0
 25 23  1  0
 27 25  1  0
 27 28  1  0
 28 26  1  0
M  RAD  8   4   2   5   2   6   2   7   2  12   2  17   2  20   2  22   3
M  RAD  6  23   2  24   3  25   3  26   3  27   3  28   3
M  END
>  <REMARK>  (1) 
 SMILES NS(=O)(=O)c1ccc(Nc2nc(OCC3CCCCC3)c3[nH]cnc3n2)cc1
 SMILES IDX 9 1 8 3 5 4 6 5 28 6 7 7 27 8 2 9 3 10 4 11 1 12 10 15 11 16
 SMILES IDX 26 17 12 18 25 19 21 20 24 21 22 22 23 23 13 25 14 26 15 27
 SMILES IDX 16 28 20 29 17 30 19 31 18 32
 H PARENT 9 2 1 13 1 14 22 24

>  <TORSDO>  (1) 
F 7

$$$$
