/home/pchatterjee/Documents/git/vs_workflow/DiffDock/diffdock_run/pdbqt_scrubbed/4566.pdbqt
     RDKit          3D

 28 31  0  0  1  0  0  0  0  0999 V2000
    7.3310   42.7768   49.5161 N   0  0  0  0  0  0  0  0  0  0  0  0
    6.0951   42.0529   49.3485 C   0  0  0  0  0  0  0  0  0  0  0  0
    3.6976   40.6577   49.0434 C   0  0  0  0  0  0  0  0  0  0  0  0
    4.6307   40.6740   48.0017 C   0  0  0  0  0  3  0  0  0  0  0  0
    3.9534   41.3343   50.2388 C   0  0  0  0  0  3  0  0  0  0  0  0
    5.8034   41.3719   48.1850 C   0  0  0  0  0  3  0  0  0  0  0  0
    5.1554   42.0207   50.3628 C   0  0  0  0  0  3  0  0  0  0  0  0
    2.2253   39.7771   48.8034 S   0  0  2  0  0  0  0  0  0  0  0  0
    2.3952   38.4021   49.3635 O   0  0  0  0  0  0  0  0  0  0  0  0
    1.9572   39.6941   47.3294 O   0  0  0  0  0  0  0  0  0  0  0  0
    0.9183   40.5963   49.5846 N   0  0  0  0  0  0  0  0  0  0  0  0
    7.3998   44.0614   48.8447 C   0  0  0  0  0  3  0  0  0  0  0  0
    6.4634   44.9456   49.5122 N   0  0  0  0  0  0  0  0  0  0  0  0
    8.7253   44.6228   49.0229 N   0  0  0  0  0  0  0  0  0  0  0  0
    6.7253   45.4641   50.6650 C   0  0  0  0  0  0  0  0  0  0  0  0
    9.0250   45.1191   50.1607 C   0  0  0  0  0  0  0  0  0  0  0  0
    8.0279   45.1217   51.2893 C   0  0  0  0  0  3  0  0  0  0  0  0
   10.2254   45.7419   50.6619 N   0  0  0  0  0  0  0  0  0  0  0  0
    8.5559   46.2335   52.0663 N   0  0  0  0  0  0  0  0  0  0  0  0
    9.9583   46.3868   51.7630 C   0  0  0  0  0  3  0  0  0  0  0  0
    5.8538   46.3146   51.3346 O   0  0  0  0  0  0  0  0  0  0  0  0
    4.5518   45.7797   51.5748 C   0  0  0  0  0  2  0  0  0  0  0  0
    4.2620   46.1043   53.0413 C   0  0  0  0  0  3  0  0  0  0  0  0
    3.3749   47.3107   53.1450 C   0  0  0  0  0  2  0  0  0  0  0  0
    3.5961   44.8463   53.5919 C   0  0  0  0  0  2  0  0  0  0  0  0
    1.9487   46.8794   53.0261 C   0  0  0  0  0  2  0  0  0  0  0  0
    2.4608   44.4684   52.6762 C   0  0  0  0  0  2  0  0  0  0  0  0
    1.7898   45.6931   52.1012 C   0  0  0  0  0  2  0  0  0  0  0  0
  1  2  1  0
  2  7  2  0
  3  8  1  0
  3  5  2  0
  4  3  1  0
  6  4  2  0
  6  2  1  0
  7  5  1  0
  8  9  2  0
 10  8  2  0
  8 11  1  1
 12  1  1  0
 12 13  1  0
 13 15  2  0
 14 16  2  0
 14 12  1  0
 15 21  1  0
 17 16  1  0
 17 19  1  0
 17 15  1  0
 18 16  1  0
 18 20  2  0
 20 19  1  0
 21 22  1  0
 22 23  1  0
 23 24  1  0
 24 26  1  0
 25 23  1  0
 27 25  1  0
 27 28  1  0
 28 26  1  0
M  RAD  8   4   2   5   2   6   2   7   2  12   2  17   2  20   2  22   3
M  RAD  6  23   2  24   3  25   3  26   3  27   3  28   3
M  END
>  <REMARK>  (1) 
 SMILES NS(=O)(=O)c1ccc(Nc2nc(OCC3CCCCC3)c3[nH]cnc3n2)cc1
 SMILES IDX 9 1 8 3 5 4 6 5 28 6 7 7 27 8 2 9 3 10 4 11 1 12 10 15 11 16
 SMILES IDX 26 17 12 18 25 19 21 20 24 21 22 22 23 23 13 25 14 26 15 27
 SMILES IDX 16 28 20 29 17 30 19 31 18 32
 H PARENT 9 2 1 13 1 14 22 24

>  <TORSDO>  (1) 
F 7

$$$$
