/home/pchatterjee/Documents/git/vs_workflow/DiffDock/diffdock_run/pdbqt_scrubbed/4566.pdbqt
     RDKit          3D

 28 31  0  0  1  0  0  0  0  0999 V2000
    7.4274   42.9216   49.5190 N   0  0  0  0  0  0  0  0  0  0  0  0
    6.1727   42.2303   49.3536 C   0  0  0  0  0  0  0  0  0  0  0  0
    3.7499   40.8877   49.0137 C   0  0  0  0  0  0  0  0  0  0  0  0
    4.0433   41.4947   50.2391 C   0  0  0  0  0  3  0  0  0  0  0  0
    4.6593   40.9463   47.9545 C   0  0  0  0  0  3  0  0  0  0  0  0
    5.2474   42.1489   50.3732 C   0  0  0  0  0  3  0  0  0  0  0  0
    5.8578   41.6215   48.1522 C   0  0  0  0  0  3  0  0  0  0  0  0
    2.2327   40.0671   48.8545 S   0  0  2  0  0  0  0  0  0  0  0  0
    2.4086   38.6497   49.2937 O   0  0  0  0  0  0  0  0  0  0  0  0
    1.8232   40.1033   47.4114 O   0  0  0  0  0  0  0  0  0  0  0  0
    1.0341   40.8591   49.8167 N   0  0  0  0  0  0  0  0  0  0  0  0
    7.4664   44.2789   49.0071 C   0  0  0  0  0  3  0  0  0  0  0  0
    6.5393   45.0637   49.8001 N   0  0  0  0  0  0  0  0  0  0  0  0
    8.7906   44.8313   49.2192 N   0  0  0  0  0  0  0  0  0  0  0  0
    6.8263   45.4418   51.0005 C   0  0  0  0  0  0  0  0  0  0  0  0
    9.1153   45.1897   50.4011 C   0  0  0  0  0  0  0  0  0  0  0  0
    8.1480   45.0429   51.5461 C   0  0  0  0  0  3  0  0  0  0  0  0
   10.3223   45.7623   50.9443 N   0  0  0  0  0  0  0  0  0  0  0  0
    8.6855   46.0589   52.4390 N   0  0  0  0  0  0  0  0  0  0  0  0
   10.0780   46.2655   52.1218 C   0  0  0  0  0  3  0  0  0  0  0  0
    5.9646   46.1938   51.7899 O   0  0  0  0  0  0  0  0  0  0  0  0
    4.5787   46.0532   51.4758 C   0  0  0  0  0  2  0  0  0  0  0  0
    4.1965   44.6719   52.0103 C   0  0  0  0  0  3  0  0  0  0  0  0
    4.4988   44.5763   53.4775 C   0  0  0  0  0  2  0  0  0  0  0  0
    2.7045   44.5424   51.7166 C   0  0  0  0  0  2  0  0  0  0  0  0
    3.3427   45.1237   54.2507 C   0  0  0  0  0  2  0  0  0  0  0  0
    2.0056   45.7655   52.2512 C   0  0  0  0  0  2  0  0  0  0  0  0
    2.6581   46.2581   53.5210 C   0  0  0  0  0  2  0  0  0  0  0  0
  1  2  1  0
  2  7  2  0
  3  8  1  0
  3  5  2  0
  4  3  1  0
  6  4  2  0
  6  2  1  0
  7  5  1  0
  8  9  2  0
 10  8  2  0
  8 11  1  1
 12  1  1  0
 12 13  1  0
 13 15  2  0
 14 16  2  0
 14 12  1  0
 15 21  1  0
 17 16  1  0
 17 19  1  0
 17 15  1  0
 18 16  1  0
 18 20  2  0
 20 19  1  0
 21 22  1  0
 22 23  1  0
 23 24  1  0
 24 26  1  0
 25 23  1  0
 27 25  1  0
 27 28  1  0
 28 26  1  0
M  RAD  8   4   2   5   2   6   2   7   2  12   2  17   2  20   2  22   3
M  RAD  6  23   2  24   3  25   3  26   3  27   3  28   3
M  END
>  <REMARK>  (1) 
 SMILES NS(=O)(=O)c1ccc(Nc2nc(OCC3CCCCC3)c3[nH]cnc3n2)cc1
 SMILES IDX 9 1 8 3 5 4 6 5 28 6 7 7 27 8 2 9 3 10 4 11 1 12 10 15 11 16
 SMILES IDX 26 17 12 18 25 19 21 20 24 21 22 22 23 23 13 25 14 26 15 27
 SMILES IDX 16 28 20 29 17 30 19 31 18 32
 H PARENT 9 2 1 13 1 14 22 24

>  <TORSDO>  (1) 
F 7

$$$$
