/home/pchatterjee/Documents/git/vs_workflow/DiffDock/diffdock_run/pdbqt_scrubbed/4566.pdbqt
     RDKit          3D

 28 31  0  0  1  0  0  0  0  0999 V2000
    7.4951   42.5562   49.5806 N   0  0  0  0  0  0  0  0  0  0  0  0
    6.2682   41.8192   49.4048 C   0  0  0  0  0  0  0  0  0  0  0  0
    3.8871   40.3997   49.0832 C   0  0  0  0  0  0  0  0  0  0  0  0
    4.8668   40.3502   48.0864 C   0  0  0  0  0  3  0  0  0  0  0  0
    4.0879   41.1544   50.2418 C   0  0  0  0  0  3  0  0  0  0  0  0
    6.0299   41.0621   48.2767 C   0  0  0  0  0  3  0  0  0  0  0  0
    5.2830   41.8510   50.3751 C   0  0  0  0  0  3  0  0  0  0  0  0
    2.4273   39.5008   48.8349 S   0  0  2  0  0  0  0  0  0  0  0  0
    2.5051   38.2363   49.6273 O   0  0  0  0  0  0  0  0  0  0  0  0
    2.3123   39.1771   47.3742 O   0  0  0  0  0  0  0  0  0  0  0  0
    1.0658   40.4461   49.3275 N   0  0  0  0  0  0  0  0  0  0  0  0
    7.5666   43.8276   48.8847 C   0  0  0  0  0  3  0  0  0  0  0  0
    6.6436   44.7311   49.5450 N   0  0  0  0  0  0  0  0  0  0  0  0
    8.8980   44.3821   49.0391 N   0  0  0  0  0  0  0  0  0  0  0  0
    6.9210   45.2688   50.6853 C   0  0  0  0  0  0  0  0  0  0  0  0
    9.2129   44.8971   50.1643 C   0  0  0  0  0  0  0  0  0  0  0  0
    8.2274   44.9283   51.3027 C   0  0  0  0  0  3  0  0  0  0  0  0
   10.4229   45.5200   50.6418 N   0  0  0  0  0  0  0  0  0  0  0  0
    8.7715   46.0502   52.0535 N   0  0  0  0  0  0  0  0  0  0  0  0
   10.1718   46.1872   51.7333 C   0  0  0  0  0  3  0  0  0  0  0  0
    6.0627   46.1381   51.3476 O   0  0  0  0  0  0  0  0  0  0  0  0
    4.6752   45.8197   51.2367 C   0  0  0  0  0  2  0  0  0  0  0  0
    4.3137   45.1814   52.5791 C   0  0  0  0  0  3  0  0  0  0  0  0
    4.4686   46.1778   53.6910 C   0  0  0  0  0  2  0  0  0  0  0  0
    2.8686   44.7200   52.4116 C   0  0  0  0  0  2  0  0  0  0  0  0
    3.2119   46.9787   53.8072 C   0  0  0  0  0  2  0  0  0  0  0  0
    2.0549   45.8789   51.8968 C   0  0  0  0  0  2  0  0  0  0  0  0
    2.5467   47.1888   52.4650 C   0  0  0  0  0  2  0  0  0  0  0  0
  1  2  1  0
  2  7  2  0
  3  8  1  0
  3  5  2  0
  4  3  1  0
  6  4  2  0
  6  2  1  0
  7  5  1  0
  8  9  2  0
 10  8  2  0
  8 11  1  1
 12  1  1  0
 12 13  1  0
 13 15  2  0
 14 16  2  0
 14 12  1  0
 15 21  1  0
 17 16  1  0
 17 19  1  0
 17 15  1  0
 18 16  1  0
 18 20  2  0
 20 19  1  0
 21 22  1  0
 22 23  1  0
 23 24  1  0
 24 26  1  0
 25 23  1  0
 27 25  1  0
 27 28  1  0
 28 26  1  0
M  RAD  8   4   2   5   2   6   2   7   2  12   2  17   2  20   2  22   3
M  RAD  6  23   2  24   3  25   3  26   3  27   3  28   3
M  END
>  <REMARK>  (1) 
 SMILES NS(=O)(=O)c1ccc(Nc2nc(OCC3CCCCC3)c3[nH]cnc3n2)cc1
 SMILES IDX 9 1 8 3 5 4 6 5 28 6 7 7 27 8 2 9 3 10 4 11 1 12 10 15 11 16
 SMILES IDX 26 17 12 18 25 19 21 20 24 21 22 22 23 23 13 25 14 26 15 27
 SMILES IDX 16 28 20 29 17 30 19 31 18 32
 H PARENT 9 2 1 13 1 14 22 24

>  <TORSDO>  (1) 
F 7

$$$$
