/home/pchatterjee/Documents/git/vs_workflow/DiffDock/diffdock_run/pdbqt_scrubbed/4566.pdbqt
     RDKit          3D

 28 31  0  0  1  0  0  0  0  0999 V2000
    7.3718   42.6611   49.6374 N   0  0  0  0  0  0  0  0  0  0  0  0
    6.1467   41.9240   49.4489 C   0  0  0  0  0  0  0  0  0  0  0  0
    3.7690   40.5049   49.1026 C   0  0  0  0  0  0  0  0  0  0  0  0
    4.7657   40.4423   48.1235 C   0  0  0  0  0  3  0  0  0  0  0  0
    3.9511   41.2725   50.2558 C   0  0  0  0  0  3  0  0  0  0  0  0
    5.9266   41.1545   48.3256 C   0  0  0  0  0  3  0  0  0  0  0  0
    5.1451   41.9687   50.4016 C   0  0  0  0  0  3  0  0  0  0  0  0
    2.3120   39.6056   48.8396 S   0  0  2  0  0  0  0  0  0  0  0  0
    2.5017   38.2231   49.3741 O   0  0  0  0  0  0  0  0  0  0  0  0
    2.0512   39.5465   47.3630 O   0  0  0  0  0  0  0  0  0  0  0  0
    0.9888   40.3887   49.6305 N   0  0  0  0  0  0  0  0  0  0  0  0
    7.4380   43.9468   48.9678 C   0  0  0  0  0  3  0  0  0  0  0  0
    6.5582   44.8502   49.6848 N   0  0  0  0  0  0  0  0  0  0  0  0
    8.7840   44.4752   49.0807 N   0  0  0  0  0  0  0  0  0  0  0  0
    6.8904   45.3567   50.8247 C   0  0  0  0  0  0  0  0  0  0  0  0
    9.1527   44.9588   50.2036 C   0  0  0  0  0  0  0  0  0  0  0  0
    8.2141   44.9802   51.3812 C   0  0  0  0  0  3  0  0  0  0  0  0
   10.3916   45.5500   50.6457 N   0  0  0  0  0  0  0  0  0  0  0  0
    8.8075   46.0752   52.1344 N   0  0  0  0  0  0  0  0  0  0  0  0
   10.1962   46.1960   51.7611 C   0  0  0  0  0  3  0  0  0  0  0  0
    6.0747   46.2248   51.5404 O   0  0  0  0  0  0  0  0  0  0  0  0
    4.6725   46.0104   51.3770 C   0  0  0  0  0  2  0  0  0  0  0  0
    4.3260   44.9146   52.3865 C   0  0  0  0  0  3  0  0  0  0  0  0
    4.3460   45.4641   53.7832 C   0  0  0  0  0  2  0  0  0  0  0  0
    2.9381   44.4324   51.9734 C   0  0  0  0  0  2  0  0  0  0  0  0
    3.0156   46.0741   54.0867 C   0  0  0  0  0  2  0  0  0  0  0  0
    2.0367   45.6325   51.8407 C   0  0  0  0  0  2  0  0  0  0  0  0
    2.3814   46.6919   52.8602 C   0  0  0  0  0  2  0  0  0  0  0  0
  1  2  1  0
  2  7  2  0
  3  8  1  0
  3  5  2  0
  4  3  1  0
  6  4  2  0
  6  2  1  0
  7  5  1  0
  8  9  2  0
 10  8  2  0
  8 11  1  1
 12  1  1  0
 12 13  1  0
 13 15  2  0
 14 16  2  0
 14 12  1  0
 15 21  1  0
 17 16  1  0
 17 19  1  0
 17 15  1  0
 18 16  1  0
 18 20  2  0
 20 19  1  0
 21 22  1  0
 22 23  1  0
 23 24  1  0
 24 26  1  0
 25 23  1  0
 27 25  1  0
 27 28  1  0
 28 26  1  0
M  RAD  8   4   2   5   2   6   2   7   2  12   2  17   2  20   2  22   3
M  RAD  6  23   2  24   3  25   3  26   3  27   3  28   3
M  END
>  <REMARK>  (1) 
 SMILES NS(=O)(=O)c1ccc(Nc2nc(OCC3CCCCC3)c3[nH]cnc3n2)cc1
 SMILES IDX 9 1 8 3 5 4 6 5 28 6 7 7 27 8 2 9 3 10 4 11 1 12 10 15 11 16
 SMILES IDX 26 17 12 18 25 19 21 20 24 21 22 22 23 23 13 25 14 26 15 27
 SMILES IDX 16 28 20 29 17 30 19 31 18 32
 H PARENT 9 2 1 13 1 14 22 24

>  <TORSDO>  (1) 
F 7

$$$$
