/home/pchatterjee/Documents/git/vs_workflow/DiffDock/diffdock_run/pdbqt_scrubbed/4566.pdbqt
     RDKit          3D

 28 31  0  0  1  0  0  0  0  0999 V2000
    7.3536   42.7377   49.5344 N   0  0  0  0  0  0  0  0  0  0  0  0
    6.1159   42.0151   49.3745 C   0  0  0  0  0  0  0  0  0  0  0  0
    3.7144   40.6236   49.0839 C   0  0  0  0  0  0  0  0  0  0  0  0
    4.6784   40.5667   48.0723 C   0  0  0  0  0  3  0  0  0  0  0  0
    3.9411   41.3717   50.2421 C   0  0  0  0  0  3  0  0  0  0  0  0
    5.8522   41.2649   48.2475 C   0  0  0  0  0  3  0  0  0  0  0  0
    5.1459   42.0544   50.3597 C   0  0  0  0  0  3  0  0  0  0  0  0
    2.2410   39.7421   48.8546 S   0  0  2  0  0  0  0  0  0  0  0  0
    2.4096   38.3733   49.4298 O   0  0  0  0  0  0  0  0  0  0  0  0
    1.9720   39.6431   47.3817 O   0  0  0  0  0  0  0  0  0  0  0  0
    0.9353   40.5714   49.6273 N   0  0  0  0  0  0  0  0  0  0  0  0
    7.4104   44.0333   48.8834 C   0  0  0  0  0  3  0  0  0  0  0  0
    6.4718   44.9004   49.5700 N   0  0  0  0  0  0  0  0  0  0  0  0
    8.7331   44.6006   49.0636 N   0  0  0  0  0  0  0  0  0  0  0  0
    6.7364   45.4020   50.7296 C   0  0  0  0  0  0  0  0  0  0  0  0
    9.0357   45.0805   50.2076 C   0  0  0  0  0  0  0  0  0  0  0  0
    8.0446   45.0583   51.3414 C   0  0  0  0  0  3  0  0  0  0  0  0
   10.2345   45.7031   50.7125 N   0  0  0  0  0  0  0  0  0  0  0  0
    8.5695   46.1610   52.1334 N   0  0  0  0  0  0  0  0  0  0  0  0
    9.9692   46.3284   51.8252 C   0  0  0  0  0  3  0  0  0  0  0  0
    5.8630   46.2357   51.4174 O   0  0  0  0  0  0  0  0  0  0  0  0
    4.6099   45.6453   51.7640 C   0  0  0  0  0  2  0  0  0  0  0  0
    4.2164   46.3131   53.0828 C   0  0  0  0  0  3  0  0  0  0  0  0
    3.1846   47.3766   52.8436 C   0  0  0  0  0  2  0  0  0  0  0  0
    3.6851   45.1748   53.9496 C   0  0  0  0  0  2  0  0  0  0  0  0
    1.8287   46.7475   52.8327 C   0  0  0  0  0  2  0  0  0  0  0  0
    2.6473   44.4194   53.1606 C   0  0  0  0  0  2  0  0  0  0  0  0
    1.8583   45.3454   52.2658 C   0  0  0  0  0  2  0  0  0  0  0  0
  1  2  1  0
  2  7  2  0
  3  8  1  0
  3  5  2  0
  4  3  1  0
  6  4  2  0
  6  2  1  0
  7  5  1  0
  8  9  2  0
 10  8  2  0
  8 11  1  1
 12  1  1  0
 12 13  1  0
 13 15  2  0
 14 16  2  0
 14 12  1  0
 15 21  1  0
 17 16  1  0
 17 19  1  0
 17 15  1  0
 18 16  1  0
 18 20  2  0
 20 19  1  0
 21 22  1  0
 22 23  1  0
 23 24  1  0
 24 26  1  0
 25 23  1  0
 27 25  1  0
 27 28  1  0
 28 26  1  0
M  RAD  8   4   2   5   2   6   2   7   2  12   2  17   2  20   2  22   3
M  RAD  6  23   2  24   3  25   3  26   3  27   3  28   3
M  END
>  <REMARK>  (1) 
 SMILES NS(=O)(=O)c1ccc(Nc2nc(OCC3CCCCC3)c3[nH]cnc3n2)cc1
 SMILES IDX 9 1 8 3 5 4 6 5 28 6 7 7 27 8 2 9 3 10 4 11 1 12 10 15 11 16
 SMILES IDX 26 17 12 18 25 19 21 20 24 21 22 22 23 23 13 25 14 26 15 27
 SMILES IDX 16 28 20 29 17 30 19 31 18 32
 H PARENT 9 2 1 13 1 14 22 24

>  <TORSDO>  (1) 
F 7

$$$$
