/home/pchatterjee/Documents/git/vs_workflow/DiffDock/diffdock_run/pdbqt_scrubbed/4566.pdbqt
     RDKit          3D

 28 31  0  0  1  0  0  0  0  0999 V2000
    7.3502   42.6785   49.4363 N   0  0  0  0  0  0  0  0  0  0  0  0
    6.1007   41.9776   49.2717 C   0  0  0  0  0  0  0  0  0  0  0  0
    3.6887   40.6151   48.9340 C   0  0  0  0  0  0  0  0  0  0  0  0
    3.9378   41.3042   50.1253 C   0  0  0  0  0  3  0  0  0  0  0  0
    4.6370   40.6013   47.9080 C   0  0  0  0  0  3  0  0  0  0  0  0
    5.1378   41.9659   50.2593 C   0  0  0  0  0  3  0  0  0  0  0  0
    5.8291   41.2883   48.1037 C   0  0  0  0  0  3  0  0  0  0  0  0
    2.1764   39.7857   48.7746 S   0  0  2  0  0  0  0  0  0  0  0  0
    2.2932   38.4497   49.4338 O   0  0  0  0  0  0  0  0  0  0  0  0
    1.8857   39.6060   47.3135 O   0  0  0  0  0  0  0  0  0  0  0  0
    0.9167   40.7178   49.5053 N   0  0  0  0  0  0  0  0  0  0  0  0
    7.4469   43.9543   48.7517 C   0  0  0  0  0  3  0  0  0  0  0  0
    6.5584   44.8760   49.4337 N   0  0  0  0  0  0  0  0  0  0  0  0
    8.7951   44.4706   48.8926 N   0  0  0  0  0  0  0  0  0  0  0  0
    6.8663   45.3945   50.5751 C   0  0  0  0  0  0  0  0  0  0  0  0
    9.1397   44.9655   50.0181 C   0  0  0  0  0  0  0  0  0  0  0  0
    8.1713   45.0122   51.1706 C   0  0  0  0  0  3  0  0  0  0  0  0
   10.3728   45.5501   50.4844 N   0  0  0  0  0  0  0  0  0  0  0  0
    8.7564   46.1112   51.9244 N   0  0  0  0  0  0  0  0  0  0  0  0
   10.1554   46.2130   51.5857 C   0  0  0  0  0  3  0  0  0  0  0  0
    6.0416   46.2803   51.2579 O   0  0  0  0  0  0  0  0  0  0  0  0
    4.6813   45.8651   51.3846 C   0  0  0  0  0  2  0  0  0  0  0  0
    4.4546   45.7286   52.8912 C   0  0  0  0  0  3  0  0  0  0  0  0
    4.0805   47.0547   53.4866 C   0  0  0  0  0  2  0  0  0  0  0  0
    3.3364   44.6983   53.0227 C   0  0  0  0  0  2  0  0  0  0  0  0
    2.6055   47.2530   53.3484 C   0  0  0  0  0  2  0  0  0  0  0  0
    2.1941   45.1188   52.1345 C   0  0  0  0  0  2  0  0  0  0  0  0
    2.0641   46.6226   52.0845 C   0  0  0  0  0  2  0  0  0  0  0  0
  1  2  1  0
  2  7  2  0
  3  8  1  0
  3  5  2  0
  4  3  1  0
  6  4  2  0
  6  2  1  0
  7  5  1  0
  8  9  2  0
 10  8  2  0
  8 11  1  1
 12  1  1  0
 12 13  1  0
 13 15  2  0
 14 16  2  0
 14 12  1  0
 15 21  1  0
 17 16  1  0
 17 19  1  0
 17 15  1  0
 18 16  1  0
 18 20  2  0
 20 19  1  0
 21 22  1  0
 22 23  1  0
 23 24  1  0
 24 26  1  0
 25 23  1  0
 27 25  1  0
 27 28  1  0
 28 26  1  0
M  RAD  8   4   2   5   2   6   2   7   2  12   2  17   2  20   2  22   3
M  RAD  6  23   2  24   3  25   3  26   3  27   3  28   3
M  END
>  <REMARK>  (1) 
 SMILES NS(=O)(=O)c1ccc(Nc2nc(OCC3CCCCC3)c3[nH]cnc3n2)cc1
 SMILES IDX 9 1 8 3 5 4 6 5 28 6 7 7 27 8 2 9 3 10 4 11 1 12 10 15 11 16
 SMILES IDX 26 17 12 18 25 19 21 20 24 21 22 22 23 23 13 25 14 26 15 27
 SMILES IDX 16 28 20 29 17 30 19 31 18 32
 H PARENT 9 2 1 13 1 14 22 24

>  <TORSDO>  (1) 
F 7

$$$$
