/home/pchatterjee/Documents/git/vs_workflow/DiffDock/diffdock_run/pdbqt_scrubbed/4566.pdbqt
     RDKit          3D

 28 31  0  0  1  0  0  0  0  0999 V2000
    7.3819   42.6632   49.6058 N   0  0  0  0  0  0  0  0  0  0  0  0
    6.1504   41.9545   49.3595 C   0  0  0  0  0  0  0  0  0  0  0  0
    3.7601   40.5889   48.9017 C   0  0  0  0  0  0  0  0  0  0  0  0
    4.7613   40.5858   47.9252 C   0  0  0  0  0  3  0  0  0  0  0  0
    3.9439   41.2702   50.1076 C   0  0  0  0  0  3  0  0  0  0  0  0
    5.9284   41.2694   48.1830 C   0  0  0  0  0  3  0  0  0  0  0  0
    5.1441   41.9415   50.3083 C   0  0  0  0  0  3  0  0  0  0  0  0
    2.2954   39.7261   48.5683 S   0  0  2  0  0  0  0  0  0  0  0  0
    2.4385   38.3287   49.0778 O   0  0  0  0  0  0  0  0  0  0  0  0
    2.0853   39.7048   47.0828 O   0  0  0  0  0  0  0  0  0  0  0  0
    0.9614   40.5192   49.3306 N   0  0  0  0  0  0  0  0  0  0  0  0
    7.4505   44.0065   49.0613 C   0  0  0  0  0  3  0  0  0  0  0  0
    6.5968   44.8459   49.8803 N   0  0  0  0  0  0  0  0  0  0  0  0
    8.8051   44.5074   49.1957 N   0  0  0  0  0  0  0  0  0  0  0  0
    6.9583   45.2370   51.0562 C   0  0  0  0  0  0  0  0  0  0  0  0
    9.2024   44.8769   50.3517 C   0  0  0  0  0  0  0  0  0  0  0  0
    8.2881   44.7948   51.5456 C   0  0  0  0  0  3  0  0  0  0  0  0
   10.4573   45.4099   50.8220 N   0  0  0  0  0  0  0  0  0  0  0  0
    8.9103   45.8061   52.3875 N   0  0  0  0  0  0  0  0  0  0  0  0
   10.2925   45.9476   51.9981 C   0  0  0  0  0  3  0  0  0  0  0  0
    6.1681   46.0408   51.8690 O   0  0  0  0  0  0  0  0  0  0  0  0
    4.7660   45.9724   51.6079 C   0  0  0  0  0  2  0  0  0  0  0  0
    4.2996   44.6996   52.3167 C   0  0  0  0  0  3  0  0  0  0  0  0
    4.5824   44.7864   53.7883 C   0  0  0  0  0  2  0  0  0  0  0  0
    2.8053   44.6155   52.0179 C   0  0  0  0  0  2  0  0  0  0  0  0
    3.4528   45.4973   54.4613 C   0  0  0  0  0  2  0  0  0  0  0  0
    2.1735   45.9370   52.3714 C   0  0  0  0  0  2  0  0  0  0  0  0
    2.8417   46.5593   53.5742 C   0  0  0  0  0  2  0  0  0  0  0  0
  1  2  1  0
  2  7  2  0
  3  8  1  0
  3  5  2  0
  4  3  1  0
  6  4  2  0
  6  2  1  0
  7  5  1  0
  8  9  2  0
 10  8  2  0
  8 11  1  1
 12  1  1  0
 12 13  1  0
 13 15  2  0
 14 16  2  0
 14 12  1  0
 15 21  1  0
 17 16  1  0
 17 19  1  0
 17 15  1  0
 18 16  1  0
 18 20  2  0
 20 19  1  0
 21 22  1  0
 22 23  1  0
 23 24  1  0
 24 26  1  0
 25 23  1  0
 27 25  1  0
 27 28  1  0
 28 26  1  0
M  RAD  8   4   2   5   2   6   2   7   2  12   2  17   2  20   2  22   3
M  RAD  6  23   2  24   3  25   3  26   3  27   3  28   3
M  END
>  <REMARK>  (1) 
 SMILES NS(=O)(=O)c1ccc(Nc2nc(OCC3CCCCC3)c3[nH]cnc3n2)cc1
 SMILES IDX 9 1 8 3 5 4 6 5 28 6 7 7 27 8 2 9 3 10 4 11 1 12 10 15 11 16
 SMILES IDX 26 17 12 18 25 19 21 20 24 21 22 22 23 23 13 25 14 26 15 27
 SMILES IDX 16 28 20 29 17 30 19 31 18 32
 H PARENT 9 2 1 13 1 14 22 24

>  <TORSDO>  (1) 
F 7

$$$$
