/home/pchatterjee/Documents/git/vs_workflow/DiffDock/diffdock_run/pdbqt_scrubbed/Z332934574.pdbqt
     RDKit          3D

 29 33  0  0  1  0  0  0  0  0999 V2000
    5.5938   46.2196   53.6351 C   0  0  0  0  0  0  0  0  0  0  0  0
    5.4103   46.7265   54.8832 C   0  0  0  0  0  3  0  0  0  0  0  0
    4.1259   47.0424   55.3137 C   0  0  0  0  0  3  0  0  0  0  0  0
    3.0556   46.8361   54.4592 C   0  0  0  0  0  3  0  0  0  0  0  0
    3.2051   46.3344   53.2027 C   0  0  0  0  0  0  0  0  0  0  0  0
    4.4897   46.0249   52.7948 C   0  0  0  0  0  3  0  0  0  0  0  0
    6.8589   45.7922   53.0572 C   0  0  0  0  0  0  0  0  0  0  0  0
    7.0744   44.5331   53.1820 O   0  0  0  0  0  0  0  0  0  0  0  0
    7.7950   46.6048   52.4083 N   0  0  0  0  0  0  0  0  0  0  0  0
    8.1685   47.9694   52.8508 C   0  0  0  0  0  2  0  0  0  0  0  0
    8.6607   46.3973   51.2724 C   0  0  0  0  0  3  0  0  0  0  0  0
    9.6924   47.8084   52.9039 C   0  0  0  0  0  2  0  0  0  0  0  0
    9.9947   46.7163   51.8591 C   0  0  0  0  0  2  0  0  0  0  0  0
    8.4849   45.1960   50.5159 C   0  0  0  0  0  0  0  0  0  0  0  0
    9.4472   44.4808   49.9142 N   0  0  0  0  0  0  0  0  0  0  0  0
    7.2915   44.5727   50.3010 N   0  0  0  0  0  0  0  0  0  0  0  0
    8.9037   43.4447   49.3391 N   0  0  0  0  0  0  0  0  0  0  0  0
    6.0347   44.7798   50.6371 C   0  0  0  0  0  3  0  0  0  0  0  0
    7.5868   43.4801   49.5611 C   0  0  0  0  0  0  0  0  0  0  0  0
    4.9901   43.9294   50.2693 C   0  0  0  0  0  3  0  0  0  0  0  0
    6.6134   42.5932   49.1577 C   0  0  0  0  0  3  0  0  0  0  0  0
    5.2973   42.8002   49.5011 C   0  0  0  0  0  3  0  0  0  0  0  0
    2.1578   46.0516   52.2778 N   0  0  0  0  0  0  0  0  0  0  0  0
    1.7194   44.7632   51.9332 C   0  0  0  0  0  0  0  0  0  0  0  0
    0.7098   44.4266   51.1323 N   0  0  0  0  0  0  0  0  0  0  0  0
    2.3812   43.7236   52.5257 N   0  0  0  0  0  0  0  0  0  0  0  0
    0.3215   43.1642   50.8833 C   0  0  0  0  0  3  0  0  0  0  0  0
    2.0431   42.4483   52.3141 C   0  0  0  0  0  3  0  0  0  0  0  0
    1.0046   42.1061   51.4917 C   0  0  0  0  0  3  0  0  0  0  0  0
  1  7  1  0
  1  6  1  0
  2  1  2  0
  3  2  1  0
  3  4  2  0
  4  5  1  0
  5  6  2  0
  5 23  1  0
  7  9  1  0
  8  7  2  0
  9 11  1  0
  9 10  1  0
 10 12  1  0
 11 14  1  0
 11 13  1  0
 13 12  1  0
 15 14  2  0
 16 14  1  0
 16 18  1  0
 17 19  2  0
 17 15  1  0
 19 16  1  0
 20 18  2  0
 21 19  1  0
 21 22  2  0
 22 20  1  0
 23 24  1  0
 24 26  1  0
 24 25  2  0
 25 27  1  0
 26 28  2  0
 27 29  2  0
 28 29  1  0
M  RAD  8   2   2   3   2   4   2   6   2  10   3  11   2  12   3  13   3
M  RAD  7  18   2  20   2  21   2  22   2  27   2  28   2  29   2
M  END
>  <REMARK>  (1) 
 SMILES O=C(c1cccc(Nc2ncccn2)c1)N1CCCC1c1nnc2ccccn12
 SMILES IDX 3 1 4 2 5 3 6 4 7 5 15 6 2 7 1 8 16 9 17 10 20 11 18 12
 SMILES IDX 19 13 21 14 22 15 29 16 23 17 28 18 24 19 27 20 25 21 26 22
 SMILES IDX 8 23 9 25 10 26 14 27 11 28 13 29 12 30
 H PARENT 8 24

>  <TORSDO>  (1) 
F 5

$$$$
