/home/pchatterjee/Documents/git/vs_workflow/DiffDock/diffdock_run/pdbqt_scrubbed/Z332934574.pdbqt
     RDKit          3D

 29 33  0  0  1  0  0  0  0  0999 V2000
    4.1551   41.9641   48.9588 C   0  0  0  0  0  0  0  0  0  0  0  0
    3.4458   42.3910   50.0372 C   0  0  0  0  0  3  0  0  0  0  0  0
    4.0829   43.1290   51.0293 C   0  0  0  0  0  3  0  0  0  0  0  0
    5.4322   43.4134   50.9004 C   0  0  0  0  0  3  0  0  0  0  0  0
    6.1721   42.9977   49.8361 C   0  0  0  0  0  0  0  0  0  0  0  0
    5.5193   42.2672   48.8599 C   0  0  0  0  0  3  0  0  0  0  0  0
    3.6282   41.2318   47.8172 C   0  0  0  0  0  0  0  0  0  0  0  0
    3.8345   41.8222   46.6963 O   0  0  0  0  0  0  0  0  0  0  0  0
    2.9613   40.0023   47.8520 N   0  0  0  0  0  0  0  0  0  0  0  0
    2.7838   39.1804   49.0728 C   0  0  0  0  0  2  0  0  0  0  0  0
    2.2467   39.2403   46.8562 C   0  0  0  0  0  3  0  0  0  0  0  0
    1.2649   38.9769   49.0205 C   0  0  0  0  0  2  0  0  0  0  0  0
    0.9229   39.0603   47.5200 C   0  0  0  0  0  2  0  0  0  0  0  0
    2.3075   39.6975   45.5022 C   0  0  0  0  0  0  0  0  0  0  0  0
    1.3820   40.4269   44.8611 N   0  0  0  0  0  0  0  0  0  0  0  0
    3.3434   39.4723   44.6447 N   0  0  0  0  0  0  0  0  0  0  0  0
    1.7987   40.6633   43.6487 N   0  0  0  0  0  0  0  0  0  0  0  0
    4.5048   38.8526   44.6960 C   0  0  0  0  0  3  0  0  0  0  0  0
    2.9947   40.0890   43.4930 C   0  0  0  0  0  0  0  0  0  0  0  0
    5.3959   38.7991   43.6224 C   0  0  0  0  0  3  0  0  0  0  0  0
    3.8179   40.0815   42.3887 C   0  0  0  0  0  3  0  0  0  0  0  0
    5.0322   39.4359   42.4299 C   0  0  0  0  0  3  0  0  0  0  0  0
    7.5496   43.2819   49.6044 N   0  0  0  0  0  0  0  0  0  0  0  0
    8.2662   44.3242   50.2136 C   0  0  0  0  0  0  0  0  0  0  0  0
    7.8132   45.2446   51.0631 N   0  0  0  0  0  0  0  0  0  0  0  0
    9.5820   44.4374   49.8591 N   0  0  0  0  0  0  0  0  0  0  0  0
    8.5548   46.2427   51.5735 C   0  0  0  0  0  3  0  0  0  0  0  0
   10.3693   45.4061   50.3361 C   0  0  0  0  0  3  0  0  0  0  0  0
    9.9005   46.3507   51.2077 C   0  0  0  0  0  3  0  0  0  0  0  0
  1  7  1  0
  1  6  1  0
  2  1  2  0
  3  2  1  0
  3  4  2  0
  4  5  1  0
  5  6  2  0
  5 23  1  0
  7  9  1  0
  8  7  2  0
  9 11  1  0
  9 10  1  0
 10 12  1  0
 11 14  1  0
 11 13  1  0
 13 12  1  0
 15 14  2  0
 16 14  1  0
 16 18  1  0
 17 19  2  0
 17 15  1  0
 19 16  1  0
 20 18  2  0
 21 19  1  0
 21 22  2  0
 22 20  1  0
 23 24  1  0
 24 26  1  0
 24 25  2  0
 25 27  1  0
 26 28  2  0
 27 29  2  0
 28 29  1  0
M  RAD  8   2   2   3   2   4   2   6   2  10   3  11   2  12   3  13   3
M  RAD  7  18   2  20   2  21   2  22   2  27   2  28   2  29   2
M  END
>  <REMARK>  (1) 
 SMILES O=C(c1cccc(Nc2ncccn2)c1)N1CCCC1c1nnc2ccccn12
 SMILES IDX 3 1 4 2 5 3 6 4 7 5 15 6 2 7 1 8 16 9 17 10 20 11 18 12
 SMILES IDX 19 13 21 14 22 15 29 16 23 17 28 18 24 19 27 20 25 21 26 22
 SMILES IDX 8 23 9 25 10 26 14 27 11 28 13 29 12 30
 H PARENT 8 24

>  <TORSDO>  (1) 
F 5

$$$$
