/home/pchatterjee/Documents/git/vs_workflow/DiffDock/diffdock_run/pdbqt_scrubbed/Z332934574.pdbqt
     RDKit          3D

 29 33  0  0  1  0  0  0  0  0999 V2000
    4.1400   45.1392   51.9039 C   0  0  0  0  0  0  0  0  0  0  0  0
    2.8016   44.9326   51.7836 C   0  0  0  0  0  3  0  0  0  0  0  0
    1.9360   45.4737   52.7286 C   0  0  0  0  0  3  0  0  0  0  0  0
    2.4559   46.2126   53.7783 C   0  0  0  0  0  3  0  0  0  0  0  0
    3.7903   46.4346   53.9302 C   0  0  0  0  0  0  0  0  0  0  0  0
    4.6335   45.8898   52.9790 C   0  0  0  0  0  3  0  0  0  0  0  0
    5.1670   44.6882   50.9771 C   0  0  0  0  0  0  0  0  0  0  0  0
    5.9129   45.6388   50.5441 O   0  0  0  0  0  0  0  0  0  0  0  0
    5.3902   43.3724   50.5570 N   0  0  0  0  0  0  0  0  0  0  0  0
    4.3688   42.2985   50.5895 C   0  0  0  0  0  2  0  0  0  0  0  0
    6.5229   42.7077   49.9587 C   0  0  0  0  0  3  0  0  0  0  0  0
    4.4609   41.8197   49.1357 C   0  0  0  0  0  2  0  0  0  0  0  0
    5.9102   42.1419   48.7217 C   0  0  0  0  0  2  0  0  0  0  0  0
    7.7509   43.4364   49.8753 C   0  0  0  0  0  0  0  0  0  0  0  0
    8.6792   43.3335   48.9123 N   0  0  0  0  0  0  0  0  0  0  0  0
    8.1658   44.3779   50.7700 N   0  0  0  0  0  0  0  0  0  0  0  0
    9.6468   44.1681   49.1701 N   0  0  0  0  0  0  0  0  0  0  0  0
    7.6961   44.9094   51.8801 C   0  0  0  0  0  3  0  0  0  0  0  0
    9.3558   44.8169   50.3011 C   0  0  0  0  0  0  0  0  0  0  0  0
    8.3630   45.9034   52.5990 C   0  0  0  0  0  3  0  0  0  0  0  0
   10.0756   45.7940   50.9524 C   0  0  0  0  0  3  0  0  0  0  0  0
    9.5960   46.3548   52.1135 C   0  0  0  0  0  3  0  0  0  0  0  0
    4.4040   47.2160   54.9524 N   0  0  0  0  0  0  0  0  0  0  0  0
    5.5841   47.9594   54.7930 C   0  0  0  0  0  0  0  0  0  0  0  0
    6.2892   48.1513   53.6794 N   0  0  0  0  0  0  0  0  0  0  0  0
    6.0996   48.5211   55.9281 N   0  0  0  0  0  0  0  0  0  0  0  0
    7.4390   48.8443   53.6141 C   0  0  0  0  0  3  0  0  0  0  0  0
    7.2365   49.2233   55.9247 C   0  0  0  0  0  3  0  0  0  0  0  0
    7.9590   49.4175   54.7792 C   0  0  0  0  0  3  0  0  0  0  0  0
  1  7  1  0
  1  6  1  0
  2  1  2  0
  3  2  1  0
  3  4  2  0
  4  5  1  0
  5  6  2  0
  5 23  1  0
  7  9  1  0
  8  7  2  0
  9 11  1  0
  9 10  1  0
 10 12  1  0
 11 14  1  0
 11 13  1  0
 13 12  1  0
 15 14  2  0
 16 14  1  0
 16 18  1  0
 17 19  2  0
 17 15  1  0
 19 16  1  0
 20 18  2  0
 21 19  1  0
 21 22  2  0
 22 20  1  0
 23 24  1  0
 24 26  1  0
 24 25  2  0
 25 27  1  0
 26 28  2  0
 27 29  2  0
 28 29  1  0
M  RAD  8   2   2   3   2   4   2   6   2  10   3  11   2  12   3  13   3
M  RAD  7  18   2  20   2  21   2  22   2  27   2  28   2  29   2
M  END
>  <REMARK>  (1) 
 SMILES O=C(c1cccc(Nc2ncccn2)c1)N1CCCC1c1nnc2ccccn12
 SMILES IDX 3 1 4 2 5 3 6 4 7 5 15 6 2 7 1 8 16 9 17 10 20 11 18 12
 SMILES IDX 19 13 21 14 22 15 29 16 23 17 28 18 24 19 27 20 25 21 26 22
 SMILES IDX 8 23 9 25 10 26 14 27 11 28 13 29 12 30
 H PARENT 8 24

>  <TORSDO>  (1) 
F 5

$$$$
