/home/pchatterjee/Documents/git/vs_workflow/DiffDock/diffdock_run/pdbqt_scrubbed/Z332934574.pdbqt
     RDKit          3D

 29 33  0  0  1  0  0  0  0  0999 V2000
    8.3212   47.9226   53.3414 C   0  0  0  0  0  0  0  0  0  0  0  0
    7.6253   49.0662   53.5788 C   0  0  0  0  0  3  0  0  0  0  0  0
    8.2292   50.1036   54.2817 C   0  0  0  0  0  3  0  0  0  0  0  0
    9.5307   49.9502   54.7297 C   0  0  0  0  0  3  0  0  0  0  0  0
   10.2535   48.8174   54.5126 C   0  0  0  0  0  0  0  0  0  0  0  0
    9.6356   47.7989   53.8101 C   0  0  0  0  0  3  0  0  0  0  0  0
    7.8541   46.7731   52.5815 C   0  0  0  0  0  0  0  0  0  0  0  0
    8.3517   46.7094   51.4000 O   0  0  0  0  0  0  0  0  0  0  0  0
    6.9626   45.7892   53.0229 N   0  0  0  0  0  0  0  0  0  0  0  0
    6.3081   45.7884   54.3529 C   0  0  0  0  0  2  0  0  0  0  0  0
    6.3908   44.6233   52.3931 C   0  0  0  0  0  3  0  0  0  0  0  0
    4.8470   45.6334   53.9142 C   0  0  0  0  0  2  0  0  0  0  0  0
    4.9322   44.8797   52.5725 C   0  0  0  0  0  2  0  0  0  0  0  0
    6.8949   44.2502   51.1074 C   0  0  0  0  0  0  0  0  0  0  0  0
    8.1083   44.5335   50.6102 N   0  0  0  0  0  0  0  0  0  0  0  0
    6.2125   43.5207   50.1795 N   0  0  0  0  0  0  0  0  0  0  0  0
    8.2069   44.0120   49.4195 N   0  0  0  0  0  0  0  0  0  0  0  0
    5.0232   42.9604   50.0952 C   0  0  0  0  0  3  0  0  0  0  0  0
    7.0602   43.3888   49.1343 C   0  0  0  0  0  0  0  0  0  0  0  0
    4.5914   42.2364   48.9821 C   0  0  0  0  0  3  0  0  0  0  0  0
    6.7093   42.6908   48.0001 C   0  0  0  0  0  3  0  0  0  0  0  0
    5.4693   42.1031   47.8999 C   0  0  0  0  0  3  0  0  0  0  0  0
   11.6071   48.5939   54.8996 N   0  0  0  0  0  0  0  0  0  0  0  0
   12.0287   48.2972   56.2054 C   0  0  0  0  0  0  0  0  0  0  0  0
   13.2263   47.8726   56.6047 N   0  0  0  0  0  0  0  0  0  0  0  0
   11.0822   48.4162   57.1851 N   0  0  0  0  0  0  0  0  0  0  0  0
   13.5433   47.5670   57.8746 C   0  0  0  0  0  3  0  0  0  0  0  0
   11.3392   48.1302   58.4649 C   0  0  0  0  0  3  0  0  0  0  0  0
   12.5702   47.6931   58.8715 C   0  0  0  0  0  3  0  0  0  0  0  0
  1  7  1  0
  1  6  1  0
  2  1  2  0
  3  2  1  0
  3  4  2  0
  4  5  1  0
  5  6  2  0
  5 23  1  0
  7  9  1  0
  8  7  2  0
  9 11  1  0
  9 10  1  0
 10 12  1  0
 11 14  1  0
 11 13  1  0
 13 12  1  0
 15 14  2  0
 16 14  1  0
 16 18  1  0
 17 19  2  0
 17 15  1  0
 19 16  1  0
 20 18  2  0
 21 19  1  0
 21 22  2  0
 22 20  1  0
 23 24  1  0
 24 26  1  0
 24 25  2  0
 25 27  1  0
 26 28  2  0
 27 29  2  0
 28 29  1  0
M  RAD  8   2   2   3   2   4   2   6   2  10   3  11   2  12   3  13   3
M  RAD  7  18   2  20   2  21   2  22   2  27   2  28   2  29   2
M  END
>  <REMARK>  (1) 
 SMILES O=C(c1cccc(Nc2ncccn2)c1)N1CCCC1c1nnc2ccccn12
 SMILES IDX 3 1 4 2 5 3 6 4 7 5 15 6 2 7 1 8 16 9 17 10 20 11 18 12
 SMILES IDX 19 13 21 14 22 15 29 16 23 17 28 18 24 19 27 20 25 21 26 22
 SMILES IDX 8 23 9 25 10 26 14 27 11 28 13 29 12 30
 H PARENT 8 24

>  <TORSDO>  (1) 
F 5

$$$$
