/home/pchatterjee/Documents/git/vs_workflow/DiffDock/diffdock_run/pdbqt_scrubbed/Z332934574.pdbqt
     RDKit          3D

 29 33  0  0  1  0  0  0  0  0999 V2000
    5.9508   47.0859   53.1449 C   0  0  0  0  0  0  0  0  0  0  0  0
    4.8896   47.9337   53.0845 C   0  0  0  0  0  3  0  0  0  0  0  0
    4.8780   49.0762   53.8778 C   0  0  0  0  0  3  0  0  0  0  0  0
    5.9497   49.3278   54.7182 C   0  0  0  0  0  3  0  0  0  0  0  0
    7.0251   48.4978   54.8057 C   0  0  0  0  0  0  0  0  0  0  0  0
    7.0181   47.3687   54.0073 C   0  0  0  0  0  3  0  0  0  0  0  0
    6.1383   45.8838   52.3469 C   0  0  0  0  0  0  0  0  0  0  0  0
    6.9338   46.0527   51.3538 O   0  0  0  0  0  0  0  0  0  0  0  0
    5.5556   44.6326   52.5760 N   0  0  0  0  0  0  0  0  0  0  0  0
    4.8013   44.2718   53.8001 C   0  0  0  0  0  2  0  0  0  0  0  0
    5.4408   43.4374   51.7752 C   0  0  0  0  0  3  0  0  0  0  0  0
    3.5131   43.7458   53.1559 C   0  0  0  0  0  2  0  0  0  0  0  0
    3.9642   43.2245   51.7774 C   0  0  0  0  0  2  0  0  0  0  0  0
    6.1642   43.3940   50.5419 C   0  0  0  0  0  0  0  0  0  0  0  0
    7.4057   43.8538   50.3254 N   0  0  0  0  0  0  0  0  0  0  0  0
    5.7003   42.8525   49.3798 N   0  0  0  0  0  0  0  0  0  0  0  0
    7.7300   43.6204   49.0845 N   0  0  0  0  0  0  0  0  0  0  0  0
    4.5956   42.2554   48.9816 C   0  0  0  0  0  3  0  0  0  0  0  0
    6.7032   43.0100   48.4866 C   0  0  0  0  0  0  0  0  0  0  0  0
    4.4055   41.7760   47.6840 C   0  0  0  0  0  3  0  0  0  0  0  0
    6.5933   42.5654   47.1876 C   0  0  0  0  0  3  0  0  0  0  0  0
    5.4437   41.9422   46.7599 C   0  0  0  0  0  3  0  0  0  0  0  0
    8.1850   48.7026   55.6088 N   0  0  0  0  0  0  0  0  0  0  0  0
    9.5067   48.5455   55.1623 C   0  0  0  0  0  0  0  0  0  0  0  0
   10.6330   48.7793   55.8336 N   0  0  0  0  0  0  0  0  0  0  0  0
    9.6598   48.1446   53.8640 N   0  0  0  0  0  0  0  0  0  0  0  0
   11.8684   48.6456   55.3214 C   0  0  0  0  0  3  0  0  0  0  0  0
   10.8619   47.9911   53.3010 C   0  0  0  0  0  3  0  0  0  0  0  0
   12.0170   48.2333   53.9931 C   0  0  0  0  0  3  0  0  0  0  0  0
  1  7  1  0
  1  6  1  0
  2  1  2  0
  3  2  1  0
  3  4  2  0
  4  5  1  0
  5  6  2  0
  5 23  1  0
  7  9  1  0
  8  7  2  0
  9 11  1  0
  9 10  1  0
 10 12  1  0
 11 14  1  0
 11 13  1  0
 13 12  1  0
 15 14  2  0
 16 14  1  0
 16 18  1  0
 17 19  2  0
 17 15  1  0
 19 16  1  0
 20 18  2  0
 21 19  1  0
 21 22  2  0
 22 20  1  0
 23 24  1  0
 24 26  1  0
 24 25  2  0
 25 27  1  0
 26 28  2  0
 27 29  2  0
 28 29  1  0
M  RAD  8   2   2   3   2   4   2   6   2  10   3  11   2  12   3  13   3
M  RAD  7  18   2  20   2  21   2  22   2  27   2  28   2  29   2
M  END
>  <REMARK>  (1) 
 SMILES O=C(c1cccc(Nc2ncccn2)c1)N1CCCC1c1nnc2ccccn12
 SMILES IDX 3 1 4 2 5 3 6 4 7 5 15 6 2 7 1 8 16 9 17 10 20 11 18 12
 SMILES IDX 19 13 21 14 22 15 29 16 23 17 28 18 24 19 27 20 25 21 26 22
 SMILES IDX 8 23 9 25 10 26 14 27 11 28 13 29 12 30
 H PARENT 8 24

>  <TORSDO>  (1) 
F 5

$$$$
