/home/pchatterjee/Documents/git/vs_workflow/DiffDock/diffdock_run/pdbqt_scrubbed/Z332934574.pdbqt
     RDKit          3D

 29 33  0  0  1  0  0  0  0  0999 V2000
    5.7966   46.8561   53.0841 C   0  0  0  0  0  0  0  0  0  0  0  0
    4.6635   47.5914   52.9297 C   0  0  0  0  0  3  0  0  0  0  0  0
    4.5383   48.8069   53.5943 C   0  0  0  0  0  3  0  0  0  0  0  0
    5.5723   49.2449   54.4050 C   0  0  0  0  0  3  0  0  0  0  0  0
    6.7176   48.5314   54.5844 C   0  0  0  0  0  0  0  0  0  0  0  0
    6.8231   47.3269   53.9132 C   0  0  0  0  0  3  0  0  0  0  0  0
    6.1025   45.5972   52.4217 C   0  0  0  0  0  0  0  0  0  0  0  0
    7.1580   45.6503   51.6932 O   0  0  0  0  0  0  0  0  0  0  0  0
    5.3772   44.4050   52.5227 N   0  0  0  0  0  0  0  0  0  0  0  0
    4.5242   44.0394   53.6787 C   0  0  0  0  0  2  0  0  0  0  0  0
    5.1774   43.2938   51.6238 C   0  0  0  0  0  3  0  0  0  0  0  0
    3.2231   43.7101   52.9372 C   0  0  0  0  0  2  0  0  0  0  0  0
    3.6885   43.2472   51.5426 C   0  0  0  0  0  2  0  0  0  0  0  0
    5.9567   43.2631   50.4246 C   0  0  0  0  0  0  0  0  0  0  0  0
    7.1582   43.8290   50.2360 N   0  0  0  0  0  0  0  0  0  0  0  0
    5.5984   42.6268   49.2732 N   0  0  0  0  0  0  0  0  0  0  0  0
    7.5587   43.5709   49.0225 N   0  0  0  0  0  0  0  0  0  0  0  0
    4.5736   41.9092   48.8608 C   0  0  0  0  0  3  0  0  0  0  0  0
    6.6215   42.8383   48.4147 C   0  0  0  0  0  0  0  0  0  0  0  0
    4.4879   41.3546   47.5822 C   0  0  0  0  0  3  0  0  0  0  0  0
    6.6125   42.3260   47.1362 C   0  0  0  0  0  3  0  0  0  0  0  0
    5.5468   41.5767   46.6938 C   0  0  0  0  0  3  0  0  0  0  0  0
    7.8441   48.9272   55.3632 N   0  0  0  0  0  0  0  0  0  0  0  0
    9.1789   48.6199   55.0553 C   0  0  0  0  0  0  0  0  0  0  0  0
   10.2758   48.9580   55.7310 N   0  0  0  0  0  0  0  0  0  0  0  0
    9.3845   47.9250   53.8957 N   0  0  0  0  0  0  0  0  0  0  0  0
   11.5296   48.6617   55.3480 C   0  0  0  0  0  3  0  0  0  0  0  0
   10.6070   47.5991   53.4656 C   0  0  0  0  0  3  0  0  0  0  0  0
   11.7318   47.9489   54.1616 C   0  0  0  0  0  3  0  0  0  0  0  0
  1  7  1  0
  1  6  1  0
  2  1  2  0
  3  2  1  0
  3  4  2  0
  4  5  1  0
  5  6  2  0
  5 23  1  0
  7  9  1  0
  8  7  2  0
  9 11  1  0
  9 10  1  0
 10 12  1  0
 11 14  1  0
 11 13  1  0
 13 12  1  0
 15 14  2  0
 16 14  1  0
 16 18  1  0
 17 19  2  0
 17 15  1  0
 19 16  1  0
 20 18  2  0
 21 19  1  0
 21 22  2  0
 22 20  1  0
 23 24  1  0
 24 26  1  0
 24 25  2  0
 25 27  1  0
 26 28  2  0
 27 29  2  0
 28 29  1  0
M  RAD  8   2   2   3   2   4   2   6   2  10   3  11   2  12   3  13   3
M  RAD  7  18   2  20   2  21   2  22   2  27   2  28   2  29   2
M  END
>  <REMARK>  (1) 
 SMILES O=C(c1cccc(Nc2ncccn2)c1)N1CCCC1c1nnc2ccccn12
 SMILES IDX 3 1 4 2 5 3 6 4 7 5 15 6 2 7 1 8 16 9 17 10 20 11 18 12
 SMILES IDX 19 13 21 14 22 15 29 16 23 17 28 18 24 19 27 20 25 21 26 22
 SMILES IDX 8 23 9 25 10 26 14 27 11 28 13 29 12 30
 H PARENT 8 24

>  <TORSDO>  (1) 
F 5

$$$$
