/home/pchatterjee/Documents/git/vs_workflow/DiffDock/diffdock_run/pdbqt_scrubbed/Z332934574.pdbqt
     RDKit          3D

 29 33  0  0  1  0  0  0  0  0999 V2000
    4.5544   41.2806   49.1635 C   0  0  0  0  0  0  0  0  0  0  0  0
    3.7312   40.5489   49.9604 C   0  0  0  0  0  3  0  0  0  0  0  0
    2.9906   39.5078   49.4103 C   0  0  0  0  0  3  0  0  0  0  0  0
    3.1046   39.2374   48.0568 C   0  0  0  0  0  3  0  0  0  0  0  0
    3.9160   39.9529   47.2307 C   0  0  0  0  0  0  0  0  0  0  0  0
    4.6452   40.9822   47.7976 C   0  0  0  0  0  3  0  0  0  0  0  0
    5.4295   42.3613   49.5917 C   0  0  0  0  0  0  0  0  0  0  0  0
    6.6618   42.1667   49.2897 O   0  0  0  0  0  0  0  0  0  0  0  0
    5.0455   43.5287   50.2605 N   0  0  0  0  0  0  0  0  0  0  0  0
    3.6418   43.8973   50.5626 C   0  0  0  0  0  2  0  0  0  0  0  0
    5.7888   44.6047   50.8710 C   0  0  0  0  0  3  0  0  0  0  0  0
    3.7683   44.1566   52.0686 C   0  0  0  0  0  2  0  0  0  0  0  0
    5.2342   44.5944   52.2558 C   0  0  0  0  0  2  0  0  0  0  0  0
    7.2052   44.6281   50.6718 C   0  0  0  0  0  0  0  0  0  0  0  0
    7.9107   43.8401   49.8466 N   0  0  0  0  0  0  0  0  0  0  0  0
    8.0694   45.4830   51.2893 N   0  0  0  0  0  0  0  0  0  0  0  0
    9.1696   44.1695   49.9250 N   0  0  0  0  0  0  0  0  0  0  0  0
    7.9774   46.4618   52.1661 C   0  0  0  0  0  3  0  0  0  0  0  0
    9.2911   45.1706   50.8011 C   0  0  0  0  0  0  0  0  0  0  0  0
    9.0762   47.1948   52.6185 C   0  0  0  0  0  3  0  0  0  0  0  0
   10.4243   45.8458   51.1975 C   0  0  0  0  0  3  0  0  0  0  0  0
   10.3407   46.8684   52.1141 C   0  0  0  0  0  3  0  0  0  0  0  0
    4.1246   39.7153   45.8407 N   0  0  0  0  0  0  0  0  0  0  0  0
    3.4570   40.3864   44.8039 C   0  0  0  0  0  0  0  0  0  0  0  0
    2.5299   41.3374   44.9052 N   0  0  0  0  0  0  0  0  0  0  0  0
    3.7626   39.9859   43.5328 N   0  0  0  0  0  0  0  0  0  0  0  0
    1.9020   41.9051   43.8612 C   0  0  0  0  0  3  0  0  0  0  0  0
    3.1743   40.5155   42.4562 C   0  0  0  0  0  3  0  0  0  0  0  0
    2.2214   41.4914   42.5637 C   0  0  0  0  0  3  0  0  0  0  0  0
  1  7  1  0
  1  6  1  0
  2  1  2  0
  3  2  1  0
  3  4  2  0
  4  5  1  0
  5  6  2  0
  5 23  1  0
  7  9  1  0
  8  7  2  0
  9 11  1  0
  9 10  1  0
 10 12  1  0
 11 14  1  0
 11 13  1  0
 13 12  1  0
 15 14  2  0
 16 14  1  0
 16 18  1  0
 17 19  2  0
 17 15  1  0
 19 16  1  0
 20 18  2  0
 21 19  1  0
 21 22  2  0
 22 20  1  0
 23 24  1  0
 24 26  1  0
 24 25  2  0
 25 27  1  0
 26 28  2  0
 27 29  2  0
 28 29  1  0
M  RAD  8   2   2   3   2   4   2   6   2  10   3  11   2  12   3  13   3
M  RAD  7  18   2  20   2  21   2  22   2  27   2  28   2  29   2
M  END
>  <REMARK>  (1) 
 SMILES O=C(c1cccc(Nc2ncccn2)c1)N1CCCC1c1nnc2ccccn12
 SMILES IDX 3 1 4 2 5 3 6 4 7 5 15 6 2 7 1 8 16 9 17 10 20 11 18 12
 SMILES IDX 19 13 21 14 22 15 29 16 23 17 28 18 24 19 27 20 25 21 26 22
 SMILES IDX 8 23 9 25 10 26 14 27 11 28 13 29 12 30
 H PARENT 8 24

>  <TORSDO>  (1) 
F 5

$$$$
