/home/pchatterjee/Documents/git/vs_workflow/DiffDock/diffdock_run/pdbqt_scrubbed/Z332934574.pdbqt
     RDKit          3D

 29 33  0  0  1  0  0  0  0  0999 V2000
    5.3870   46.4637   52.9565 C   0  0  0  0  0  0  0  0  0  0  0  0
    4.1372   46.9983   52.9760 C   0  0  0  0  0  3  0  0  0  0  0  0
    3.8988   48.1594   53.7040 C   0  0  0  0  0  3  0  0  0  0  0  0
    4.9416   48.7489   54.3989 C   0  0  0  0  0  3  0  0  0  0  0  0
    6.2030   48.2373   54.4036 C   0  0  0  0  0  0  0  0  0  0  0  0
    6.4195   47.0838   53.6721 C   0  0  0  0  0  3  0  0  0  0  0  0
    5.8095   45.2907   52.2064 C   0  0  0  0  0  0  0  0  0  0  0  0
    6.7308   45.5413   51.3486 O   0  0  0  0  0  0  0  0  0  0  0  0
    5.3188   43.9883   52.3508 N   0  0  0  0  0  0  0  0  0  0  0  0
    4.5433   43.5108   53.5204 C   0  0  0  0  0  2  0  0  0  0  0  0
    5.3342   42.8285   51.4921 C   0  0  0  0  0  3  0  0  0  0  0  0
    3.3301   42.9187   52.7931 C   0  0  0  0  0  2  0  0  0  0  0  0
    3.8806   42.5021   51.4151 C   0  0  0  0  0  2  0  0  0  0  0  0
    6.1116   42.9016   50.2935 C   0  0  0  0  0  0  0  0  0  0  0  0
    7.3039   43.4989   50.1478 N   0  0  0  0  0  0  0  0  0  0  0  0
    5.7609   42.3498   49.0971 N   0  0  0  0  0  0  0  0  0  0  0  0
    7.7059   43.3406   48.9178 N   0  0  0  0  0  0  0  0  0  0  0  0
    4.7464   41.6501   48.6317 C   0  0  0  0  0  3  0  0  0  0  0  0
    6.7789   42.6422   48.2564 C   0  0  0  0  0  0  0  0  0  0  0  0
    4.6668   41.1936   47.3146 C   0  0  0  0  0  3  0  0  0  0  0  0
    6.7753   42.2290   46.9426 C   0  0  0  0  0  3  0  0  0  0  0  0
    5.7204   41.4994   46.4450 C   0  0  0  0  0  3  0  0  0  0  0  0
    7.3393   48.8016   55.0537 N   0  0  0  0  0  0  0  0  0  0  0  0
    8.6741   48.5211   54.7213 C   0  0  0  0  0  0  0  0  0  0  0  0
    9.1297   47.7465   53.7382 N   0  0  0  0  0  0  0  0  0  0  0  0
    9.6255   49.0754   55.5320 N   0  0  0  0  0  0  0  0  0  0  0  0
   10.4290   47.4908   53.5079 C   0  0  0  0  0  3  0  0  0  0  0  0
   10.9319   48.8603   55.3506 C   0  0  0  0  0  3  0  0  0  0  0  0
   11.3965   48.0630   54.3405 C   0  0  0  0  0  3  0  0  0  0  0  0
  1  7  1  0
  1  6  1  0
  2  1  2  0
  3  2  1  0
  3  4  2  0
  4  5  1  0
  5  6  2  0
  5 23  1  0
  7  9  1  0
  8  7  2  0
  9 11  1  0
  9 10  1  0
 10 12  1  0
 11 14  1  0
 11 13  1  0
 13 12  1  0
 15 14  2  0
 16 14  1  0
 16 18  1  0
 17 19  2  0
 17 15  1  0
 19 16  1  0
 20 18  2  0
 21 19  1  0
 21 22  2  0
 22 20  1  0
 23 24  1  0
 24 26  1  0
 24 25  2  0
 25 27  1  0
 26 28  2  0
 27 29  2  0
 28 29  1  0
M  RAD  8   2   2   3   2   4   2   6   2  10   3  11   2  12   3  13   3
M  RAD  7  18   2  20   2  21   2  22   2  27   2  28   2  29   2
M  END
>  <REMARK>  (1) 
 SMILES O=C(c1cccc(Nc2ncccn2)c1)N1CCCC1c1nnc2ccccn12
 SMILES IDX 3 1 4 2 5 3 6 4 7 5 15 6 2 7 1 8 16 9 17 10 20 11 18 12
 SMILES IDX 19 13 21 14 22 15 29 16 23 17 28 18 24 19 27 20 25 21 26 22
 SMILES IDX 8 23 9 25 10 26 14 27 11 28 13 29 12 30
 H PARENT 8 24

>  <TORSDO>  (1) 
F 5

$$$$
