/home/pchatterjee/Documents/git/vs_workflow/DiffDock/diffdock_run/pdbqt_scrubbed/Z332934574.pdbqt
     RDKit          3D

 29 33  0  0  1  0  0  0  0  0999 V2000
    6.1913   43.3029   50.6323 C   0  0  0  0  0  0  0  0  0  0  0  0
    5.5012   42.3705   51.3414 C   0  0  0  0  0  3  0  0  0  0  0  0
    5.0409   41.2242   50.7018 C   0  0  0  0  0  3  0  0  0  0  0  0
    5.2933   41.0552   49.3506 C   0  0  0  0  0  3  0  0  0  0  0  0
    5.9772   41.9707   48.6110 C   0  0  0  0  0  0  0  0  0  0  0  0
    6.4279   43.1022   49.2661 C   0  0  0  0  0  3  0  0  0  0  0  0
    6.7813   44.5232   51.1612 C   0  0  0  0  0  0  0  0  0  0  0  0
    5.9220   45.4537   51.3693 O   0  0  0  0  0  0  0  0  0  0  0  0
    8.1336   44.7380   51.4488 N   0  0  0  0  0  0  0  0  0  0  0  0
    9.2480   43.9500   50.8703 C   0  0  0  0  0  2  0  0  0  0  0  0
    8.8274   45.7183   52.2492 C   0  0  0  0  0  3  0  0  0  0  0  0
   10.1133   45.0957   50.3318 C   0  0  0  0  0  2  0  0  0  0  0  0
    9.7825   46.2858   51.2536 C   0  0  0  0  0  2  0  0  0  0  0  0
    8.0360   46.5952   53.0561 C   0  0  0  0  0  0  0  0  0  0  0  0
    8.4844   47.6016   53.8214 N   0  0  0  0  0  0  0  0  0  0  0  0
    6.6771   46.5524   53.1593 N   0  0  0  0  0  0  0  0  0  0  0  0
    7.4658   48.1826   54.3911 N   0  0  0  0  0  0  0  0  0  0  0  0
    5.7061   45.8197   52.6536 C   0  0  0  0  0  3  0  0  0  0  0  0
    6.3508   47.5581   54.0022 C   0  0  0  0  0  0  0  0  0  0  0  0
    4.3559   46.0272   52.9423 C   0  0  0  0  0  3  0  0  0  0  0  0
    5.0422   47.8268   54.3376 C   0  0  0  0  0  3  0  0  0  0  0  0
    4.0199   47.0671   53.8172 C   0  0  0  0  0  3  0  0  0  0  0  0
    6.3167   41.8560   47.2313 N   0  0  0  0  0  0  0  0  0  0  0  0
    5.4281   41.4647   46.2173 C   0  0  0  0  0  0  0  0  0  0  0  0
    5.7005   41.2203   44.9366 N   0  0  0  0  0  0  0  0  0  0  0  0
    4.1124   41.3636   46.5759 N   0  0  0  0  0  0  0  0  0  0  0  0
    4.7836   40.8897   44.0111 C   0  0  0  0  0  3  0  0  0  0  0  0
    3.1569   41.0358   45.7012 C   0  0  0  0  0  3  0  0  0  0  0  0
    3.4400   40.7864   44.3860 C   0  0  0  0  0  3  0  0  0  0  0  0
  1  7  1  0
  1  6  1  0
  2  1  2  0
  3  2  1  0
  3  4  2  0
  4  5  1  0
  5  6  2  0
  5 23  1  0
  7  9  1  0
  8  7  2  0
  9 11  1  0
  9 10  1  0
 10 12  1  0
 11 14  1  0
 11 13  1  0
 13 12  1  0
 15 14  2  0
 16 14  1  0
 16 18  1  0
 17 19  2  0
 17 15  1  0
 19 16  1  0
 20 18  2  0
 21 19  1  0
 21 22  2  0
 22 20  1  0
 23 24  1  0
 24 26  1  0
 24 25  2  0
 25 27  1  0
 26 28  2  0
 27 29  2  0
 28 29  1  0
M  RAD  8   2   2   3   2   4   2   6   2  10   3  11   2  12   3  13   3
M  RAD  7  18   2  20   2  21   2  22   2  27   2  28   2  29   2
M  END
>  <REMARK>  (1) 
 SMILES O=C(c1cccc(Nc2ncccn2)c1)N1CCCC1c1nnc2ccccn12
 SMILES IDX 3 1 4 2 5 3 6 4 7 5 15 6 2 7 1 8 16 9 17 10 20 11 18 12
 SMILES IDX 19 13 21 14 22 15 29 16 23 17 28 18 24 19 27 20 25 21 26 22
 SMILES IDX 8 23 9 25 10 26 14 27 11 28 13 29 12 30
 H PARENT 8 24

>  <TORSDO>  (1) 
F 5

$$$$
