/home/pchatterjee/Documents/git/vs_workflow/DiffDock/diffdock_run/pdbqt_scrubbed/Z332934574.pdbqt
     RDKit          3D

 29 33  0  0  1  0  0  0  0  0999 V2000
    3.9614   44.7501   52.1007 C   0  0  0  0  0  0  0  0  0  0  0  0
    3.8828   45.0211   53.4307 C   0  0  0  0  0  3  0  0  0  0  0  0
    2.6354   45.1641   54.0294 C   0  0  0  0  0  3  0  0  0  0  0  0
    1.4941   45.0296   53.2565 C   0  0  0  0  0  3  0  0  0  0  0  0
    1.5377   44.7627   51.9224 C   0  0  0  0  0  0  0  0  0  0  0  0
    2.7874   44.6222   51.3470 C   0  0  0  0  0  3  0  0  0  0  0  0
    5.1802   44.5215   51.3397 C   0  0  0  0  0  0  0  0  0  0  0  0
    5.9371   45.5558   51.2706 O   0  0  0  0  0  0  0  0  0  0  0  0
    5.5653   43.3260   50.7231 N   0  0  0  0  0  0  0  0  0  0  0  0
    4.6574   42.1799   50.4784 C   0  0  0  0  0  2  0  0  0  0  0  0
    6.8006   42.8785   50.1258 C   0  0  0  0  0  3  0  0  0  0  0  0
    4.9056   41.9782   48.9787 C   0  0  0  0  0  2  0  0  0  0  0  0
    6.3419   42.4924   48.7597 C   0  0  0  0  0  2  0  0  0  0  0  0
    7.9519   43.7132   50.2805 C   0  0  0  0  0  0  0  0  0  0  0  0
    9.0051   43.7858   49.4527 N   0  0  0  0  0  0  0  0  0  0  0  0
    8.1509   44.5923   51.3035 N   0  0  0  0  0  0  0  0  0  0  0  0
    9.8442   44.6692   49.9164 N   0  0  0  0  0  0  0  0  0  0  0  0
    7.4888   44.9685   52.3783 C   0  0  0  0  0  3  0  0  0  0  0  0
    9.3440   45.1748   51.0473 C   0  0  0  0  0  0  0  0  0  0  0  0
    7.9545   45.9386   53.2681 C   0  0  0  0  0  3  0  0  0  0  0  0
    9.8726   46.1393   51.8764 C   0  0  0  0  0  3  0  0  0  0  0  0
    9.1910   46.5388   53.0028 C   0  0  0  0  0  3  0  0  0  0  0  0
    0.4161   44.5667   51.0647 N   0  0  0  0  0  0  0  0  0  0  0  0
    0.0313   43.3322   50.5183 C   0  0  0  0  0  0  0  0  0  0  0  0
   -0.9377   43.0911   49.6368 N   0  0  0  0  0  0  0  0  0  0  0  0
    0.7038   42.2343   50.9788 N   0  0  0  0  0  0  0  0  0  0  0  0
   -1.2767   41.8694   49.1906 C   0  0  0  0  0  3  0  0  0  0  0  0
    0.4140   40.9956   50.5696 C   0  0  0  0  0  3  0  0  0  0  0  0
   -0.5829   40.7513   49.6649 C   0  0  0  0  0  3  0  0  0  0  0  0
  1  7  1  0
  1  6  1  0
  2  1  2  0
  3  2  1  0
  3  4  2  0
  4  5  1  0
  5  6  2  0
  5 23  1  0
  7  9  1  0
  8  7  2  0
  9 11  1  0
  9 10  1  0
 10 12  1  0
 11 14  1  0
 11 13  1  0
 13 12  1  0
 15 14  2  0
 16 14  1  0
 16 18  1  0
 17 19  2  0
 17 15  1  0
 19 16  1  0
 20 18  2  0
 21 19  1  0
 21 22  2  0
 22 20  1  0
 23 24  1  0
 24 26  1  0
 24 25  2  0
 25 27  1  0
 26 28  2  0
 27 29  2  0
 28 29  1  0
M  RAD  8   2   2   3   2   4   2   6   2  10   3  11   2  12   3  13   3
M  RAD  7  18   2  20   2  21   2  22   2  27   2  28   2  29   2
M  END
>  <REMARK>  (1) 
 SMILES O=C(c1cccc(Nc2ncccn2)c1)N1CCCC1c1nnc2ccccn12
 SMILES IDX 3 1 4 2 5 3 6 4 7 5 15 6 2 7 1 8 16 9 17 10 20 11 18 12
 SMILES IDX 19 13 21 14 22 15 29 16 23 17 28 18 24 19 27 20 25 21 26 22
 SMILES IDX 8 23 9 25 10 26 14 27 11 28 13 29 12 30
 H PARENT 8 24

>  <TORSDO>  (1) 
F 5

$$$$
