/home/pchatterjee/Documents/git/vs_workflow/DiffDock/diffdock_run/pdbqt_scrubbed/Z776287114.pdbqt
     RDKit          3D

 24 27  0  0  1  0  0  0  0  0999 V2000
    4.7926   45.1781   51.7261 C   0  0  0  0  0  2  0  0  0  0  0  0
    6.1566   45.4503   52.1677 N   0  0  0  0  0  0  0  0  0  0  0  0
    6.4523   46.1291   53.4146 C   0  0  0  0  0  1  0  0  0  0  0  0
    7.1971   45.0099   51.3012 C   0  0  0  0  0  0  0  0  0  0  0  0
    6.9438   44.1195   50.3081 N   0  0  0  0  0  0  0  0  0  0  0  0
    8.4925   45.4914   51.4652 C   0  0  0  0  0  0  0  0  0  0  0  0
    7.9483   43.7197   49.5022 C   0  0  0  0  0  3  0  0  0  0  0  0
    9.0518   46.3526   52.3246 N   0  0  0  0  0  0  0  0  0  0  0  0
    9.4941   45.0584   50.6202 C   0  0  0  0  0  0  0  0  0  0  0  0
    9.2205   44.1693   49.6352 N   0  0  0  0  0  0  0  0  0  0  0  0
   10.3795   46.4892   52.0619 C   0  0  0  0  0  3  0  0  0  0  0  0
   10.6243   45.6775   51.0035 N   0  0  0  0  0  0  0  0  0  0  0  0
    3.8043   45.4891   52.7910 C   0  0  0  0  0  0  0  0  0  0  0  0
    4.1292   46.3798   53.6468 O   0  0  0  0  0  0  0  0  0  0  0  0
    2.5514   44.8156   52.8442 N   0  0  0  0  0  0  0  0  0  0  0  0
    1.2126   45.3446   52.6578 C   0  0  0  0  0  2  0  0  0  0  0  0
    2.3899   43.3984   53.1102 C   0  0  0  0  0  3  0  0  0  0  0  0
    0.4782   44.7253   53.8357 C   0  0  0  0  0  2  0  0  0  0  0  0
    1.1840   43.4044   54.0227 C   0  0  0  0  0  2  0  0  0  0  0  0
    2.1135   42.6249   51.8395 C   0  0  0  0  0  3  0  0  0  0  0  0
    1.5204   43.5065   50.7585 C   0  0  0  0  0  2  0  0  0  0  0  0
    1.0763   41.5499   52.0885 C   0  0  0  0  0  2  0  0  0  0  0  0
    0.4731   42.6220   50.0762 C   0  0  0  0  0  2  0  0  0  0  0  0
   -0.1613   41.9653   51.3069 C   0  0  0  0  0  2  0  0  0  0  0  0
  1  2  1  0
  2  4  1  0
  3  2  1  0
  4  6  1  0
  4  5  2  0
  5  7  1  0
  6  9  2  0
  7 10  2  0
  8  6  1  0
  8 11  1  0
  9 12  1  0
  9 10  1  0
 11 12  2  0
 13 15  1  0
 13  1  1  0
 14 13  2  0
 15 16  1  0
 17 20  1  0
 17 15  1  0
 17 19  1  0
 18 19  1  0
 18 16  1  0
 21 20  1  0
 22 20  1  0
 23 21  1  0
 24 23  1  0
 24 22  1  0
M  RAD  8   1   3   3   2   7   2  11   2  16   3  17   2  18   3  19   3
M  RAD  5  20   2  21   3  22   3  23   3  24   3
M  END
>  <REMARK>  (1) 
 SMILES CN(CC(=O)N1CCCC1C1CCCC1)c1ncnc2nc[nH]c12
 SMILES IDX 3 1 2 2 1 3 16 4 17 5 24 6 18 7 23 8 20 9 19 10 22 11 21 12
 SMILES IDX 4 14 5 15 6 16 7 17 10 18 8 19 9 20 11 21 12 22 15 23 13 24
 SMILES IDX 14 25
 H PARENT 23 13

>  <TORSDO>  (1) 
F 5

$$$$
