/home/pchatterjee/Documents/git/vs_workflow/DiffDock/diffdock_run/pdbqt_scrubbed/Z776287114.pdbqt
     RDKit          3D

 24 27  0  0  1  0  0  0  0  0999 V2000
    5.2551   44.8796   52.8417 C   0  0  0  0  0  2  0  0  0  0  0  0
    6.4125   45.7216   52.5572 N   0  0  0  0  0  0  0  0  0  0  0  0
    6.6761   46.9542   53.2745 C   0  0  0  0  0  1  0  0  0  0  0  0
    7.2823   45.2664   51.5259 C   0  0  0  0  0  0  0  0  0  0  0  0
    6.8373   44.4131   50.5682 N   0  0  0  0  0  0  0  0  0  0  0  0
    8.6060   45.6947   51.4896 C   0  0  0  0  0  0  0  0  0  0  0  0
    7.6829   43.9982   49.6033 C   0  0  0  0  0  3  0  0  0  0  0  0
    9.3303   46.5110   52.2656 N   0  0  0  0  0  0  0  0  0  0  0  0
    9.4411   45.2476   50.4859 C   0  0  0  0  0  0  0  0  0  0  0  0
    8.9773   44.3962   49.5394 N   0  0  0  0  0  0  0  0  0  0  0  0
   10.6034   46.6050   51.7959 C   0  0  0  0  0  3  0  0  0  0  0  0
   10.6425   45.8136   50.6954 N   0  0  0  0  0  0  0  0  0  0  0  0
    4.0043   45.4760   52.3058 C   0  0  0  0  0  0  0  0  0  0  0  0
    4.0530   46.6963   51.9316 O   0  0  0  0  0  0  0  0  0  0  0  0
    2.8083   44.7091   52.2181 N   0  0  0  0  0  0  0  0  0  0  0  0
    1.4262   45.1518   52.2437 C   0  0  0  0  0  2  0  0  0  0  0  0
    2.7651   43.2653   52.0799 C   0  0  0  0  0  3  0  0  0  0  0  0
    0.8139   44.1688   53.2280 C   0  0  0  0  0  2  0  0  0  0  0  0
    1.6222   42.9137   53.0056 C   0  0  0  0  0  2  0  0  0  0  0  0
    2.4642   42.8548   50.6550 C   0  0  0  0  0  3  0  0  0  0  0  0
    1.8833   41.4568   50.5799 C   0  0  0  0  0  2  0  0  0  0  0  0
    3.7388   42.7994   49.8391 C   0  0  0  0  0  2  0  0  0  0  0  0
    2.5214   40.8446   49.3297 C   0  0  0  0  0  2  0  0  0  0  0  0
    3.9637   41.3327   49.5025 C   0  0  0  0  0  2  0  0  0  0  0  0
  1  2  1  0
  2  4  1  0
  3  2  1  0
  4  6  1  0
  4  5  2  0
  5  7  1  0
  6  9  2  0
  7 10  2  0
  8  6  1  0
  8 11  1  0
  9 12  1  0
  9 10  1  0
 11 12  2  0
 13 15  1  0
 13  1  1  0
 14 13  2  0
 15 16  1  0
 17 20  1  0
 17 15  1  0
 17 19  1  0
 18 19  1  0
 18 16  1  0
 21 20  1  0
 22 20  1  0
 23 21  1  0
 24 23  1  0
 24 22  1  0
M  RAD  8   1   3   3   2   7   2  11   2  16   3  17   2  18   3  19   3
M  RAD  5  20   2  21   3  22   3  23   3  24   3
M  END
>  <REMARK>  (1) 
 SMILES CN(CC(=O)N1CCCC1C1CCCC1)c1ncnc2nc[nH]c12
 SMILES IDX 3 1 2 2 1 3 16 4 17 5 24 6 18 7 23 8 20 9 19 10 22 11 21 12
 SMILES IDX 4 14 5 15 6 16 7 17 10 18 8 19 9 20 11 21 12 22 15 23 13 24
 SMILES IDX 14 25
 H PARENT 23 13

>  <TORSDO>  (1) 
F 5

$$$$
