/home/pchatterjee/Documents/git/vs_workflow/DiffDock/diffdock_run/pdbqt_scrubbed/Z776287114.pdbqt
     RDKit          3D

 24 27  0  0  1  0  0  0  0  0999 V2000
    6.5410   46.3293   52.5102 C   0  0  0  0  0  2  0  0  0  0  0  0
    7.9457   46.5907   52.2141 N   0  0  0  0  0  0  0  0  0  0  0  0
    8.6657   47.7163   52.7779 C   0  0  0  0  0  1  0  0  0  0  0  0
    8.5832   45.6729   51.3317 C   0  0  0  0  0  0  0  0  0  0  0  0
    9.9047   45.7902   51.0434 N   0  0  0  0  0  0  0  0  0  0  0  0
    7.8526   44.6396   50.7525 C   0  0  0  0  0  0  0  0  0  0  0  0
   10.4825   44.9068   50.2043 C   0  0  0  0  0  3  0  0  0  0  0  0
    6.5700   44.2630   50.8319 N   0  0  0  0  0  0  0  0  0  0  0  0
    8.4797   43.7551   49.8985 C   0  0  0  0  0  0  0  0  0  0  0  0
    9.7995   43.8896   49.6238 N   0  0  0  0  0  0  0  0  0  0  0  0
    6.3496   43.1661   50.0582 C   0  0  0  0  0  3  0  0  0  0  0  0
    7.5476   42.8748   49.4935 N   0  0  0  0  0  0  0  0  0  0  0  0
    6.1486   46.8950   53.8268 C   0  0  0  0  0  0  0  0  0  0  0  0
    6.8547   47.8568   54.2827 O   0  0  0  0  0  0  0  0  0  0  0  0
    5.0306   46.3781   54.5402 N   0  0  0  0  0  0  0  0  0  0  0  0
    4.6187   46.6233   55.9104 C   0  0  0  0  0  2  0  0  0  0  0  0
    4.0524   45.4616   53.9846 C   0  0  0  0  0  3  0  0  0  0  0  0
    4.3276   45.2120   56.3937 C   0  0  0  0  0  2  0  0  0  0  0  0
    3.8391   44.5170   55.1462 C   0  0  0  0  0  2  0  0  0  0  0  0
    2.7711   46.1768   53.6158 C   0  0  0  0  0  3  0  0  0  0  0  0
    1.7399   45.2279   53.0381 C   0  0  0  0  0  2  0  0  0  0  0  0
    3.0280   47.1957   52.5253 C   0  0  0  0  0  2  0  0  0  0  0  0
    1.0726   46.0268   51.9149 C   0  0  0  0  0  2  0  0  0  0  0  0
    2.3069   46.6832   51.2874 C   0  0  0  0  0  2  0  0  0  0  0  0
  1  2  1  0
  2  4  1  0
  3  2  1  0
  4  6  1  0
  4  5  2  0
  5  7  1  0
  6  9  2  0
  7 10  2  0
  8  6  1  0
  8 11  1  0
  9 12  1  0
  9 10  1  0
 11 12  2  0
 13 15  1  0
 13  1  1  0
 14 13  2  0
 15 16  1  0
 17 20  1  0
 17 15  1  0
 17 19  1  0
 18 19  1  0
 18 16  1  0
 21 20  1  0
 22 20  1  0
 23 21  1  0
 24 23  1  0
 24 22  1  0
M  RAD  8   1   3   3   2   7   2  11   2  16   3  17   2  18   3  19   3
M  RAD  5  20   2  21   3  22   3  23   3  24   3
M  END
>  <REMARK>  (1) 
 SMILES CN(CC(=O)N1CCCC1C1CCCC1)c1ncnc2nc[nH]c12
 SMILES IDX 3 1 2 2 1 3 16 4 17 5 24 6 18 7 23 8 20 9 19 10 22 11 21 12
 SMILES IDX 4 14 5 15 6 16 7 17 10 18 8 19 9 20 11 21 12 22 15 23 13 24
 SMILES IDX 14 25
 H PARENT 23 13

>  <TORSDO>  (1) 
F 5

$$$$
