/home/pchatterjee/Documents/git/vs_workflow/DiffDock/diffdock_run/pdbqt_scrubbed/Z776287114.pdbqt
     RDKit          3D

 24 27  0  0  1  0  0  0  0  0999 V2000
    6.4698   45.5592   52.9986 C   0  0  0  0  0  2  0  0  0  0  0  0
    7.7636   46.1389   52.6528 N   0  0  0  0  0  0  0  0  0  0  0  0
    8.3237   47.2748   53.3592 C   0  0  0  0  0  1  0  0  0  0  0  0
    8.4583   45.5251   51.5720 C   0  0  0  0  0  0  0  0  0  0  0  0
    9.7253   45.8992   51.2587 N   0  0  0  0  0  0  0  0  0  0  0  0
    7.8409   44.5290   50.8214 C   0  0  0  0  0  0  0  0  0  0  0  0
   10.3594   45.3009   50.2301 C   0  0  0  0  0  3  0  0  0  0  0  0
    6.6337   43.9518   50.8748 N   0  0  0  0  0  0  0  0  0  0  0  0
    8.5227   43.9402   49.7758 C   0  0  0  0  0  0  0  0  0  0  0  0
    9.7866   44.3279   49.4794 N   0  0  0  0  0  0  0  0  0  0  0  0
    6.5148   43.0113   49.8992 C   0  0  0  0  0  3  0  0  0  0  0  0
    7.6975   43.0263   49.2359 N   0  0  0  0  0  0  0  0  0  0  0  0
    5.3499   46.4432   52.5839 C   0  0  0  0  0  0  0  0  0  0  0  0
    5.6382   47.4407   51.8401 O   0  0  0  0  0  0  0  0  0  0  0  0
    4.0160   46.1786   53.0046 N   0  0  0  0  0  0  0  0  0  0  0  0
    2.9260   47.1057   53.2481 C   0  0  0  0  0  2  0  0  0  0  0  0
    3.4869   44.8556   53.2784 C   0  0  0  0  0  3  0  0  0  0  0  0
    2.3966   46.6036   54.5814 C   0  0  0  0  0  2  0  0  0  0  0  0
    2.6590   45.1187   54.5163 C   0  0  0  0  0  2  0  0  0  0  0  0
    2.6266   44.3569   52.1380 C   0  0  0  0  0  3  0  0  0  0  0  0
    2.4528   42.8517   52.1770 C   0  0  0  0  0  2  0  0  0  0  0  0
    3.2906   44.6455   50.8079 C   0  0  0  0  0  2  0  0  0  0  0  0
    2.5092   42.4224   50.7081 C   0  0  0  0  0  2  0  0  0  0  0  0
    3.6720   43.2942   50.2219 C   0  0  0  0  0  2  0  0  0  0  0  0
  1  2  1  0
  2  4  1  0
  3  2  1  0
  4  6  1  0
  4  5  2  0
  5  7  1  0
  6  9  2  0
  7 10  2  0
  8  6  1  0
  8 11  1  0
  9 12  1  0
  9 10  1  0
 11 12  2  0
 13 15  1  0
 13  1  1  0
 14 13  2  0
 15 16  1  0
 17 20  1  0
 17 15  1  0
 17 19  1  0
 18 19  1  0
 18 16  1  0
 21 20  1  0
 22 20  1  0
 23 21  1  0
 24 23  1  0
 24 22  1  0
M  RAD  8   1   3   3   2   7   2  11   2  16   3  17   2  18   3  19   3
M  RAD  5  20   2  21   3  22   3  23   3  24   3
M  END
>  <REMARK>  (1) 
 SMILES CN(CC(=O)N1CCCC1C1CCCC1)c1ncnc2nc[nH]c12
 SMILES IDX 3 1 2 2 1 3 16 4 17 5 24 6 18 7 23 8 20 9 19 10 22 11 21 12
 SMILES IDX 4 14 5 15 6 16 7 17 10 18 8 19 9 20 11 21 12 22 15 23 13 24
 SMILES IDX 14 25
 H PARENT 23 13

>  <TORSDO>  (1) 
F 5

$$$$
