/home/pchatterjee/Documents/git/vs_workflow/DiffDock/diffdock_run/pdbqt_scrubbed/Z776287114.pdbqt
     RDKit          3D

 24 27  0  0  1  0  0  0  0  0999 V2000
    5.0099   46.0180   52.0749 C   0  0  0  0  0  2  0  0  0  0  0  0
    6.4284   46.0917   52.4090 N   0  0  0  0  0  0  0  0  0  0  0  0
    6.9099   46.6819   53.6431 C   0  0  0  0  0  1  0  0  0  0  0  0
    7.3289   45.5478   51.4495 C   0  0  0  0  0  0  0  0  0  0  0  0
    6.8879   44.6992   50.4858 N   0  0  0  0  0  0  0  0  0  0  0  0
    8.6790   45.8830   51.4908 C   0  0  0  0  0  0  0  0  0  0  0  0
    7.7629   44.1991   49.5900 C   0  0  0  0  0  3  0  0  0  0  0  0
    9.4072   46.6703   52.2928 N   0  0  0  0  0  0  0  0  0  0  0  0
    9.5438   45.3505   50.5563 C   0  0  0  0  0  0  0  0  0  0  0  0
    9.0835   44.5054   49.6026 N   0  0  0  0  0  0  0  0  0  0  0  0
   10.7116   46.6629   51.9067 C   0  0  0  0  0  3  0  0  0  0  0  0
   10.7660   45.8387   50.8312 N   0  0  0  0  0  0  0  0  0  0  0  0
    4.3890   44.7791   52.6108 C   0  0  0  0  0  0  0  0  0  0  0  0
    5.1098   44.0453   53.3679 O   0  0  0  0  0  0  0  0  0  0  0  0
    3.0462   44.4356   52.2865 N   0  0  0  0  0  0  0  0  0  0  0  0
    1.9301   45.3001   51.9490 C   0  0  0  0  0  2  0  0  0  0  0  0
    2.5336   43.0792   52.2351 C   0  0  0  0  0  3  0  0  0  0  0  0
    0.8265   44.7188   52.8175 C   0  0  0  0  0  2  0  0  0  0  0  0
    1.1757   43.2517   52.8781 C   0  0  0  0  0  2  0  0  0  0  0  0
    2.4079   42.5889   50.8092 C   0  0  0  0  0  3  0  0  0  0  0  0
    1.3992   41.4644   50.6847 C   0  0  0  0  0  2  0  0  0  0  0  0
    3.7196   42.0000   50.3338 C   0  0  0  0  0  2  0  0  0  0  0  0
    2.0229   40.5023   49.6695 C   0  0  0  0  0  2  0  0  0  0  0  0
    3.4758   40.5086   50.1569 C   0  0  0  0  0  2  0  0  0  0  0  0
  1  2  1  0
  2  4  1  0
  3  2  1  0
  4  6  1  0
  4  5  2  0
  5  7  1  0
  6  9  2  0
  7 10  2  0
  8  6  1  0
  8 11  1  0
  9 12  1  0
  9 10  1  0
 11 12  2  0
 13 15  1  0
 13  1  1  0
 14 13  2  0
 15 16  1  0
 17 20  1  0
 17 15  1  0
 17 19  1  0
 18 19  1  0
 18 16  1  0
 21 20  1  0
 22 20  1  0
 23 21  1  0
 24 23  1  0
 24 22  1  0
M  RAD  8   1   3   3   2   7   2  11   2  16   3  17   2  18   3  19   3
M  RAD  5  20   2  21   3  22   3  23   3  24   3
M  END
>  <REMARK>  (1) 
 SMILES CN(CC(=O)N1CCCC1C1CCCC1)c1ncnc2nc[nH]c12
 SMILES IDX 3 1 2 2 1 3 16 4 17 5 24 6 18 7 23 8 20 9 19 10 22 11 21 12
 SMILES IDX 4 14 5 15 6 16 7 17 10 18 8 19 9 20 11 21 12 22 15 23 13 24
 SMILES IDX 14 25
 H PARENT 23 13

>  <TORSDO>  (1) 
F 5

$$$$
