/home/pchatterjee/Documents/git/vs_workflow/DiffDock/diffdock_run/pdbqt_scrubbed/Z776287114.pdbqt
     RDKit          3D

 24 27  0  0  1  0  0  0  0  0999 V2000
    5.6829   46.3277   52.0030 C   0  0  0  0  0  2  0  0  0  0  0  0
    5.9779   44.9319   51.6965 N   0  0  0  0  0  0  0  0  0  0  0  0
    5.1274   43.8407   52.1312 C   0  0  0  0  0  1  0  0  0  0  0  0
    7.1591   44.6913   50.9386 C   0  0  0  0  0  0  0  0  0  0  0  0
    7.1412   43.8511   49.8722 N   0  0  0  0  0  0  0  0  0  0  0  0
    8.3514   45.3194   51.2861 C   0  0  0  0  0  0  0  0  0  0  0  0
    8.2746   43.6417   49.1724 C   0  0  0  0  0  3  0  0  0  0  0  0
    8.6896   46.1792   52.2554 N   0  0  0  0  0  0  0  0  0  0  0  0
    9.4908   45.0795   50.5452 C   0  0  0  0  0  0  0  0  0  0  0  0
    9.4518   44.2375   49.4845 N   0  0  0  0  0  0  0  0  0  0  0  0
   10.0081   46.5013   52.1641 C   0  0  0  0  0  3  0  0  0  0  0  0
   10.4773   45.8069   51.0980 N   0  0  0  0  0  0  0  0  0  0  0  0
    5.7515   46.5896   53.4639 C   0  0  0  0  0  0  0  0  0  0  0  0
    6.8472   47.0596   53.9219 O   0  0  0  0  0  0  0  0  0  0  0  0
    4.6359   46.3234   54.3070 N   0  0  0  0  0  0  0  0  0  0  0  0
    4.3316   46.8488   55.6255 C   0  0  0  0  0  2  0  0  0  0  0  0
    3.5461   45.4263   53.9708 C   0  0  0  0  0  3  0  0  0  0  0  0
    3.9422   45.5828   56.3709 C   0  0  0  0  0  2  0  0  0  0  0  0
    3.3177   44.7299   55.2936 C   0  0  0  0  0  2  0  0  0  0  0  0
    2.3158   46.1902   53.5325 C   0  0  0  0  0  3  0  0  0  0  0  0
    1.2413   45.2688   52.9903 C   0  0  0  0  0  2  0  0  0  0  0  0
    2.6517   47.1244   52.3889 C   0  0  0  0  0  2  0  0  0  0  0  0
    0.6423   46.0349   51.8074 C   0  0  0  0  0  2  0  0  0  0  0  0
    1.9242   46.5799   51.1685 C   0  0  0  0  0  2  0  0  0  0  0  0
  1  2  1  0
  2  4  1  0
  3  2  1  0
  4  6  1  0
  4  5  2  0
  5  7  1  0
  6  9  2  0
  7 10  2  0
  8  6  1  0
  8 11  1  0
  9 12  1  0
  9 10  1  0
 11 12  2  0
 13 15  1  0
 13  1  1  0
 14 13  2  0
 15 16  1  0
 17 20  1  0
 17 15  1  0
 17 19  1  0
 18 19  1  0
 18 16  1  0
 21 20  1  0
 22 20  1  0
 23 21  1  0
 24 23  1  0
 24 22  1  0
M  RAD  8   1   3   3   2   7   2  11   2  16   3  17   2  18   3  19   3
M  RAD  5  20   2  21   3  22   3  23   3  24   3
M  END
>  <REMARK>  (1) 
 SMILES CN(CC(=O)N1CCCC1C1CCCC1)c1ncnc2nc[nH]c12
 SMILES IDX 3 1 2 2 1 3 16 4 17 5 24 6 18 7 23 8 20 9 19 10 22 11 21 12
 SMILES IDX 4 14 5 15 6 16 7 17 10 18 8 19 9 20 11 21 12 22 15 23 13 24
 SMILES IDX 14 25
 H PARENT 23 13

>  <TORSDO>  (1) 
F 5

$$$$
