/home/pchatterjee/Documents/git/vs_workflow/DiffDock/diffdock_run/pdbqt_scrubbed/Z776287114.pdbqt
     RDKit          3D

 24 27  0  0  1  0  0  0  0  0999 V2000
    5.7623   46.3205   51.5423 C   0  0  0  0  0  2  0  0  0  0  0  0
    5.8947   44.9976   50.9409 N   0  0  0  0  0  0  0  0  0  0  0  0
    4.8209   44.0230   50.9549 C   0  0  0  0  0  1  0  0  0  0  0  0
    7.1481   44.7073   50.3310 C   0  0  0  0  0  0  0  0  0  0  0  0
    7.2525   43.7401   49.3840 N   0  0  0  0  0  0  0  0  0  0  0  0
    8.2861   45.4171   50.7025 C   0  0  0  0  0  0  0  0  0  0  0  0
    8.4522   43.4862   48.8231 C   0  0  0  0  0  3  0  0  0  0  0  0
    8.5093   46.4034   51.5805 N   0  0  0  0  0  0  0  0  0  0  0  0
    9.4964   45.1282   50.1055 C   0  0  0  0  0  0  0  0  0  0  0  0
    9.5793   44.1591   49.1624 N   0  0  0  0  0  0  0  0  0  0  0  0
    9.8221   46.7596   51.5692 C   0  0  0  0  0  3  0  0  0  0  0  0
   10.4076   45.9547   50.6482 N   0  0  0  0  0  0  0  0  0  0  0  0
    6.0586   46.2879   52.9979 C   0  0  0  0  0  0  0  0  0  0  0  0
    7.0487   45.5752   53.3763 O   0  0  0  0  0  0  0  0  0  0  0  0
    5.2648   47.0245   53.9217 N   0  0  0  0  0  0  0  0  0  0  0  0
    5.2963   48.4407   54.2390 C   0  0  0  0  0  2  0  0  0  0  0  0
    4.2251   46.4493   54.7545 C   0  0  0  0  0  3  0  0  0  0  0  0
    5.2714   48.4087   55.7584 C   0  0  0  0  0  2  0  0  0  0  0  0
    4.4585   47.1737   56.0613 C   0  0  0  0  0  2  0  0  0  0  0  0
    2.8476   46.7434   54.2019 C   0  0  0  0  0  3  0  0  0  0  0  0
    1.7509   46.2400   55.1191 C   0  0  0  0  0  2  0  0  0  0  0  0
    2.6354   46.0141   52.8918 C   0  0  0  0  0  2  0  0  0  0  0  0
    0.6791   45.6959   54.1703 C   0  0  0  0  0  2  0  0  0  0  0  0
    1.5677   44.9635   53.1591 C   0  0  0  0  0  2  0  0  0  0  0  0
  1  2  1  0
  2  4  1  0
  3  2  1  0
  4  6  1  0
  4  5  2  0
  5  7  1  0
  6  9  2  0
  7 10  2  0
  8  6  1  0
  8 11  1  0
  9 12  1  0
  9 10  1  0
 11 12  2  0
 13 15  1  0
 13  1  1  0
 14 13  2  0
 15 16  1  0
 17 20  1  0
 17 15  1  0
 17 19  1  0
 18 19  1  0
 18 16  1  0
 21 20  1  0
 22 20  1  0
 23 21  1  0
 24 23  1  0
 24 22  1  0
M  RAD  8   1   3   3   2   7   2  11   2  16   3  17   2  18   3  19   3
M  RAD  5  20   2  21   3  22   3  23   3  24   3
M  END
>  <REMARK>  (1) 
 SMILES CN(CC(=O)N1CCCC1C1CCCC1)c1ncnc2nc[nH]c12
 SMILES IDX 3 1 2 2 1 3 16 4 17 5 24 6 18 7 23 8 20 9 19 10 22 11 21 12
 SMILES IDX 4 14 5 15 6 16 7 17 10 18 8 19 9 20 11 21 12 22 15 23 13 24
 SMILES IDX 14 25
 H PARENT 23 13

>  <TORSDO>  (1) 
F 5

$$$$
