/home/pchatterjee/Documents/git/vs_workflow/DiffDock/diffdock_run/pdbqt_scrubbed/Z776287114.pdbqt
     RDKit          3D

 24 27  0  0  1  0  0  0  0  0999 V2000
    6.7156   46.9491   52.2630 C   0  0  0  0  0  2  0  0  0  0  0  0
    8.1690   46.9166   52.1362 N   0  0  0  0  0  0  0  0  0  0  0  0
    9.0340   47.8515   52.8295 C   0  0  0  0  0  1  0  0  0  0  0  0
    8.7029   45.9069   51.2860 C   0  0  0  0  0  0  0  0  0  0  0  0
   10.0397   45.8197   51.0657 N   0  0  0  0  0  0  0  0  0  0  0  0
    7.8536   44.9935   50.6684 C   0  0  0  0  0  0  0  0  0  0  0  0
   10.5179   44.8534   50.2558 C   0  0  0  0  0  3  0  0  0  0  0  0
    6.5262   44.8172   50.6816 N   0  0  0  0  0  0  0  0  0  0  0  0
    8.3810   44.0186   49.8461 C   0  0  0  0  0  0  0  0  0  0  0  0
    9.7181   43.9487   49.6394 N   0  0  0  0  0  0  0  0  0  0  0  0
    6.1806   43.7620   49.8958 C   0  0  0  0  0  3  0  0  0  0  0  0
    7.3473   43.2881   49.3926 N   0  0  0  0  0  0  0  0  0  0  0  0
    6.2815   46.5843   53.6363 C   0  0  0  0  0  0  0  0  0  0  0  0
    7.1956   46.4202   54.5132 O   0  0  0  0  0  0  0  0  0  0  0  0
    4.9017   46.4272   53.9489 N   0  0  0  0  0  0  0  0  0  0  0  0
    3.9428   47.4156   54.4076 C   0  0  0  0  0  2  0  0  0  0  0  0
    4.1746   45.1749   53.8562 C   0  0  0  0  0  3  0  0  0  0  0  0
    3.2720   46.6746   55.5526 C   0  0  0  0  0  2  0  0  0  0  0  0
    3.3234   45.2342   55.1047 C   0  0  0  0  0  2  0  0  0  0  0  0
    3.3186   45.1231   52.6096 C   0  0  0  0  0  3  0  0  0  0  0  0
    1.8898   45.5463   52.8867 C   0  0  0  0  0  2  0  0  0  0  0  0
    3.2190   43.7028   52.0938 C   0  0  0  0  0  2  0  0  0  0  0  0
    1.0391   44.6011   52.0336 C   0  0  0  0  0  2  0  0  0  0  0  0
    1.7710   43.2799   52.2923 C   0  0  0  0  0  2  0  0  0  0  0  0
  1  2  1  0
  2  4  1  0
  3  2  1  0
  4  6  1  0
  4  5  2  0
  5  7  1  0
  6  9  2  0
  7 10  2  0
  8  6  1  0
  8 11  1  0
  9 12  1  0
  9 10  1  0
 11 12  2  0
 13 15  1  0
 13  1  1  0
 14 13  2  0
 15 16  1  0
 17 20  1  0
 17 15  1  0
 17 19  1  0
 18 19  1  0
 18 16  1  0
 21 20  1  0
 22 20  1  0
 23 21  1  0
 24 23  1  0
 24 22  1  0
M  RAD  8   1   3   3   2   7   2  11   2  16   3  17   2  18   3  19   3
M  RAD  5  20   2  21   3  22   3  23   3  24   3
M  END
>  <REMARK>  (1) 
 SMILES CN(CC(=O)N1CCCC1C1CCCC1)c1ncnc2nc[nH]c12
 SMILES IDX 3 1 2 2 1 3 16 4 17 5 24 6 18 7 23 8 20 9 19 10 22 11 21 12
 SMILES IDX 4 14 5 15 6 16 7 17 10 18 8 19 9 20 11 21 12 22 15 23 13 24
 SMILES IDX 14 25
 H PARENT 23 13

>  <TORSDO>  (1) 
F 5

$$$$
