/home/pchatterjee/Documents/git/vs_workflow/DiffDock/diffdock_run/pdbqt_scrubbed/Z776287114.pdbqt
     RDKit          3D

 24 27  0  0  1  0  0  0  0  0999 V2000
    4.9915   45.3510   52.4727 C   0  0  0  0  0  2  0  0  0  0  0  0
    6.1065   46.1664   52.0024 N   0  0  0  0  0  0  0  0  0  0  0  0
    6.2107   47.5846   52.2869 C   0  0  0  0  0  1  0  0  0  0  0  0
    7.1009   45.4908   51.2395 C   0  0  0  0  0  0  0  0  0  0  0  0
    6.7609   44.4949   50.3816 N   0  0  0  0  0  0  0  0  0  0  0  0
    8.4402   45.8474   51.3667 C   0  0  0  0  0  0  0  0  0  0  0  0
    7.7234   43.8722   49.6717 C   0  0  0  0  0  3  0  0  0  0  0  0
    9.0826   46.7613   52.1051 N   0  0  0  0  0  0  0  0  0  0  0  0
    9.3965   45.1864   50.6228 C   0  0  0  0  0  0  0  0  0  0  0  0
    9.0362   44.1952   49.7723 N   0  0  0  0  0  0  0  0  0  0  0  0
   10.4201   46.7116   51.8622 C   0  0  0  0  0  3  0  0  0  0  0  0
   10.5845   45.7290   50.9421 N   0  0  0  0  0  0  0  0  0  0  0  0
    3.9601   46.1790   53.1496 C   0  0  0  0  0  0  0  0  0  0  0  0
    4.0006   47.4399   52.9501 O   0  0  0  0  0  0  0  0  0  0  0  0
    2.9737   45.5801   53.9830 N   0  0  0  0  0  0  0  0  0  0  0  0
    2.1819   46.1731   55.0452 C   0  0  0  0  0  2  0  0  0  0  0  0
    2.5672   44.1893   53.9074 C   0  0  0  0  0  3  0  0  0  0  0  0
    2.3225   45.1308   56.1424 C   0  0  0  0  0  2  0  0  0  0  0  0
    2.4418   43.8379   55.3729 C   0  0  0  0  0  2  0  0  0  0  0  0
    1.2431   44.0381   53.1910 C   0  0  0  0  0  3  0  0  0  0  0  0
    1.3484   43.1089   51.9980 C   0  0  0  0  0  2  0  0  0  0  0  0
    0.7944   45.3672   52.6205 C   0  0  0  0  0  2  0  0  0  0  0  0
    0.4621   43.7563   50.9302 C   0  0  0  0  0  2  0  0  0  0  0  0
    0.8637   45.2246   51.1073 C   0  0  0  0  0  2  0  0  0  0  0  0
  1  2  1  0
  2  4  1  0
  3  2  1  0
  4  6  1  0
  4  5  2  0
  5  7  1  0
  6  9  2  0
  7 10  2  0
  8  6  1  0
  8 11  1  0
  9 12  1  0
  9 10  1  0
 11 12  2  0
 13 15  1  0
 13  1  1  0
 14 13  2  0
 15 16  1  0
 17 20  1  0
 17 15  1  0
 17 19  1  0
 18 19  1  0
 18 16  1  0
 21 20  1  0
 22 20  1  0
 23 21  1  0
 24 23  1  0
 24 22  1  0
M  RAD  8   1   3   3   2   7   2  11   2  16   3  17   2  18   3  19   3
M  RAD  5  20   2  21   3  22   3  23   3  24   3
M  END
>  <REMARK>  (1) 
 SMILES CN(CC(=O)N1CCCC1C1CCCC1)c1ncnc2nc[nH]c12
 SMILES IDX 3 1 2 2 1 3 16 4 17 5 24 6 18 7 23 8 20 9 19 10 22 11 21 12
 SMILES IDX 4 14 5 15 6 16 7 17 10 18 8 19 9 20 11 21 12 22 15 23 13 24
 SMILES IDX 14 25
 H PARENT 23 13

>  <TORSDO>  (1) 
F 5

$$$$
