/home/pchatterjee/Documents/git/vs_workflow/DiffDock/diffdock_run/pdbqt_scrubbed/Z776287114.pdbqt
     RDKit          3D

 24 27  0  0  1  0  0  0  0  0999 V2000
    5.0062   45.2944   52.5515 C   0  0  0  0  0  2  0  0  0  0  0  0
    6.2425   46.0444   52.3555 N   0  0  0  0  0  0  0  0  0  0  0  0
    6.4952   47.3161   53.0052 C   0  0  0  0  0  1  0  0  0  0  0  0
    7.2018   45.4572   51.4824 C   0  0  0  0  0  0  0  0  0  0  0  0
    6.8425   44.4778   50.6135 N   0  0  0  0  0  0  0  0  0  0  0  0
    8.5259   45.8845   51.5115 C   0  0  0  0  0  0  0  0  0  0  0  0
    7.7717   43.9394   49.7981 C   0  0  0  0  0  3  0  0  0  0  0  0
    9.1800   46.8042   52.2324 N   0  0  0  0  0  0  0  0  0  0  0  0
    9.4481   45.3090   50.6612 C   0  0  0  0  0  0  0  0  0  0  0  0
    9.0691   44.3329   49.8015 N   0  0  0  0  0  0  0  0  0  0  0  0
   10.4921   46.8406   51.8753 C   0  0  0  0  0  3  0  0  0  0  0  0
   10.6285   45.9058   50.9024 N   0  0  0  0  0  0  0  0  0  0  0  0
    4.0167   46.0740   53.3394 C   0  0  0  0  0  0  0  0  0  0  0  0
    4.1403   47.3452   53.3377 O   0  0  0  0  0  0  0  0  0  0  0  0
    2.9792   45.4196   54.0617 N   0  0  0  0  0  0  0  0  0  0  0  0
    2.4207   45.7378   55.3632 C   0  0  0  0  0  2  0  0  0  0  0  0
    2.2593   44.2513   53.5904 C   0  0  0  0  0  3  0  0  0  0  0  0
    2.3936   44.3681   56.0214 C   0  0  0  0  0  2  0  0  0  0  0  0
    2.1584   43.4345   54.8591 C   0  0  0  0  0  2  0  0  0  0  0  0
    0.8896   44.6205   53.0643 C   0  0  0  0  0  3  0  0  0  0  0  0
    0.2967   43.5189   52.2083 C   0  0  0  0  0  2  0  0  0  0  0  0
    0.9793   45.8266   52.1529 C   0  0  0  0  0  2  0  0  0  0  0  0
   -0.4101   44.2589   51.0691 C   0  0  0  0  0  2  0  0  0  0  0  0
    0.6415   45.3285   50.7555 C   0  0  0  0  0  2  0  0  0  0  0  0
  1  2  1  0
  2  4  1  0
  3  2  1  0
  4  6  1  0
  4  5  2  0
  5  7  1  0
  6  9  2  0
  7 10  2  0
  8  6  1  0
  8 11  1  0
  9 12  1  0
  9 10  1  0
 11 12  2  0
 13 15  1  0
 13  1  1  0
 14 13  2  0
 15 16  1  0
 17 20  1  0
 17 15  1  0
 17 19  1  0
 18 19  1  0
 18 16  1  0
 21 20  1  0
 22 20  1  0
 23 21  1  0
 24 23  1  0
 24 22  1  0
M  RAD  8   1   3   3   2   7   2  11   2  16   3  17   2  18   3  19   3
M  RAD  5  20   2  21   3  22   3  23   3  24   3
M  END
>  <REMARK>  (1) 
 SMILES CN(CC(=O)N1CCCC1C1CCCC1)c1ncnc2nc[nH]c12
 SMILES IDX 3 1 2 2 1 3 16 4 17 5 24 6 18 7 23 8 20 9 19 10 22 11 21 12
 SMILES IDX 4 14 5 15 6 16 7 17 10 18 8 19 9 20 11 21 12 22 15 23 13 24
 SMILES IDX 14 25
 H PARENT 23 13

>  <TORSDO>  (1) 
F 5

$$$$
