/home/pchatterjee/Documents/git/vs_workflow/DiffDock/diffdock_run/pdbqt_scrubbed/Z3071600379.pdbqt
     RDKit          3D

 22 24  0  0  0  0  0  0  0  0999 V2000
    3.4082   40.9695   48.5792 C   0  0  0  0  0  2  0  0  0  0  0  0
    4.7478   41.5665   49.5603 S   0  0  2  0  0  0  0  0  0  0  0  0
    6.0447   41.5736   48.7765 O   0  0  0  0  0  0  0  0  0  0  0  0
    4.9906   40.6044   50.7039 O   0  0  0  0  0  0  0  0  0  0  0  0
    4.4504   43.1691   50.1289 N   0  0  0  0  0  0  0  0  0  0  0  0
    5.4701   44.0116   50.6044 C   0  0  0  0  0  0  0  0  0  0  0  0
    8.9497   45.0161   49.8863 C   0  0  0  0  0  0  0  0  0  0  0  0
    9.8460   45.8652   50.4401 N   0  0  0  0  0  0  0  0  0  0  0  0
    7.6990   44.9452   50.5075 C   0  0  0  0  0  0  0  0  0  0  0  0
    9.5692   46.6089   51.5279 C   0  0  0  0  0  3  0  0  0  0  0  0
    6.7276   44.1056   50.0082 C   0  0  0  0  0  3  0  0  0  0  0  0
    7.4328   45.7139   51.6206 C   0  0  0  0  0  0  0  0  0  0  0  0
    8.3715   46.5525   52.1372 N   0  0  0  0  0  0  0  0  0  0  0  0
    6.2075   45.6201   52.1987 C   0  0  0  0  0  3  0  0  0  0  0  0
    5.2070   44.7823   51.7182 C   0  0  0  0  0  3  0  0  0  0  0  0
    9.2255   44.3345   48.8768 O   0  0  0  0  0  0  0  0  0  0  0  0
    3.0193   41.9940   47.5266 C   0  0  0  0  0  2  0  0  0  0  0  0
    1.8461   41.6126   46.8647 O   0  0  0  0  0  0  0  0  0  0  0  0
    1.6586   42.4130   45.7628 C   0  0  0  0  0  2  0  0  0  0  0  0
    1.3912   41.6821   44.4816 C   0  0  0  0  0  3  0  0  0  0  0  0
    2.7089   41.1517   43.8421 C   0  0  0  0  0  2  0  0  0  0  0  0
    1.7934   42.1977   43.1655 C   0  0  0  0  0  2  0  0  0  0  0  0
  2  1  1  6
  2  4  2  0
  2  3  2  0
  5  2  1  0
  6  5  1  0
  6 15  2  0
  7  9  1  0
  8  7  1  0
  8 10  1  0
  9 11  2  0
  9 12  1  0
 10 13  2  0
 11  6  1  0
 12 14  2  0
 13 12  1  0
 14 15  1  0
 16  7  2  0
 17  1  1  0
 18 17  1  0
 19 18  1  0
 20 22  1  0
 20 19  1  0
 21 20  1  0
 21 22  1  0
M  RAD  8   1   3  10   2  11   2  14   2  15   2  17   3  19   3  20   2
M  RAD  2  21   3  22   3
M  END
>  <REMARK>  (1) 
 SMILES O=c1[nH]cnc2ccc(NS(=O)(=O)CCOCC3CC3)cc12
 SMILES IDX 14 1 11 2 12 3 13 4 10 5 9 7 2 8 3 9 22 10 4 11 21 12 6 13
 SMILES IDX 5 14 7 15 8 16 1 17 15 19 16 20 17 21 18 22 19 23 20 24
 H PARENT 10 6 3 18

>  <TORSDO>  (1) 
F 7

$$$$
