/home/pchatterjee/Documents/git/vs_workflow/DiffDock/diffdock_run/pdbqt_scrubbed/Z3071600379.pdbqt
     RDKit          3D

 22 24  0  0  0  0  0  0  0  0999 V2000
    3.0805   41.6670   50.7451 C   0  0  0  0  0  2  0  0  0  0  0  0
    3.1541   43.1505   51.6976 S   0  0  2  0  0  0  0  0  0  0  0  0
    3.8523   42.9206   53.0228 O   0  0  0  0  0  0  0  0  0  0  0  0
    1.7474   43.5709   52.0677 O   0  0  0  0  0  0  0  0  0  0  0  0
    3.9917   44.4026   50.8547 N   0  0  0  0  0  0  0  0  0  0  0  0
    5.3867   44.4053   50.6821 C   0  0  0  0  0  0  0  0  0  0  0  0
    8.4330   46.1348   51.8487 C   0  0  0  0  0  0  0  0  0  0  0  0
    9.7586   46.0374   51.5952 N   0  0  0  0  0  0  0  0  0  0  0  0
    7.6039   45.2463   51.1571 C   0  0  0  0  0  0  0  0  0  0  0  0
   10.2710   45.1424   50.7294 C   0  0  0  0  0  3  0  0  0  0  0  0
    6.2411   45.2777   51.3562 C   0  0  0  0  0  3  0  0  0  0  0  0
    8.1456   44.3364   50.2743 C   0  0  0  0  0  0  0  0  0  0  0  0
    9.4876   44.2810   50.0563 N   0  0  0  0  0  0  0  0  0  0  0  0
    7.3110   43.4884   49.6196 C   0  0  0  0  0  3  0  0  0  0  0  0
    5.9321   43.4960   49.7993 C   0  0  0  0  0  3  0  0  0  0  0  0
    7.9771   46.9719   52.6556 O   0  0  0  0  0  0  0  0  0  0  0  0
    2.0348   41.7874   49.6493 C   0  0  0  0  0  2  0  0  0  0  0  0
    2.0373   40.6544   48.8268 O   0  0  0  0  0  0  0  0  0  0  0  0
    1.9988   41.0428   47.5086 C   0  0  0  0  0  2  0  0  0  0  0  0
    2.9536   40.3239   46.6037 C   0  0  0  0  0  3  0  0  0  0  0  0
    4.3650   40.1956   47.2504 C   0  0  0  0  0  2  0  0  0  0  0  0
    4.0913   40.9860   45.9502 C   0  0  0  0  0  2  0  0  0  0  0  0
  2  1  1  6
  2  4  2  0
  2  3  2  0
  5  2  1  0
  6  5  1  0
  6 15  2  0
  7  9  1  0
  8  7  1  0
  8 10  1  0
  9 11  2  0
  9 12  1  0
 10 13  2  0
 11  6  1  0
 12 14  2  0
 13 12  1  0
 14 15  1  0
 16  7  2  0
 17  1  1  0
 18 17  1  0
 19 18  1  0
 20 22  1  0
 20 19  1  0
 21 20  1  0
 21 22  1  0
M  RAD  8   1   3  10   2  11   2  14   2  15   2  17   3  19   3  20   2
M  RAD  2  21   3  22   3
M  END
>  <REMARK>  (1) 
 SMILES O=c1[nH]cnc2ccc(NS(=O)(=O)CCOCC3CC3)cc12
 SMILES IDX 14 1 11 2 12 3 13 4 10 5 9 7 2 8 3 9 22 10 4 11 21 12 6 13
 SMILES IDX 5 14 7 15 8 16 1 17 15 19 16 20 17 21 18 22 19 23 20 24
 H PARENT 10 6 3 18

>  <TORSDO>  (1) 
F 7

$$$$
