/home/pchatterjee/Documents/git/vs_workflow/DiffDock/diffdock_run/pdbqt_scrubbed/Z3071600379.pdbqt
     RDKit          3D

 22 24  0  0  0  0  0  0  0  0999 V2000
    2.5065   42.9060   51.6845 C   0  0  0  0  0  2  0  0  0  0  0  0
    3.0730   44.4945   52.2031 S   0  0  2  0  0  0  0  0  0  0  0  0
    3.9787   44.3886   53.4134 O   0  0  0  0  0  0  0  0  0  0  0  0
    1.8891   45.3122   52.6746 O   0  0  0  0  0  0  0  0  0  0  0  0
    3.9414   45.2979   50.9460 N   0  0  0  0  0  0  0  0  0  0  0  0
    5.3165   45.1068   50.7258 C   0  0  0  0  0  0  0  0  0  0  0  0
    8.6152   46.2414   51.9354 C   0  0  0  0  0  0  0  0  0  0  0  0
    9.9047   45.9698   51.6282 N   0  0  0  0  0  0  0  0  0  0  0  0
    7.6456   45.5565   51.1965 C   0  0  0  0  0  0  0  0  0  0  0  0
   10.2559   45.0930   50.6686 C   0  0  0  0  0  3  0  0  0  0  0  0
    6.3082   45.7738   51.4450 C   0  0  0  0  0  3  0  0  0  0  0  0
    8.0232   44.6621   50.2176 C   0  0  0  0  0  0  0  0  0  0  0  0
    9.3360   44.4261   49.9489 N   0  0  0  0  0  0  0  0  0  0  0  0
    7.0552   44.0144   49.5192 C   0  0  0  0  0  3  0  0  0  0  0  0
    5.6978   44.2125   49.7469 C   0  0  0  0  0  3  0  0  0  0  0  0
    8.3097   47.0584   52.8293 O   0  0  0  0  0  0  0  0  0  0  0  0
    1.0306   42.9561   51.3267 C   0  0  0  0  0  2  0  0  0  0  0  0
    0.6279   41.7751   50.6918 O   0  0  0  0  0  0  0  0  0  0  0  0
   -0.6017   41.9636   50.1065 C   0  0  0  0  0  2  0  0  0  0  0  0
   -0.9886   40.9329   49.0890 C   0  0  0  0  0  3  0  0  0  0  0  0
    0.1346   39.8704   48.8983 C   0  0  0  0  0  2  0  0  0  0  0  0
   -0.3401   40.8207   47.7750 C   0  0  0  0  0  2  0  0  0  0  0  0
  2  1  1  6
  2  4  2  0
  2  3  2  0
  5  2  1  0
  6  5  1  0
  6 15  2  0
  7  9  1  0
  8  7  1  0
  8 10  1  0
  9 11  2  0
  9 12  1  0
 10 13  2  0
 11  6  1  0
 12 14  2  0
 13 12  1  0
 14 15  1  0
 16  7  2  0
 17  1  1  0
 18 17  1  0
 19 18  1  0
 20 22  1  0
 20 19  1  0
 21 20  1  0
 21 22  1  0
M  RAD  8   1   3  10   2  11   2  14   2  15   2  17   3  19   3  20   2
M  RAD  2  21   3  22   3
M  END
>  <REMARK>  (1) 
 SMILES O=c1[nH]cnc2ccc(NS(=O)(=O)CCOCC3CC3)cc12
 SMILES IDX 14 1 11 2 12 3 13 4 10 5 9 7 2 8 3 9 22 10 4 11 21 12 6 13
 SMILES IDX 5 14 7 15 8 16 1 17 15 19 16 20 17 21 18 22 19 23 20 24
 H PARENT 10 6 3 18

>  <TORSDO>  (1) 
F 7

$$$$
