/home/pchatterjee/Documents/git/vs_workflow/DiffDock/diffdock_run/pdbqt_scrubbed/Z3071600379.pdbqt
     RDKit          3D

 22 24  0  0  0  0  0  0  0  0999 V2000
    2.7042   43.9610   52.9173 C   0  0  0  0  0  2  0  0  0  0  0  0
    3.3739   45.5618   52.5977 S   0  0  2  0  0  0  0  0  0  0  0  0
    4.4220   45.9361   53.6262 O   0  0  0  0  0  0  0  0  0  0  0  0
    2.2814   46.5970   52.7622 O   0  0  0  0  0  0  0  0  0  0  0  0
    4.0981   45.6437   51.0328 N   0  0  0  0  0  0  0  0  0  0  0  0
    5.4415   45.3054   50.7949 C   0  0  0  0  0  0  0  0  0  0  0  0
    8.8698   46.2240   51.8120 C   0  0  0  0  0  0  0  0  0  0  0  0
   10.1177   45.8065   51.4968 N   0  0  0  0  0  0  0  0  0  0  0  0
    7.8168   45.5723   51.1628 C   0  0  0  0  0  0  0  0  0  0  0  0
   10.3540   44.8206   50.6106 C   0  0  0  0  0  3  0  0  0  0  0  0
    6.5142   45.9355   51.4255 C   0  0  0  0  0  3  0  0  0  0  0  0
    8.0771   44.5649   50.2582 C   0  0  0  0  0  0  0  0  0  0  0  0
    9.3527   44.1837   49.9776 N   0  0  0  0  0  0  0  0  0  0  0  0
    7.0304   43.9534   49.6459 C   0  0  0  0  0  3  0  0  0  0  0  0
    5.7054   44.2977   49.8902 C   0  0  0  0  0  3  0  0  0  0  0  0
    8.6712   47.1405   52.6370 O   0  0  0  0  0  0  0  0  0  0  0  0
    1.2069   43.9473   52.6587 C   0  0  0  0  0  2  0  0  0  0  0  0
    0.8986   43.1685   51.5368 O   0  0  0  0  0  0  0  0  0  0  0  0
    0.3509   41.9745   51.9421 C   0  0  0  0  0  2  0  0  0  0  0  0
   -0.3114   41.1765   50.8596 C   0  0  0  0  0  3  0  0  0  0  0  0
   -1.2677   42.0596   50.0040 C   0  0  0  0  0  2  0  0  0  0  0  0
   -1.7473   40.8638   50.8584 C   0  0  0  0  0  2  0  0  0  0  0  0
  2  1  1  1
  2  4  2  0
  2  3  2  0
  5  2  1  0
  6  5  1  0
  6 15  2  0
  7  9  1  0
  8  7  1  0
  8 10  1  0
  9 11  2  0
  9 12  1  0
 10 13  2  0
 11  6  1  0
 12 14  2  0
 13 12  1  0
 14 15  1  0
 16  7  2  0
 17  1  1  0
 18 17  1  0
 19 18  1  0
 20 22  1  0
 20 19  1  0
 21 20  1  0
 21 22  1  0
M  RAD  8   1   3  10   2  11   2  14   2  15   2  17   3  19   3  20   2
M  RAD  2  21   3  22   3
M  END
>  <REMARK>  (1) 
 SMILES O=c1[nH]cnc2ccc(NS(=O)(=O)CCOCC3CC3)cc12
 SMILES IDX 14 1 11 2 12 3 13 4 10 5 9 7 2 8 3 9 22 10 4 11 21 12 6 13
 SMILES IDX 5 14 7 15 8 16 1 17 15 19 16 20 17 21 18 22 19 23 20 24
 H PARENT 10 6 3 18

>  <TORSDO>  (1) 
F 7

$$$$
