/home/pchatterjee/Documents/git/vs_workflow/DiffDock/diffdock_run/pdbqt_scrubbed/Z3071600379.pdbqt
     RDKit          3D

 22 24  0  0  0  0  0  0  0  0999 V2000
    3.9557   42.0498   50.5034 C   0  0  0  0  0  2  0  0  0  0  0  0
    3.7242   43.7516   50.9074 S   0  0  2  0  0  0  0  0  0  0  0  0
    2.2536   44.0898   51.0470 O   0  0  0  0  0  0  0  0  0  0  0  0
    4.2109   44.6044   49.7548 O   0  0  0  0  0  0  0  0  0  0  0  0
    4.5170   44.1648   52.3841 N   0  0  0  0  0  0  0  0  0  0  0  0
    5.7071   44.9115   52.4284 C   0  0  0  0  0  0  0  0  0  0  0  0
    9.1105   44.9997   50.9998 C   0  0  0  0  0  0  0  0  0  0  0  0
   10.1947   45.7986   51.1303 N   0  0  0  0  0  0  0  0  0  0  0  0
    7.9891   45.3495   51.7583 C   0  0  0  0  0  0  0  0  0  0  0  0
   10.2136   46.8747   51.9395 C   0  0  0  0  0  3  0  0  0  0  0  0
    6.8424   44.5896   51.6849 C   0  0  0  0  0  3  0  0  0  0  0  0
    8.0261   46.4547   52.5817 C   0  0  0  0  0  0  0  0  0  0  0  0
    9.1438   47.2249   52.6757 N   0  0  0  0  0  0  0  0  0  0  0  0
    6.9189   46.7654   53.3043 C   0  0  0  0  0  3  0  0  0  0  0  0
    5.7474   46.0181   53.2514 C   0  0  0  0  0  3  0  0  0  0  0  0
    9.1127   44.0056   50.2436 O   0  0  0  0  0  0  0  0  0  0  0  0
    5.0136   41.8966   49.4235 C   0  0  0  0  0  2  0  0  0  0  0  0
    4.7800   40.7526   48.6508 O   0  0  0  0  0  0  0  0  0  0  0  0
    5.0933   41.0124   47.3377 C   0  0  0  0  0  2  0  0  0  0  0  0
    4.2632   40.2800   46.3269 C   0  0  0  0  0  3  0  0  0  0  0  0
    4.5280   40.8042   44.8841 C   0  0  0  0  0  2  0  0  0  0  0  0
    3.1571   40.9084   45.5911 C   0  0  0  0  0  2  0  0  0  0  0  0
  2  1  1  6
  2  4  2  0
  2  3  2  0
  5  2  1  0
  6  5  1  0
  6 15  2  0
  7  9  1  0
  8  7  1  0
  8 10  1  0
  9 11  2  0
  9 12  1  0
 10 13  2  0
 11  6  1  0
 12 14  2  0
 13 12  1  0
 14 15  1  0
 16  7  2  0
 17  1  1  0
 18 17  1  0
 19 18  1  0
 20 22  1  0
 20 19  1  0
 21 20  1  0
 21 22  1  0
M  RAD  8   1   3  10   2  11   2  14   2  15   2  17   3  19   3  20   2
M  RAD  2  21   3  22   3
M  END
>  <REMARK>  (1) 
 SMILES O=c1[nH]cnc2ccc(NS(=O)(=O)CCOCC3CC3)cc12
 SMILES IDX 14 1 11 2 12 3 13 4 10 5 9 7 2 8 3 9 22 10 4 11 21 12 6 13
 SMILES IDX 5 14 7 15 8 16 1 17 15 19 16 20 17 21 18 22 19 23 20 24
 H PARENT 10 6 3 18

>  <TORSDO>  (1) 
F 7

$$$$
