/home/pchatterjee/Documents/git/vs_workflow/DiffDock/diffdock_run/pdbqt_scrubbed/Z3071600379.pdbqt
     RDKit          3D

 22 24  0  0  0  0  0  0  0  0999 V2000
    2.8764   42.0490   50.1903 C   0  0  0  0  0  2  0  0  0  0  0  0
    4.3240   41.3823   49.4331 S   0  0  2  0  0  0  0  0  0  0  0  0
    3.9696   40.4477   48.2941 O   0  0  0  0  0  0  0  0  0  0  0  0
    5.0516   40.5129   50.4367 O   0  0  0  0  0  0  0  0  0  0  0  0
    5.3446   42.6288   48.8127 N   0  0  0  0  0  0  0  0  0  0  0  0
    6.0560   43.5149   49.6400 C   0  0  0  0  0  0  0  0  0  0  0  0
    9.4465   44.8813   50.1596 C   0  0  0  0  0  0  0  0  0  0  0  0
   10.0161   45.7562   51.0203 N   0  0  0  0  0  0  0  0  0  0  0  0
    8.0786   44.6472   50.3300 C   0  0  0  0  0  0  0  0  0  0  0  0
    9.3226   46.3774   51.9931 C   0  0  0  0  0  3  0  0  0  0  0  0
    7.4198   43.7703   49.4965 C   0  0  0  0  0  3  0  0  0  0  0  0
    7.3841   45.2919   51.3315 C   0  0  0  0  0  0  0  0  0  0  0  0
    8.0067   46.1634   52.1706 N   0  0  0  0  0  0  0  0  0  0  0  0
    6.0564   45.0410   51.4685 C   0  0  0  0  0  3  0  0  0  0  0  0
    5.3641   44.1617   50.6431 C   0  0  0  0  0  3  0  0  0  0  0  0
   10.1070   44.3151   49.2634 O   0  0  0  0  0  0  0  0  0  0  0  0
    3.0990   42.2540   51.6793 C   0  0  0  0  0  2  0  0  0  0  0  0
    1.9621   42.8015   52.2859 O   0  0  0  0  0  0  0  0  0  0  0  0
    2.3373   43.8126   53.1384 C   0  0  0  0  0  2  0  0  0  0  0  0
    1.8283   45.1750   52.7753 C   0  0  0  0  0  3  0  0  0  0  0  0
    2.5437   45.7320   51.5086 C   0  0  0  0  0  2  0  0  0  0  0  0
    2.6393   46.3940   52.9025 C   0  0  0  0  0  2  0  0  0  0  0  0
  2  1  1  1
  2  4  2  0
  2  3  2  0
  5  2  1  0
  6  5  1  0
  6 15  2  0
  7  9  1  0
  8  7  1  0
  8 10  1  0
  9 11  2  0
  9 12  1  0
 10 13  2  0
 11  6  1  0
 12 14  2  0
 13 12  1  0
 14 15  1  0
 16  7  2  0
 17  1  1  0
 18 17  1  0
 19 18  1  0
 20 22  1  0
 20 19  1  0
 21 20  1  0
 21 22  1  0
M  RAD  8   1   3  10   2  11   2  14   2  15   2  17   3  19   3  20   2
M  RAD  2  21   3  22   3
M  END
>  <REMARK>  (1) 
 SMILES O=c1[nH]cnc2ccc(NS(=O)(=O)CCOCC3CC3)cc12
 SMILES IDX 14 1 11 2 12 3 13 4 10 5 9 7 2 8 3 9 22 10 4 11 21 12 6 13
 SMILES IDX 5 14 7 15 8 16 1 17 15 19 16 20 17 21 18 22 19 23 20 24
 H PARENT 10 6 3 18

>  <TORSDO>  (1) 
F 7

$$$$
