/home/pchatterjee/Documents/git/vs_workflow/DiffDock/diffdock_run/pdbqt_scrubbed/Z3071600379.pdbqt
     RDKit          3D

 22 24  0  0  0  0  0  0  0  0999 V2000
    2.9172   43.5277   53.0137 C   0  0  0  0  0  2  0  0  0  0  0  0
    3.0995   45.2794   52.9069 S   0  0  2  0  0  0  0  0  0  0  0  0
    3.8704   45.8265   54.0913 O   0  0  0  0  0  0  0  0  0  0  0  0
    1.7334   45.9255   53.0010 O   0  0  0  0  0  0  0  0  0  0  0  0
    3.9248   45.7428   51.4633 N   0  0  0  0  0  0  0  0  0  0  0  0
    5.2504   45.3653   51.1874 C   0  0  0  0  0  0  0  0  0  0  0  0
    8.7263   46.1011   52.1918 C   0  0  0  0  0  0  0  0  0  0  0  0
    9.9522   45.6520   51.8364 N   0  0  0  0  0  0  0  0  0  0  0  0
    7.6394   45.5228   51.5290 C   0  0  0  0  0  0  0  0  0  0  0  0
   10.1371   44.7024   50.8998 C   0  0  0  0  0  3  0  0  0  0  0  0
    6.3559   45.9223   51.8302 C   0  0  0  0  0  3  0  0  0  0  0  0
    7.8470   44.5517   50.5726 C   0  0  0  0  0  0  0  0  0  0  0  0
    9.1027   44.1361   50.2531 N   0  0  0  0  0  0  0  0  0  0  0  0
    6.7685   44.0114   49.9486 C   0  0  0  0  0  3  0  0  0  0  0  0
    5.4617   44.3938   50.2309 C   0  0  0  0  0  3  0  0  0  0  0  0
    8.5756   46.9830   53.0632 O   0  0  0  0  0  0  0  0  0  0  0  0
    1.8373   43.0442   52.0603 C   0  0  0  0  0  2  0  0  0  0  0  0
    2.2374   41.8764   51.3997 O   0  0  0  0  0  0  0  0  0  0  0  0
    1.5113   41.7313   50.2414 C   0  0  0  0  0  2  0  0  0  0  0  0
    2.1281   40.8353   49.2099 C   0  0  0  0  0  3  0  0  0  0  0  0
    3.2336   39.9293   49.8294 C   0  0  0  0  0  2  0  0  0  0  0  0
    3.5117   40.9891   48.7387 C   0  0  0  0  0  2  0  0  0  0  0  0
  2  1  1  1
  2  4  2  0
  2  3  2  0
  5  2  1  0
  6  5  1  0
  6 15  2  0
  7  9  1  0
  8  7  1  0
  8 10  1  0
  9 11  2  0
  9 12  1  0
 10 13  2  0
 11  6  1  0
 12 14  2  0
 13 12  1  0
 14 15  1  0
 16  7  2  0
 17  1  1  0
 18 17  1  0
 19 18  1  0
 20 22  1  0
 20 19  1  0
 21 20  1  0
 21 22  1  0
M  RAD  8   1   3  10   2  11   2  14   2  15   2  17   3  19   3  20   2
M  RAD  2  21   3  22   3
M  END
>  <REMARK>  (1) 
 SMILES O=c1[nH]cnc2ccc(NS(=O)(=O)CCOCC3CC3)cc12
 SMILES IDX 14 1 11 2 12 3 13 4 10 5 9 7 2 8 3 9 22 10 4 11 21 12 6 13
 SMILES IDX 5 14 7 15 8 16 1 17 15 19 16 20 17 21 18 22 19 23 20 24
 H PARENT 10 6 3 18

>  <TORSDO>  (1) 
F 7

$$$$
