/home/pchatterjee/Documents/git/vs_workflow/DiffDock/diffdock_run/pdbqt_scrubbed/Z3071600379.pdbqt
     RDKit          3D

 22 24  0  0  0  0  0  0  0  0999 V2000
    2.7759   41.7675   50.2019 C   0  0  0  0  0  2  0  0  0  0  0  0
    4.2508   41.3108   49.3480 S   0  0  2  0  0  0  0  0  0  0  0  0
    4.4959   42.2087   48.1521 O   0  0  0  0  0  0  0  0  0  0  0  0
    4.0751   39.9251   48.7635 O   0  0  0  0  0  0  0  0  0  0  0  0
    5.6317   41.3958   50.3804 N   0  0  0  0  0  0  0  0  0  0  0  0
    6.2533   42.6084   50.7252 C   0  0  0  0  0  0  0  0  0  0  0  0
    9.3997   44.4771   50.2354 C   0  0  0  0  0  0  0  0  0  0  0  0
    9.8866   45.6746   50.6351 N   0  0  0  0  0  0  0  0  0  0  0  0
    8.1098   44.1574   50.6699 C   0  0  0  0  0  0  0  0  0  0  0  0
    9.1849   46.5252   51.4079 C   0  0  0  0  0  3  0  0  0  0  0  0
    7.5379   42.9573   50.3085 C   0  0  0  0  0  3  0  0  0  0  0  0
    7.4056   45.0403   51.4608 C   0  0  0  0  0  0  0  0  0  0  0  0
    7.9433   46.2330   51.8343 N   0  0  0  0  0  0  0  0  0  0  0  0
    6.1551   44.6975   51.8648 C   0  0  0  0  0  3  0  0  0  0  0  0
    5.5513   43.4942   51.5166 C   0  0  0  0  0  3  0  0  0  0  0  0
   10.0665   43.7017   49.5183 O   0  0  0  0  0  0  0  0  0  0  0  0
    2.7039   43.2754   50.3742 C   0  0  0  0  0  2  0  0  0  0  0  0
    1.6638   43.6324   51.2408 O   0  0  0  0  0  0  0  0  0  0  0  0
    2.1858   44.0073   52.4561 C   0  0  0  0  0  2  0  0  0  0  0  0
    1.8861   45.4161   52.8717 C   0  0  0  0  0  3  0  0  0  0  0  0
    2.5968   46.4472   51.9453 C   0  0  0  0  0  2  0  0  0  0  0  0
    2.8945   46.3112   53.4562 C   0  0  0  0  0  2  0  0  0  0  0  0
  2  1  1  1
  2  4  2  0
  2  3  2  0
  5  2  1  0
  6  5  1  0
  6 15  2  0
  7  9  1  0
  8  7  1  0
  8 10  1  0
  9 11  2  0
  9 12  1  0
 10 13  2  0
 11  6  1  0
 12 14  2  0
 13 12  1  0
 14 15  1  0
 16  7  2  0
 17  1  1  0
 18 17  1  0
 19 18  1  0
 20 22  1  0
 20 19  1  0
 21 20  1  0
 21 22  1  0
M  RAD  8   1   3  10   2  11   2  14   2  15   2  17   3  19   3  20   2
M  RAD  2  21   3  22   3
M  END
>  <REMARK>  (1) 
 SMILES O=c1[nH]cnc2ccc(NS(=O)(=O)CCOCC3CC3)cc12
 SMILES IDX 14 1 11 2 12 3 13 4 10 5 9 7 2 8 3 9 22 10 4 11 21 12 6 13
 SMILES IDX 5 14 7 15 8 16 1 17 15 19 16 20 17 21 18 22 19 23 20 24
 H PARENT 10 6 3 18

>  <TORSDO>  (1) 
F 7

$$$$
