/home/pchatterjee/Documents/git/vs_workflow/DiffDock/diffdock_run/pdbqt_scrubbed/Z3071600379.pdbqt
     RDKit          3D

 22 24  0  0  0  0  0  0  0  0999 V2000
    2.0828   44.4232   51.4185 C   0  0  0  0  0  2  0  0  0  0  0  0
    3.1188   45.3465   52.5083 S   0  0  2  0  0  0  0  0  0  0  0  0
    3.7833   44.4470   53.5310 O   0  0  0  0  0  0  0  0  0  0  0  0
    2.2617   46.2928   53.3223 O   0  0  0  0  0  0  0  0  0  0  0  0
    4.3536   46.1889   51.6450 N   0  0  0  0  0  0  0  0  0  0  0  0
    5.5669   45.5877   51.2678 C   0  0  0  0  0  0  0  0  0  0  0  0
    9.1941   45.7450   51.9395 C   0  0  0  0  0  0  0  0  0  0  0  0
   10.2903   45.0885   51.4944 N   0  0  0  0  0  0  0  0  0  0  0  0
    7.9699   45.3459   51.3943 C   0  0  0  0  0  0  0  0  0  0  0  0
   10.2277   44.1034   50.5785 C   0  0  0  0  0  3  0  0  0  0  0  0
    6.8039   45.9623   51.7923 C   0  0  0  0  0  3  0  0  0  0  0  0
    7.9244   44.3354   50.4575 C   0  0  0  0  0  0  0  0  0  0  0  0
    9.0586   43.7076   50.0443 N   0  0  0  0  0  0  0  0  0  0  0  0
    6.7184   43.9731   49.9488 C   0  0  0  0  0  3  0  0  0  0  0  0
    5.5249   44.5762   50.3306 C   0  0  0  0  0  3  0  0  0  0  0  0
    9.2729   46.6563   52.7898 O   0  0  0  0  0  0  0  0  0  0  0  0
    1.0235   43.6665   52.2021 C   0  0  0  0  0  2  0  0  0  0  0  0
   -0.2380   43.8155   51.6135 O   0  0  0  0  0  0  0  0  0  0  0  0
   -0.5815   42.6549   50.9616 C   0  0  0  0  0  2  0  0  0  0  0  0
   -1.7962   42.7494   50.0883 C   0  0  0  0  0  3  0  0  0  0  0  0
   -2.7641   43.8679   50.5770 C   0  0  0  0  0  2  0  0  0  0  0  0
   -3.1413   42.3690   50.5420 C   0  0  0  0  0  2  0  0  0  0  0  0
  2  1  1  6
  2  4  2  0
  2  3  2  0
  5  2  1  0
  6  5  1  0
  6 15  2  0
  7  9  1  0
  8  7  1  0
  8 10  1  0
  9 11  2  0
  9 12  1  0
 10 13  2  0
 11  6  1  0
 12 14  2  0
 13 12  1  0
 14 15  1  0
 16  7  2  0
 17  1  1  0
 18 17  1  0
 19 18  1  0
 20 22  1  0
 20 19  1  0
 21 20  1  0
 21 22  1  0
M  RAD  8   1   3  10   2  11   2  14   2  15   2  17   3  19   3  20   2
M  RAD  2  21   3  22   3
M  END
>  <REMARK>  (1) 
 SMILES O=c1[nH]cnc2ccc(NS(=O)(=O)CCOCC3CC3)cc12
 SMILES IDX 14 1 11 2 12 3 13 4 10 5 9 7 2 8 3 9 22 10 4 11 21 12 6 13
 SMILES IDX 5 14 7 15 8 16 1 17 15 19 16 20 17 21 18 22 19 23 20 24
 H PARENT 10 6 3 18

>  <TORSDO>  (1) 
F 7

$$$$
