/home/pchatterjee/Documents/git/vs_workflow/DiffDock/diffdock_run/pdbqt_scrubbed/Z3071600379.pdbqt
     RDKit          3D

 22 24  0  0  0  0  0  0  0  0999 V2000
    9.9773   83.6124   73.3426 C   0  0  0  0  0  2  0  0  0  0  0  0
   10.2508   83.9005   71.6234 S   0  0  2  0  0  0  0  0  0  0  0  0
   10.8688   85.2633   71.3843 O   0  0  0  0  0  0  0  0  0  0  0  0
    8.9154   83.9494   70.9115 O   0  0  0  0  0  0  0  0  0  0  0  0
   11.2932   82.7062   70.9398 N   0  0  0  0  0  0  0  0  0  0  0  0
   12.6947   82.8092   70.9699 C   0  0  0  0  0  0  0  0  0  0  0  0
   15.3936   85.2219   71.6957 C   0  0  0  0  0  0  0  0  0  0  0  0
   16.7464   85.1929   71.6859 N   0  0  0  0  0  0  0  0  0  0  0  0
   14.7467   84.0350   71.3381 C   0  0  0  0  0  0  0  0  0  0  0  0
   17.4492   84.0935   71.3538 C   0  0  0  0  0  3  0  0  0  0  0  0
   13.3704   83.9776   71.3218 C   0  0  0  0  0  3  0  0  0  0  0  0
   15.4821   82.9187   71.0008 C   0  0  0  0  0  0  0  0  0  0  0  0
   16.8425   82.9441   71.0075 N   0  0  0  0  0  0  0  0  0  0  0  0
   14.8212   81.7827   70.6586 C   0  0  0  0  0  3  0  0  0  0  0  0
   13.4337   81.6940   70.6329 C   0  0  0  0  0  3  0  0  0  0  0  0
   14.7597   86.2520   72.0069 O   0  0  0  0  0  0  0  0  0  0  0  0
    9.3599   82.2416   73.5627 C   0  0  0  0  0  2  0  0  0  0  0  0
    8.5979   82.2172   74.7369 O   0  0  0  0  0  0  0  0  0  0  0  0
    9.2276   81.4375   75.6779 C   0  0  0  0  0  2  0  0  0  0  0  0
    8.7453   80.0203   75.7581 C   0  0  0  0  0  3  0  0  0  0  0  0
    7.2772   79.9460   76.2737 C   0  0  0  0  0  2  0  0  0  0  0  0
    8.4789   79.3350   77.0306 C   0  0  0  0  0  2  0  0  0  0  0  0
  2  1  1  1
  2  4  2  0
  2  3  2  0
  5  2  1  0
  6  5  1  0
  6 15  2  0
  7  9  1  0
  8  7  1  0
  8 10  1  0
  9 11  2  0
  9 12  1  0
 10 13  2  0
 11  6  1  0
 12 14  2  0
 13 12  1  0
 14 15  1  0
 16  7  2  0
 17  1  1  0
 18 17  1  0
 19 18  1  0
 20 22  1  0
 20 19  1  0
 21 20  1  0
 21 22  1  0
M  RAD  8   1   3  10   2  11   2  14   2  15   2  17   3  19   3  20   2
M  RAD  2  21   3  22   3
M  END
>  <REMARK>  (1) 
 SMILES O=c1[nH]cnc2ccc(NS(=O)(=O)CCOCC3CC3)cc12
 SMILES IDX 14 1 11 2 12 3 13 4 10 5 9 7 2 8 3 9 22 10 4 11 21 12 6 13
 SMILES IDX 5 14 7 15 8 16 1 17 15 19 16 20 17 21 18 22 19 23 20 24
 H PARENT 10 6 3 18

>  <TORSDO>  (1) 
F 7

$$$$
