/home/pchatterjee/Documents/git/vs_workflow/DiffDock/diffdock_run/pdbqt_scrubbed/Z1368316620.pdbqt
     RDKit          3D

 28 31  0  0  1  0  0  0  0  0999 V2000
    8.8928   46.5888   52.1906 N   0  0  0  0  0  0  0  0  0  0  0  0
    7.5195   46.8980   52.2317 C   0  0  0  0  0  0  0  0  0  0  0  0
    6.8410   46.5802   51.2149 O   0  0  0  0  0  0  0  0  0  0  0  0
    9.4539   45.9888   51.0034 C   0  0  0  0  0  3  0  0  0  0  0  0
   10.9265   45.7670   51.0534 C   0  0  0  0  0  1  0  0  0  0  0  0
    8.7004   44.8170   50.5104 C   0  0  0  0  0  0  0  0  0  0  0  0
    7.8031   44.0587   51.1878 N   0  0  0  0  0  0  0  0  0  0  0  0
    8.7982   44.3274   49.3009 O   0  0  0  0  0  0  0  0  0  0  0  0
    7.3775   43.1043   50.3286 C   0  0  0  0  0  0  0  0  0  0  0  0
    8.0127   43.2964   49.1651 N   0  0  0  0  0  0  0  0  0  0  0  0
    6.3728   42.0596   50.6986 C   0  0  0  0  0  2  0  0  0  0  0  0
    5.5374   41.6818   49.5219 C   0  0  0  0  0  0  0  0  0  0  0  0
    6.1069   41.3584   48.3019 C   0  0  0  0  0  3  0  0  0  0  0  0
    4.1732   41.6672   49.6974 C   0  0  0  0  0  3  0  0  0  0  0  0
    5.2479   41.0240   47.2801 C   0  0  0  0  0  3  0  0  0  0  0  0
    3.3446   41.3250   48.6435 C   0  0  0  0  0  3  0  0  0  0  0  0
    3.8719   40.9951   47.4080 C   0  0  0  0  0  3  0  0  0  0  0  0
    6.8172   47.5422   53.3161 C   0  0  0  0  0  0  0  0  0  0  0  0
    7.5439   48.4052   54.1175 C   0  0  0  0  0  3  0  0  0  0  0  0
    5.4932   47.3798   53.6282 C   0  0  0  0  0  0  0  0  0  0  0  0
    6.9742   49.0622   55.1679 C   0  0  0  0  0  3  0  0  0  0  0  0
    4.9080   48.0538   54.7073 C   0  0  0  0  0  3  0  0  0  0  0  0
    5.6517   48.9064   55.4903 C   0  0  0  0  0  3  0  0  0  0  0  0
    4.6588   46.5594   52.9098 O   0  0  0  0  0  0  0  0  0  0  0  0
    3.2420   46.5939   53.1843 C   0  0  0  0  0  2  0  0  0  0  0  0
    2.5315   45.6670   52.2485 C   0  0  0  0  0  3  0  0  0  0  0  0
    1.1456   45.2358   52.7020 C   0  0  0  0  0  2  0  0  0  0  0  0
    2.3146   44.2523   52.7991 C   0  0  0  0  0  2  0  0  0  0  0  0
  1  2  1  0
  2 18  1  0
  3  2  2  0
  4  5  1  0
  4  6  1  0
  4  1  1  0
  6  7  2  0
  7  9  1  0
  8  6  1  0
  8 10  1  0
  9 11  1  0
 10  9  2  0
 11 12  1  0
 12 13  2  0
 13 15  1  0
 14 12  1  0
 14 16  2  0
 16 17  1  0
 17 15  2  0
 18 20  1  0
 19 18  2  0
 19 21  1  0
 20 24  1  0
 20 22  2  0
 21 23  2  0
 23 22  1  0
 24 25  1  0
 25 26  1  0
 27 28  1  0
 27 26  1  0
 28 26  1  0
M  RAD  8   4   2   5   2  11   3  13   2  14   2  15   2  16   2  17   2
M  RAD  8  19   2  21   2  22   2  23   2  25   3  26   2  27   3  28   3
M  END
>  <REMARK>  (1) 
 SMILES CC(NC(=O)c1ccccc1OCC1CC1)c1nc(Cc2ccccc2)no1
 SMILES IDX 3 1 4 2 5 3 2 5 1 6 17 7 18 8 28 9 19 10 27 11 20 12 21 13
 SMILES IDX 22 14 26 15 23 16 25 17 24 18 6 19 7 20 11 21 8 22 10 23
 SMILES IDX 9 24 12 25 13 26 14 27 15 28 16 29
 H PARENT 3 4

>  <TORSDO>  (1) 
F 8

$$$$
