/home/pchatterjee/Documents/git/vs_workflow/DiffDock/diffdock_run/pdbqt_scrubbed/Z1368316620.pdbqt
     RDKit          3D

 28 31  0  0  1  0  0  0  0  0999 V2000
    9.6048   46.4929   52.0324 N   0  0  0  0  0  0  0  0  0  0  0  0
    8.3664   47.1289   52.2446 C   0  0  0  0  0  0  0  0  0  0  0  0
    7.5686   47.1470   51.2655 O   0  0  0  0  0  0  0  0  0  0  0  0
    9.8740   45.8605   50.7628 C   0  0  0  0  0  3  0  0  0  0  0  0
   11.2635   45.3463   50.6046 C   0  0  0  0  0  1  0  0  0  0  0  0
    8.8388   44.8926   50.3437 C   0  0  0  0  0  0  0  0  0  0  0  0
    7.7733   44.4518   51.0573 N   0  0  0  0  0  0  0  0  0  0  0  0
    8.8049   44.3014   49.1768 O   0  0  0  0  0  0  0  0  0  0  0  0
    7.1119   43.5782   50.2637 C   0  0  0  0  0  0  0  0  0  0  0  0
    7.7758   43.5053   49.1026 N   0  0  0  0  0  0  0  0  0  0  0  0
    5.8675   42.8660   50.6901 C   0  0  0  0  0  2  0  0  0  0  0  0
    5.3407   42.0067   49.5905 C   0  0  0  0  0  0  0  0  0  0  0  0
    5.9203   42.0014   48.3329 C   0  0  0  0  0  3  0  0  0  0  0  0
    4.2518   41.2163   49.8762 C   0  0  0  0  0  3  0  0  0  0  0  0
    5.3581   41.1728   47.3890 C   0  0  0  0  0  3  0  0  0  0  0  0
    3.7168   40.3970   48.8979 C   0  0  0  0  0  3  0  0  0  0  0  0
    4.2651   40.3612   47.6284 C   0  0  0  0  0  3  0  0  0  0  0  0
    7.9244   47.7610   53.4649 C   0  0  0  0  0  0  0  0  0  0  0  0
    8.8964   48.3144   54.2797 C   0  0  0  0  0  3  0  0  0  0  0  0
    6.6278   47.8659   53.8945 C   0  0  0  0  0  0  0  0  0  0  0  0
    8.5833   48.9331   55.4539 C   0  0  0  0  0  3  0  0  0  0  0  0
    6.3059   48.5006   55.1008 C   0  0  0  0  0  3  0  0  0  0  0  0
    7.2905   49.0426   55.8944 C   0  0  0  0  0  3  0  0  0  0  0  0
    5.5681   47.3668   53.1781 O   0  0  0  0  0  0  0  0  0  0  0  0
    4.2694   47.3065   53.8055 C   0  0  0  0  0  2  0  0  0  0  0  0
    3.2600   46.8201   52.8135 C   0  0  0  0  0  3  0  0  0  0  0  0
    2.3699   45.6898   53.3059 C   0  0  0  0  0  2  0  0  0  0  0  0
    3.4978   45.3892   52.3157 C   0  0  0  0  0  2  0  0  0  0  0  0
  1  2  1  0
  2 18  1  0
  3  2  2  0
  4  5  1  0
  4  6  1  0
  4  1  1  0
  6  7  2  0
  7  9  1  0
  8  6  1  0
  8 10  1  0
  9 11  1  0
 10  9  2  0
 11 12  1  0
 12 13  2  0
 13 15  1  0
 14 12  1  0
 14 16  2  0
 16 17  1  0
 17 15  2  0
 18 20  1  0
 19 18  2  0
 19 21  1  0
 20 24  1  0
 20 22  2  0
 21 23  2  0
 23 22  1  0
 24 25  1  0
 25 26  1  0
 27 28  1  0
 27 26  1  0
 28 26  1  0
M  RAD  8   4   2   5   2  11   3  13   2  14   2  15   2  16   2  17   2
M  RAD  8  19   2  21   2  22   2  23   2  25   3  26   2  27   3  28   3
M  END
>  <REMARK>  (1) 
 SMILES CC(NC(=O)c1ccccc1OCC1CC1)c1nc(Cc2ccccc2)no1
 SMILES IDX 3 1 4 2 5 3 2 5 1 6 17 7 18 8 28 9 19 10 27 11 20 12 21 13
 SMILES IDX 22 14 26 15 23 16 25 17 24 18 6 19 7 20 11 21 8 22 10 23
 SMILES IDX 9 24 12 25 13 26 14 27 15 28 16 29
 H PARENT 3 4

>  <TORSDO>  (1) 
F 8

$$$$
