/home/pchatterjee/Documents/git/vs_workflow/DiffDock/diffdock_run/pdbqt_scrubbed/Z1368316620.pdbqt
     RDKit          3D

 28 31  0  0  1  0  0  0  0  0999 V2000
    8.1634   45.6799   52.1501 N   0  0  0  0  0  0  0  0  0  0  0  0
    6.8847   46.2683   52.1944 C   0  0  0  0  0  0  0  0  0  0  0  0
    6.3906   46.6235   51.0876 O   0  0  0  0  0  0  0  0  0  0  0  0
    8.7615   45.3680   50.8737 C   0  0  0  0  0  3  0  0  0  0  0  0
   10.2515   45.3693   50.8664 C   0  0  0  0  0  1  0  0  0  0  0  0
    8.1725   44.1872   50.2082 C   0  0  0  0  0  0  0  0  0  0  0  0
    7.2433   43.3310   50.7005 N   0  0  0  0  0  0  0  0  0  0  0  0
    8.4785   43.7867   49.0007 O   0  0  0  0  0  0  0  0  0  0  0  0
    7.0153   42.4116   49.7346 C   0  0  0  0  0  0  0  0  0  0  0  0
    7.7963   42.7202   48.6912 N   0  0  0  0  0  0  0  0  0  0  0  0
    6.0448   41.2840   49.8911 C   0  0  0  0  0  2  0  0  0  0  0  0
    5.0649   41.2630   48.7666 C   0  0  0  0  0  0  0  0  0  0  0  0
    5.4414   40.9049   47.4830 C   0  0  0  0  0  3  0  0  0  0  0  0
    3.7671   41.6148   49.0562 C   0  0  0  0  0  3  0  0  0  0  0  0
    4.4609   40.9180   46.5175 C   0  0  0  0  0  3  0  0  0  0  0  0
    2.8114   41.6148   48.0557 C   0  0  0  0  0  3  0  0  0  0  0  0
    3.1447   41.2638   46.7598 C   0  0  0  0  0  3  0  0  0  0  0  0
    6.0901   46.5061   53.3760 C   0  0  0  0  0  0  0  0  0  0  0  0
    4.8202   45.9571   53.4065 C   0  0  0  0  0  3  0  0  0  0  0  0
    6.4761   47.2265   54.4754 C   0  0  0  0  0  0  0  0  0  0  0  0
    3.9903   46.1242   54.4756 C   0  0  0  0  0  3  0  0  0  0  0  0
    5.6237   47.3989   55.5733 C   0  0  0  0  0  3  0  0  0  0  0  0
    4.3648   46.8438   55.5797 C   0  0  0  0  0  3  0  0  0  0  0  0
    7.7116   47.8169   54.5769 O   0  0  0  0  0  0  0  0  0  0  0  0
    8.0333   48.5586   55.7729 C   0  0  0  0  0  2  0  0  0  0  0  0
    9.4812   48.9363   55.7494 C   0  0  0  0  0  3  0  0  0  0  0  0
    9.7587   50.4238   55.8997 C   0  0  0  0  0  2  0  0  0  0  0  0
    9.9023   49.7614   54.5272 C   0  0  0  0  0  2  0  0  0  0  0  0
  1  2  1  0
  2 18  1  0
  3  2  2  0
  4  5  1  0
  4  6  1  0
  4  1  1  0
  6  7  2  0
  7  9  1  0
  8  6  1  0
  8 10  1  0
  9 11  1  0
 10  9  2  0
 11 12  1  0
 12 13  2  0
 13 15  1  0
 14 12  1  0
 14 16  2  0
 16 17  1  0
 17 15  2  0
 18 20  1  0
 19 18  2  0
 19 21  1  0
 20 24  1  0
 20 22  2  0
 21 23  2  0
 23 22  1  0
 24 25  1  0
 25 26  1  0
 27 28  1  0
 27 26  1  0
 28 26  1  0
M  RAD  8   4   2   5   2  11   3  13   2  14   2  15   2  16   2  17   2
M  RAD  8  19   2  21   2  22   2  23   2  25   3  26   2  27   3  28   3
M  END
>  <REMARK>  (1) 
 SMILES CC(NC(=O)c1ccccc1OCC1CC1)c1nc(Cc2ccccc2)no1
 SMILES IDX 3 1 4 2 5 3 2 5 1 6 17 7 18 8 28 9 19 10 27 11 20 12 21 13
 SMILES IDX 22 14 26 15 23 16 25 17 24 18 6 19 7 20 11 21 8 22 10 23
 SMILES IDX 9 24 12 25 13 26 14 27 15 28 16 29
 H PARENT 3 4

>  <TORSDO>  (1) 
F 8

$$$$
