/home/pchatterjee/Documents/git/vs_workflow/DiffDock/diffdock_run/pdbqt_scrubbed/Z1368316620.pdbqt
     RDKit          3D

 28 31  0  0  1  0  0  0  0  0999 V2000
    9.2275   46.6253   52.0289 N   0  0  0  0  0  0  0  0  0  0  0  0
    7.8607   46.9130   52.2088 C   0  0  0  0  0  0  0  0  0  0  0  0
    7.0807   46.5342   51.2905 O   0  0  0  0  0  0  0  0  0  0  0  0
    9.6525   45.8764   50.8700 C   0  0  0  0  0  3  0  0  0  0  0  0
   11.0513   45.3672   50.9355 C   0  0  0  0  0  1  0  0  0  0  0  0
    8.6780   44.8592   50.4231 C   0  0  0  0  0  0  0  0  0  0  0  0
    7.7375   44.2242   51.1654 N   0  0  0  0  0  0  0  0  0  0  0  0
    8.5831   44.4109   49.1974 O   0  0  0  0  0  0  0  0  0  0  0  0
    7.0862   43.3851   50.3276 C   0  0  0  0  0  0  0  0  0  0  0  0
    7.6330   43.5229   49.1127 N   0  0  0  0  0  0  0  0  0  0  0  0
    5.9655   42.4971   50.7672 C   0  0  0  0  0  2  0  0  0  0  0  0
    5.3000   41.8574   49.5954 C   0  0  0  0  0  0  0  0  0  0  0  0
    5.8578   41.9055   48.3289 C   0  0  0  0  0  3  0  0  0  0  0  0
    4.1052   41.2152   49.8235 C   0  0  0  0  0  3  0  0  0  0  0  0
    5.1638   41.2839   47.3162 C   0  0  0  0  0  3  0  0  0  0  0  0
    3.4392   40.6024   48.7769 C   0  0  0  0  0  3  0  0  0  0  0  0
    3.9612   40.6266   47.4961 C   0  0  0  0  0  3  0  0  0  0  0  0
    7.2689   47.5977   53.3336 C   0  0  0  0  0  0  0  0  0  0  0  0
    8.0560   48.5217   53.9983 C   0  0  0  0  0  3  0  0  0  0  0  0
    5.9959   47.4192   53.8071 C   0  0  0  0  0  0  0  0  0  0  0  0
    7.5915   49.2208   55.0730 C   0  0  0  0  0  3  0  0  0  0  0  0
    5.5188   48.1365   54.9114 C   0  0  0  0  0  3  0  0  0  0  0  0
    6.3210   49.0494   55.5564 C   0  0  0  0  0  3  0  0  0  0  0  0
    5.1102   46.5396   53.2352 O   0  0  0  0  0  0  0  0  0  0  0  0
    3.7751   46.4447   53.7759 C   0  0  0  0  0  2  0  0  0  0  0  0
    2.9733   45.4839   52.9552 C   0  0  0  0  0  3  0  0  0  0  0  0
    1.8993   46.1217   52.0881 C   0  0  0  0  0  2  0  0  0  0  0  0
    1.4991   45.3765   53.3638 C   0  0  0  0  0  2  0  0  0  0  0  0
  1  2  1  0
  2 18  1  0
  3  2  2  0
  4  5  1  0
  4  6  1  0
  4  1  1  0
  6  7  2  0
  7  9  1  0
  8  6  1  0
  8 10  1  0
  9 11  1  0
 10  9  2  0
 11 12  1  0
 12 13  2  0
 13 15  1  0
 14 12  1  0
 14 16  2  0
 16 17  1  0
 17 15  2  0
 18 20  1  0
 19 18  2  0
 19 21  1  0
 20 24  1  0
 20 22  2  0
 21 23  2  0
 23 22  1  0
 24 25  1  0
 25 26  1  0
 27 28  1  0
 27 26  1  0
 28 26  1  0
M  RAD  8   4   2   5   2  11   3  13   2  14   2  15   2  16   2  17   2
M  RAD  8  19   2  21   2  22   2  23   2  25   3  26   2  27   3  28   3
M  END
>  <REMARK>  (1) 
 SMILES CC(NC(=O)c1ccccc1OCC1CC1)c1nc(Cc2ccccc2)no1
 SMILES IDX 3 1 4 2 5 3 2 5 1 6 17 7 18 8 28 9 19 10 27 11 20 12 21 13
 SMILES IDX 22 14 26 15 23 16 25 17 24 18 6 19 7 20 11 21 8 22 10 23
 SMILES IDX 9 24 12 25 13 26 14 27 15 28 16 29
 H PARENT 3 4

>  <TORSDO>  (1) 
F 8

$$$$
