/home/pchatterjee/Documents/git/vs_workflow/DiffDock/diffdock_run/pdbqt_scrubbed/Z1368316620.pdbqt
     RDKit          3D

 28 31  0  0  1  0  0  0  0  0999 V2000
    9.2774   46.4509   52.1885 N   0  0  0  0  0  0  0  0  0  0  0  0
    7.9643   46.9450   52.3102 C   0  0  0  0  0  0  0  0  0  0  0  0
    7.1919   46.7357   51.3330 O   0  0  0  0  0  0  0  0  0  0  0  0
    9.6935   45.8271   50.9548 C   0  0  0  0  0  3  0  0  0  0  0  0
   11.1261   45.4191   50.9148 C   0  0  0  0  0  1  0  0  0  0  0  0
    8.7709   44.7782   50.4724 C   0  0  0  0  0  0  0  0  0  0  0  0
    7.8114   44.1260   51.1744 N   0  0  0  0  0  0  0  0  0  0  0  0
    8.7506   44.3133   49.2494 O   0  0  0  0  0  0  0  0  0  0  0  0
    7.2265   43.2595   50.3157 C   0  0  0  0  0  0  0  0  0  0  0  0
    7.8305   43.3984   49.1283 N   0  0  0  0  0  0  0  0  0  0  0  0
    6.1094   42.3459   50.7096 C   0  0  0  0  0  2  0  0  0  0  0  0
    5.3462   41.8887   49.5122 C   0  0  0  0  0  0  0  0  0  0  0  0
    5.9679   41.6766   48.2933 C   0  0  0  0  0  3  0  0  0  0  0  0
    3.9947   41.6853   49.6675 C   0  0  0  0  0  3  0  0  0  0  0  0
    5.1736   41.2552   47.2515 C   0  0  0  0  0  3  0  0  0  0  0  0
    3.2319   41.2612   48.5939 C   0  0  0  0  0  3  0  0  0  0  0  0
    3.8128   41.0373   47.3586 C   0  0  0  0  0  3  0  0  0  0  0  0
    7.4198   47.6660   53.4362 C   0  0  0  0  0  0  0  0  0  0  0  0
    8.3104   48.3675   54.2299 C   0  0  0  0  0  3  0  0  0  0  0  0
    6.0989   47.7224   53.7949 C   0  0  0  0  0  0  0  0  0  0  0  0
    7.8976   49.0796   55.3171 C   0  0  0  0  0  3  0  0  0  0  0  0
    5.6747   48.4530   54.9119 C   0  0  0  0  0  3  0  0  0  0  0  0
    6.5796   49.1419   55.6863 C   0  0  0  0  0  3  0  0  0  0  0  0
    5.1123   47.0788   53.0893 O   0  0  0  0  0  0  0  0  0  0  0  0
    3.8072   46.9352   53.6892 C   0  0  0  0  0  2  0  0  0  0  0  0
    2.8759   46.2970   52.7069 C   0  0  0  0  0  3  0  0  0  0  0  0
    1.8653   45.3355   53.3123 C   0  0  0  0  0  2  0  0  0  0  0  0
    3.0672   44.7846   52.5410 C   0  0  0  0  0  2  0  0  0  0  0  0
  1  2  1  0
  2 18  1  0
  3  2  2  0
  4  5  1  0
  4  6  1  0
  4  1  1  0
  6  7  2  0
  7  9  1  0
  8  6  1  0
  8 10  1  0
  9 11  1  0
 10  9  2  0
 11 12  1  0
 12 13  2  0
 13 15  1  0
 14 12  1  0
 14 16  2  0
 16 17  1  0
 17 15  2  0
 18 20  1  0
 19 18  2  0
 19 21  1  0
 20 24  1  0
 20 22  2  0
 21 23  2  0
 23 22  1  0
 24 25  1  0
 25 26  1  0
 27 28  1  0
 27 26  1  0
 28 26  1  0
M  RAD  8   4   2   5   2  11   3  13   2  14   2  15   2  16   2  17   2
M  RAD  8  19   2  21   2  22   2  23   2  25   3  26   2  27   3  28   3
M  END
>  <REMARK>  (1) 
 SMILES CC(NC(=O)c1ccccc1OCC1CC1)c1nc(Cc2ccccc2)no1
 SMILES IDX 3 1 4 2 5 3 2 5 1 6 17 7 18 8 28 9 19 10 27 11 20 12 21 13
 SMILES IDX 22 14 26 15 23 16 25 17 24 18 6 19 7 20 11 21 8 22 10 23
 SMILES IDX 9 24 12 25 13 26 14 27 15 28 16 29
 H PARENT 3 4

>  <TORSDO>  (1) 
F 8

$$$$
