/home/pchatterjee/Documents/git/vs_workflow/DiffDock/diffdock_run/pdbqt_scrubbed/Z1368316620.pdbqt
     RDKit          3D

 28 31  0  0  1  0  0  0  0  0999 V2000
   11.4371   85.9896   69.0116 N   0  0  0  0  0  0  0  0  0  0  0  0
   11.7051   85.7134   70.3662 C   0  0  0  0  0  0  0  0  0  0  0  0
   12.8116   86.1245   70.8156 O   0  0  0  0  0  0  0  0  0  0  0  0
   12.4004   86.7277   68.2296 C   0  0  0  0  0  3  0  0  0  0  0  0
   12.2705   88.2095   68.3172 C   0  0  0  0  0  1  0  0  0  0  0  0
   13.7905   86.2504   68.3847 C   0  0  0  0  0  0  0  0  0  0  0  0
   14.2104   85.0309   68.8034 N   0  0  0  0  0  0  0  0  0  0  0  0
   14.8542   86.9682   68.1288 O   0  0  0  0  0  0  0  0  0  0  0  0
   15.5627   85.0604   68.7834 C   0  0  0  0  0  0  0  0  0  0  0  0
   15.9338   86.2758   68.3604 N   0  0  0  0  0  0  0  0  0  0  0  0
   16.4124   83.8949   69.1803 C   0  0  0  0  0  2  0  0  0  0  0  0
   17.8156   84.3240   69.4487 C   0  0  0  0  0  0  0  0  0  0  0  0
   18.5584   85.0088   68.5018 C   0  0  0  0  0  3  0  0  0  0  0  0
   18.3447   84.0112   70.6792 C   0  0  0  0  0  3  0  0  0  0  0  0
   19.8432   85.3590   68.8490 C   0  0  0  0  0  3  0  0  0  0  0  0
   19.6414   84.3821   70.9884 C   0  0  0  0  0  3  0  0  0  0  0  0
   20.4182   85.0673   70.0716 C   0  0  0  0  0  3  0  0  0  0  0  0
   10.8438   85.0072   71.2846 C   0  0  0  0  0  0  0  0  0  0  0  0
    9.5112   84.8807   70.9334 C   0  0  0  0  0  3  0  0  0  0  0  0
   11.2223   84.4472   72.4762 C   0  0  0  0  0  0  0  0  0  0  0  0
    8.6157   84.2328   71.7320 C   0  0  0  0  0  3  0  0  0  0  0  0
   10.3027   83.7824   73.2970 C   0  0  0  0  0  3  0  0  0  0  0  0
    8.9824   83.6704   72.9263 C   0  0  0  0  0  3  0  0  0  0  0  0
   12.5143   84.4944   72.9387 O   0  0  0  0  0  0  0  0  0  0  0  0
   12.8431   83.7984   74.1599 C   0  0  0  0  0  2  0  0  0  0  0  0
   14.3036   83.9574   74.4452 C   0  0  0  0  0  3  0  0  0  0  0  0
   15.2299   83.4402   73.3558 C   0  0  0  0  0  2  0  0  0  0  0  0
   15.0580   82.6378   74.6479 C   0  0  0  0  0  2  0  0  0  0  0  0
  1  2  1  0
  2 18  1  0
  3  2  2  0
  4  5  1  0
  4  6  1  0
  4  1  1  0
  6  7  2  0
  7  9  1  0
  8  6  1  0
  8 10  1  0
  9 11  1  0
 10  9  2  0
 11 12  1  0
 12 13  2  0
 13 15  1  0
 14 12  1  0
 14 16  2  0
 16 17  1  0
 17 15  2  0
 18 20  1  0
 19 18  2  0
 19 21  1  0
 20 24  1  0
 20 22  2  0
 21 23  2  0
 23 22  1  0
 24 25  1  0
 25 26  1  0
 27 28  1  0
 27 26  1  0
 28 26  1  0
M  RAD  8   4   2   5   2  11   3  13   2  14   2  15   2  16   2  17   2
M  RAD  8  19   2  21   2  22   2  23   2  25   3  26   2  27   3  28   3
M  END
>  <REMARK>  (1) 
 SMILES CC(NC(=O)c1ccccc1OCC1CC1)c1nc(Cc2ccccc2)no1
 SMILES IDX 3 1 4 2 5 3 2 5 1 6 17 7 18 8 28 9 19 10 27 11 20 12 21 13
 SMILES IDX 22 14 26 15 23 16 25 17 24 18 6 19 7 20 11 21 8 22 10 23
 SMILES IDX 9 24 12 25 13 26 14 27 15 28 16 29
 H PARENT 3 4

>  <TORSDO>  (1) 
F 8

$$$$
