/home/pchatterjee/Documents/git/vs_workflow/DiffDock/diffdock_run/pdbqt_scrubbed/Z1368316620.pdbqt
     RDKit          3D

 28 31  0  0  1  0  0  0  0  0999 V2000
    6.8399   42.9058   49.9271 N   0  0  0  0  0  0  0  0  0  0  0  0
    5.8576   43.5024   50.7409 C   0  0  0  0  0  0  0  0  0  0  0  0
    6.1651   44.6038   51.2775 O   0  0  0  0  0  0  0  0  0  0  0  0
    8.1189   43.5545   49.7603 C   0  0  0  0  0  3  0  0  0  0  0  0
    8.4526   43.9230   48.3556 C   0  0  0  0  0  1  0  0  0  0  0  0
    8.3696   44.6431   50.7279 C   0  0  0  0  0  0  0  0  0  0  0  0
    7.4971   45.1908   51.6097 N   0  0  0  0  0  0  0  0  0  0  0  0
    9.5166   45.2556   50.8746 O   0  0  0  0  0  0  0  0  0  0  0  0
    8.1766   46.1494   52.2803 C   0  0  0  0  0  0  0  0  0  0  0  0
    9.4277   46.1665   51.8024 N   0  0  0  0  0  0  0  0  0  0  0  0
    7.5594   46.9926   53.3508 C   0  0  0  0  0  2  0  0  0  0  0  0
    8.5830   47.8580   54.0053 C   0  0  0  0  0  0  0  0  0  0  0  0
    8.4921   49.2394   53.9742 C   0  0  0  0  0  3  0  0  0  0  0  0
    9.6252   47.2270   54.6438 C   0  0  0  0  0  3  0  0  0  0  0  0
    9.4881   49.9458   54.6086 C   0  0  0  0  0  3  0  0  0  0  0  0
   10.6065   47.9750   55.2698 C   0  0  0  0  0  3  0  0  0  0  0  0
   10.5542   49.3573   55.2627 C   0  0  0  0  0  3  0  0  0  0  0  0
    4.5421   42.9785   51.0218 C   0  0  0  0  0  0  0  0  0  0  0  0
    3.9273   43.4015   52.1872 C   0  0  0  0  0  3  0  0  0  0  0  0
    3.8411   42.0985   50.2403 C   0  0  0  0  0  0  0  0  0  0  0  0
    2.6858   42.9650   52.5443 C   0  0  0  0  0  3  0  0  0  0  0  0
    2.5663   41.6494   50.6071 C   0  0  0  0  0  3  0  0  0  0  0  0
    1.9760   42.0839   51.7715 C   0  0  0  0  0  3  0  0  0  0  0  0
    4.3323   41.6070   49.0560 O   0  0  0  0  0  0  0  0  0  0  0  0
    3.4010   41.1829   48.0378 C   0  0  0  0  0  2  0  0  0  0  0  0
    4.1584   40.7108   46.8365 C   0  0  0  0  0  3  0  0  0  0  0  0
    3.8607   41.4680   45.5520 C   0  0  0  0  0  2  0  0  0  0  0  0
    3.2891   40.0623   45.7524 C   0  0  0  0  0  2  0  0  0  0  0  0
  1  2  1  0
  2 18  1  0
  3  2  2  0
  4  5  1  0
  4  6  1  0
  4  1  1  0
  6  7  2  0
  7  9  1  0
  8  6  1  0
  8 10  1  0
  9 11  1  0
 10  9  2  0
 11 12  1  0
 12 13  2  0
 13 15  1  0
 14 12  1  0
 14 16  2  0
 16 17  1  0
 17 15  2  0
 18 20  1  0
 19 18  2  0
 19 21  1  0
 20 24  1  0
 20 22  2  0
 21 23  2  0
 23 22  1  0
 24 25  1  0
 25 26  1  0
 27 28  1  0
 27 26  1  0
 28 26  1  0
M  RAD  8   4   2   5   2  11   3  13   2  14   2  15   2  16   2  17   2
M  RAD  8  19   2  21   2  22   2  23   2  25   3  26   2  27   3  28   3
M  END
>  <REMARK>  (1) 
 SMILES CC(NC(=O)c1ccccc1OCC1CC1)c1nc(Cc2ccccc2)no1
 SMILES IDX 3 1 4 2 5 3 2 5 1 6 17 7 18 8 28 9 19 10 27 11 20 12 21 13
 SMILES IDX 22 14 26 15 23 16 25 17 24 18 6 19 7 20 11 21 8 22 10 23
 SMILES IDX 9 24 12 25 13 26 14 27 15 28 16 29
 H PARENT 3 4

>  <TORSDO>  (1) 
F 8

$$$$
