/home/pchatterjee/Documents/git/vs_workflow/DiffDock/diffdock_run/pdbqt_scrubbed/Z1368316620.pdbqt
     RDKit          3D

 28 31  0  0  1  0  0  0  0  0999 V2000
    8.3182   45.4038   52.3320 N   0  0  0  0  0  0  0  0  0  0  0  0
    7.2635   46.3351   52.3901 C   0  0  0  0  0  0  0  0  0  0  0  0
    7.2045   47.1772   51.4506 O   0  0  0  0  0  0  0  0  0  0  0  0
    8.9752   45.1475   51.0722 C   0  0  0  0  0  3  0  0  0  0  0  0
   10.4501   44.9569   51.1656 C   0  0  0  0  0  1  0  0  0  0  0  0
    8.3029   44.1260   50.2424 C   0  0  0  0  0  0  0  0  0  0  0  0
    7.3208   43.2671   50.6122 N   0  0  0  0  0  0  0  0  0  0  0  0
    8.5729   43.8986   48.9824 O   0  0  0  0  0  0  0  0  0  0  0  0
    7.0244   42.5261   49.5199 C   0  0  0  0  0  0  0  0  0  0  0  0
    7.8177   42.9407   48.5235 N   0  0  0  0  0  0  0  0  0  0  0  0
    5.9805   41.4546   49.5168 C   0  0  0  0  0  2  0  0  0  0  0  0
    5.2841   41.3915   48.1992 C   0  0  0  0  0  0  0  0  0  0  0  0
    5.9498   41.0176   47.0440 C   0  0  0  0  0  3  0  0  0  0  0  0
    3.9488   41.7207   48.1769 C   0  0  0  0  0  3  0  0  0  0  0  0
    5.2159   40.9914   45.8802 C   0  0  0  0  0  3  0  0  0  0  0  0
    3.2472   41.6815   46.9849 C   0  0  0  0  0  3  0  0  0  0  0  0
    3.8737   41.3134   45.8078 C   0  0  0  0  0  3  0  0  0  0  0  0
    6.2509   46.4217   53.4155 C   0  0  0  0  0  0  0  0  0  0  0  0
    5.2442   45.4724   53.3934 C   0  0  0  0  0  3  0  0  0  0  0  0
    6.1922   47.3584   54.4134 C   0  0  0  0  0  0  0  0  0  0  0  0
    4.2406   45.4674   54.3166 C   0  0  0  0  0  3  0  0  0  0  0  0
    5.1612   47.3540   55.3612 C   0  0  0  0  0  3  0  0  0  0  0  0
    4.1707   46.4000   55.3179 C   0  0  0  0  0  3  0  0  0  0  0  0
    7.1316   48.3501   54.5537 O   0  0  0  0  0  0  0  0  0  0  0  0
    7.9061   48.4091   55.7704 C   0  0  0  0  0  2  0  0  0  0  0  0
    8.9633   49.4598   55.6365 C   0  0  0  0  0  3  0  0  0  0  0  0
    9.9857   49.2049   54.5402 C   0  0  0  0  0  2  0  0  0  0  0  0
   10.3758   48.9897   56.0046 C   0  0  0  0  0  2  0  0  0  0  0  0
  1  2  1  0
  2 18  1  0
  3  2  2  0
  4  5  1  0
  4  6  1  0
  4  1  1  0
  6  7  2  0
  7  9  1  0
  8  6  1  0
  8 10  1  0
  9 11  1  0
 10  9  2  0
 11 12  1  0
 12 13  2  0
 13 15  1  0
 14 12  1  0
 14 16  2  0
 16 17  1  0
 17 15  2  0
 18 20  1  0
 19 18  2  0
 19 21  1  0
 20 24  1  0
 20 22  2  0
 21 23  2  0
 23 22  1  0
 24 25  1  0
 25 26  1  0
 27 28  1  0
 27 26  1  0
 28 26  1  0
M  RAD  8   4   2   5   2  11   3  13   2  14   2  15   2  16   2  17   2
M  RAD  8  19   2  21   2  22   2  23   2  25   3  26   2  27   3  28   3
M  END
>  <REMARK>  (1) 
 SMILES CC(NC(=O)c1ccccc1OCC1CC1)c1nc(Cc2ccccc2)no1
 SMILES IDX 3 1 4 2 5 3 2 5 1 6 17 7 18 8 28 9 19 10 27 11 20 12 21 13
 SMILES IDX 22 14 26 15 23 16 25 17 24 18 6 19 7 20 11 21 8 22 10 23
 SMILES IDX 9 24 12 25 13 26 14 27 15 28 16 29
 H PARENT 3 4

>  <TORSDO>  (1) 
F 8

$$$$
