/home/pchatterjee/Documents/git/vs_workflow/DiffDock/diffdock_run/pdbqt_scrubbed/Z1368316620.pdbqt
     RDKit          3D

 28 31  0  0  1  0  0  0  0  0999 V2000
   14.6406   86.7985   67.8500 N   0  0  0  0  0  0  0  0  0  0  0  0
   15.7001   86.4660   68.7160 C   0  0  0  0  0  0  0  0  0  0  0  0
   15.6001   86.8710   69.9082 O   0  0  0  0  0  0  0  0  0  0  0  0
   13.4008   87.2960   68.3974 C   0  0  0  0  0  3  0  0  0  0  0  0
   12.4450   87.8334   67.3885 C   0  0  0  0  0  1  0  0  0  0  0  0
   12.7703   86.3865   69.3769 C   0  0  0  0  0  0  0  0  0  0  0  0
   13.3463   85.3613   70.0523 N   0  0  0  0  0  0  0  0  0  0  0  0
   11.5159   86.4464   69.7444 O   0  0  0  0  0  0  0  0  0  0  0  0
   12.3808   84.8212   70.8310 C   0  0  0  0  0  0  0  0  0  0  0  0
   11.2554   85.5156   70.6186 N   0  0  0  0  0  0  0  0  0  0  0  0
   12.6182   83.6555   71.7380 C   0  0  0  0  0  2  0  0  0  0  0  0
   11.4237   83.3913   72.5916 C   0  0  0  0  0  0  0  0  0  0  0  0
   10.2737   82.8203   72.0732 C   0  0  0  0  0  3  0  0  0  0  0  0
   11.5101   83.7388   73.9196 C   0  0  0  0  0  3  0  0  0  0  0  0
    9.2283   82.6185   72.9449 C   0  0  0  0  0  3  0  0  0  0  0  0
   10.4354   83.5188   74.7628 C   0  0  0  0  0  3  0  0  0  0  0  0
    9.2676   82.9507   74.2861 C   0  0  0  0  0  3  0  0  0  0  0  0
   16.8841   85.7141   68.3741 C   0  0  0  0  0  0  0  0  0  0  0  0
   16.7393   84.6858   67.4594 C   0  0  0  0  0  3  0  0  0  0  0  0
   18.1434   85.9234   68.8710 C   0  0  0  0  0  0  0  0  0  0  0  0
   17.7952   83.9155   67.0706 C   0  0  0  0  0  3  0  0  0  0  0  0
   19.2280   85.1319   68.4725 C   0  0  0  0  0  3  0  0  0  0  0  0
   19.0586   84.1144   67.5620 C   0  0  0  0  0  3  0  0  0  0  0  0
   18.4257   86.9145   69.7784 O   0  0  0  0  0  0  0  0  0  0  0  0
   19.6320   86.8159   70.5652 C   0  0  0  0  0  2  0  0  0  0  0  0
   19.6973   87.9653   71.5214 C   0  0  0  0  0  3  0  0  0  0  0  0
   21.0069   88.0920   72.2836 C   0  0  0  0  0  2  0  0  0  0  0  0
   19.7630   87.5590   72.9987 C   0  0  0  0  0  2  0  0  0  0  0  0
  1  2  1  0
  2 18  1  0
  3  2  2  0
  4  5  1  0
  4  6  1  0
  4  1  1  0
  6  7  2  0
  7  9  1  0
  8  6  1  0
  8 10  1  0
  9 11  1  0
 10  9  2  0
 11 12  1  0
 12 13  2  0
 13 15  1  0
 14 12  1  0
 14 16  2  0
 16 17  1  0
 17 15  2  0
 18 20  1  0
 19 18  2  0
 19 21  1  0
 20 24  1  0
 20 22  2  0
 21 23  2  0
 23 22  1  0
 24 25  1  0
 25 26  1  0
 27 28  1  0
 27 26  1  0
 28 26  1  0
M  RAD  8   4   2   5   2  11   3  13   2  14   2  15   2  16   2  17   2
M  RAD  8  19   2  21   2  22   2  23   2  25   3  26   2  27   3  28   3
M  END
>  <REMARK>  (1) 
 SMILES CC(NC(=O)c1ccccc1OCC1CC1)c1nc(Cc2ccccc2)no1
 SMILES IDX 3 1 4 2 5 3 2 5 1 6 17 7 18 8 28 9 19 10 27 11 20 12 21 13
 SMILES IDX 22 14 26 15 23 16 25 17 24 18 6 19 7 20 11 21 8 22 10 23
 SMILES IDX 9 24 12 25 13 26 14 27 15 28 16 29
 H PARENT 3 4

>  <TORSDO>  (1) 
F 8

$$$$
