/home/pchatterjee/Documents/git/vs_workflow/DiffDock/diffdock_run/pdbqt_scrubbed/Z1368316620.pdbqt
     RDKit          3D

 28 31  0  0  1  0  0  0  0  0999 V2000
    9.3001   46.3870   52.1704 N   0  0  0  0  0  0  0  0  0  0  0  0
    7.9174   46.6275   52.2869 C   0  0  0  0  0  0  0  0  0  0  0  0
    7.1792   46.1018   51.4071 O   0  0  0  0  0  0  0  0  0  0  0  0
    9.7908   45.5471   51.1036 C   0  0  0  0  0  3  0  0  0  0  0  0
   11.1024   44.8947   51.3769 C   0  0  0  0  0  1  0  0  0  0  0  0
    8.7779   44.6212   50.5553 C   0  0  0  0  0  0  0  0  0  0  0  0
    7.7975   43.9672   51.2261 N   0  0  0  0  0  0  0  0  0  0  0  0
    8.6820   44.2895   49.2931 O   0  0  0  0  0  0  0  0  0  0  0  0
    7.1217   43.2383   50.3084 C   0  0  0  0  0  0  0  0  0  0  0  0
    7.6936   43.4585   49.1174 N   0  0  0  0  0  0  0  0  0  0  0  0
    5.9546   42.3683   50.6529 C   0  0  0  0  0  2  0  0  0  0  0  0
    5.2162   41.9545   49.4245 C   0  0  0  0  0  0  0  0  0  0  0  0
    3.8344   42.0092   49.3558 C   0  0  0  0  0  3  0  0  0  0  0  0
    5.9656   41.5146   48.3582 C   0  0  0  0  0  3  0  0  0  0  0  0
    3.2506   41.6049   48.1770 C   0  0  0  0  0  3  0  0  0  0  0  0
    5.3389   41.1169   47.1905 C   0  0  0  0  0  3  0  0  0  0  0  0
    3.9606   41.1556   47.0794 C   0  0  0  0  0  3  0  0  0  0  0  0
    7.2664   47.4146   53.3071 C   0  0  0  0  0  0  0  0  0  0  0  0
    8.0526   48.3030   54.0197 C   0  0  0  0  0  3  0  0  0  0  0  0
    5.9379   47.3658   53.6378 C   0  0  0  0  0  0  0  0  0  0  0  0
    7.5345   49.0914   55.0043 C   0  0  0  0  0  3  0  0  0  0  0  0
    5.4056   48.1749   54.6495 C   0  0  0  0  0  3  0  0  0  0  0  0
    6.2080   49.0501   55.3447 C   0  0  0  0  0  3  0  0  0  0  0  0
    5.0476   46.5344   53.0041 O   0  0  0  0  0  0  0  0  0  0  0  0
    3.6441   46.6430   53.3236 C   0  0  0  0  0  2  0  0  0  0  0  0
    2.8796   45.6038   52.5652 C   0  0  0  0  0  3  0  0  0  0  0  0
    1.9975   44.7061   53.4186 C   0  0  0  0  0  2  0  0  0  0  0  0
    3.3117   44.1611   52.8539 C   0  0  0  0  0  2  0  0  0  0  0  0
  1  2  1  0
  2 18  1  0
  3  2  2  0
  4  5  1  0
  4  6  1  0
  4  1  1  0
  6  7  2  0
  7  9  1  0
  8  6  1  0
  8 10  1  0
  9 11  1  0
 10  9  2  0
 11 12  1  0
 12 13  2  0
 13 15  1  0
 14 12  1  0
 14 16  2  0
 16 17  1  0
 17 15  2  0
 18 20  1  0
 19 18  2  0
 19 21  1  0
 20 24  1  0
 20 22  2  0
 21 23  2  0
 23 22  1  0
 24 25  1  0
 25 26  1  0
 27 28  1  0
 27 26  1  0
 28 26  1  0
M  RAD  8   4   2   5   2  11   3  13   2  14   2  15   2  16   2  17   2
M  RAD  8  19   2  21   2  22   2  23   2  25   3  26   2  27   3  28   3
M  END
>  <REMARK>  (1) 
 SMILES CC(NC(=O)c1ccccc1OCC1CC1)c1nc(Cc2ccccc2)no1
 SMILES IDX 3 1 4 2 5 3 2 5 1 6 17 7 18 8 28 9 19 10 27 11 20 12 21 13
 SMILES IDX 22 14 26 15 23 16 25 17 24 18 6 19 7 20 11 21 8 22 10 23
 SMILES IDX 9 24 12 25 13 26 14 27 15 28 16 29
 H PARENT 3 4

>  <TORSDO>  (1) 
F 8

$$$$
