/home/pchatterjee/Documents/git/vs_workflow/DiffDock/diffdock_run/pdbqt_scrubbed/Z2613622720.pdbqt
     RDKit          3D

 24 27  0  0  1  0  0  0  0  0999 V2000
    6.2201   45.5022   51.7183 C   0  0  0  0  0  0  0  0  0  0  0  0
    6.3076   44.4868   50.9588 N   0  0  0  0  0  0  0  0  0  0  0  0
    7.5236   43.9239   50.4752 C   0  0  0  0  0  0  0  0  0  0  0  0
    8.6502   44.5036   50.8461 C   0  0  0  0  0  0  0  0  0  0  0  0
   10.0062   44.2069   50.5530 N   0  0  0  0  0  0  0  0  0  0  0  0
   10.8326   45.1889   51.2270 C   0  0  0  0  0  2  0  0  0  0  0  0
    9.8986   46.0424   51.9171 N   0  0  0  0  0  0  0  0  0  0  0  0
    8.6666   45.6736   51.7141 C   0  0  0  0  0  0  0  0  0  0  0  0
    7.4073   46.1842   52.1612 N   0  0  0  0  0  2  0  0  0  0  0  0
    4.9359   45.9911   52.1532 N   0  0  0  0  0  0  0  0  0  0  0  0
    2.5833   45.8330   52.4632 C   0  0  0  0  0  3  0  0  0  0  0  0
    3.7208   45.4857   51.5169 C   0  0  0  0  0  2  0  0  0  0  0  0
    3.0393   45.5326   53.7372 O   0  0  0  0  0  0  0  0  0  0  0  0
    3.8926   46.4701   54.2586 C   0  0  0  0  0  2  0  0  0  0  0  0
    4.8583   46.9767   53.2126 C   0  0  0  0  0  2  0  0  0  0  0  0
    1.3670   45.0013   52.1239 C   0  0  0  0  0  2  0  0  0  0  0  0
    1.6106   43.6712   52.2971 F   0  0  0  0  0  0  0  0  0  0  0  0
    7.4468   42.7878   49.6334 N   0  0  0  0  0  0  0  0  0  0  0  0
    6.2607   42.1344   49.2548 C   0  0  0  0  0  0  0  0  0  0  0  0
    5.2470   41.8778   50.1873 C   0  0  0  0  0  3  0  0  0  0  0  0
    5.9908   41.6878   47.9697 C   0  0  0  0  0  3  0  0  0  0  0  0
    4.0989   41.2371   49.8261 C   0  0  0  0  0  3  0  0  0  0  0  0
    4.8523   41.0487   47.5970 C   0  0  0  0  0  3  0  0  0  0  0  0
    3.8644   40.8058   48.5341 C   0  0  0  0  0  3  0  0  0  0  0  0
  1  9  1  0
  2  3  1  0
  2  1  2  0
  3  4  2  0
  4  5  1  0
  4  8  1  0
  5  6  1  0
  6  7  1  0
  8  7  2  0
  9  8  1  0
 10  1  1  0
 10 15  1  0
 11 16  1  0
 11 12  1  0
 11 13  1  0
 12 10  1  0
 13 14  1  0
 14 15  1  0
 17 16  1  0
 18  3  1  0
 19 20  2  0
 19 18  1  0
 21 19  1  0
 22 20  1  0
 23 24  1  0
 23 21  2  0
 24 22  2  0
M  RAD  8   6   3   9   2  11   2  12   3  14   3  15   3  16   3  20   2
M  RAD  4  21   2  22   2  23   2  24   2
M  END
>  <REMARK>  (1) 
 SMILES FCC1CN(c2nc(Nc3ccccc3)c3[nH]cnc3n2)CCO1
 SMILES IDX 6 1 7 2 8 3 16 4 17 5 18 6 19 7 20 8 21 9 5 11 3 12 4 13
 SMILES IDX 24 14 23 15 22 16 2 17 1 18 9 19 10 21 11 22 15 23 12 24
 SMILES IDX 14 25 13 26
 H PARENT 17 10 9 20

>  <TORSDO>  (1) 
F 4

$$$$
