/home/pchatterjee/Documents/git/vs_workflow/DiffDock/diffdock_run/pdbqt_scrubbed/Z2613622720.pdbqt
     RDKit          3D

 24 27  0  0  1  0  0  0  0  0999 V2000
    9.0927   65.8150   82.8930 C   0  0  0  0  0  0  0  0  0  0  0  0
   10.2992   65.4769   83.1063 N   0  0  0  0  0  0  0  0  0  0  0  0
   11.4455   66.1726   82.6255 C   0  0  0  0  0  0  0  0  0  0  0  0
   11.2377   67.2559   81.9001 C   0  0  0  0  0  0  0  0  0  0  0  0
   12.1343   68.1637   81.2798 N   0  0  0  0  0  0  0  0  0  0  0  0
   11.3466   69.1727   80.5993 C   0  0  0  0  0  2  0  0  0  0  0  0
    9.9774   68.8094   80.8647 N   0  0  0  0  0  0  0  0  0  0  0  0
    9.8959   67.7337   81.5937 C   0  0  0  0  0  0  0  0  0  0  0  0
    8.7921   66.9844   82.1101 N   0  0  0  0  0  2  0  0  0  0  0  0
    8.0023   65.0399   83.4291 N   0  0  0  0  0  0  0  0  0  0  0  0
    5.7774   64.1998   83.4320 C   0  0  0  0  0  3  0  0  0  0  0  0
    6.6264   65.4194   83.1134 C   0  0  0  0  0  2  0  0  0  0  0  0
    6.4721   63.1084   82.9344 O   0  0  0  0  0  0  0  0  0  0  0  0
    7.5202   62.7091   83.7223 C   0  0  0  0  0  2  0  0  0  0  0  0
    8.2759   63.8953   84.2748 C   0  0  0  0  0  2  0  0  0  0  0  0
    4.4308   64.3262   82.7560 C   0  0  0  0  0  2  0  0  0  0  0  0
    4.3048   65.5255   82.1203 F   0  0  0  0  0  0  0  0  0  0  0  0
   12.7247   65.6613   82.9531 N   0  0  0  0  0  0  0  0  0  0  0  0
   12.9701   64.5557   83.7864 C   0  0  0  0  0  0  0  0  0  0  0  0
   12.7153   63.2494   83.3485 C   0  0  0  0  0  3  0  0  0  0  0  0
   13.4619   64.6463   85.0801 C   0  0  0  0  0  3  0  0  0  0  0  0
   12.9439   62.1750   84.1563 C   0  0  0  0  0  3  0  0  0  0  0  0
   13.6937   63.5850   85.8947 C   0  0  0  0  0  3  0  0  0  0  0  0
   13.4353   62.3040   85.4417 C   0  0  0  0  0  3  0  0  0  0  0  0
  1  9  1  0
  2  3  1  0
  2  1  2  0
  3  4  2  0
  4  5  1  0
  4  8  1  0
  5  6  1  0
  6  7  1  0
  8  7  2  0
  9  8  1  0
 10  1  1  0
 10 15  1  0
 11 16  1  0
 11 12  1  0
 11 13  1  0
 12 10  1  0
 13 14  1  0
 14 15  1  0
 17 16  1  0
 18  3  1  0
 19 20  2  0
 19 18  1  0
 21 19  1  0
 22 20  1  0
 23 24  1  0
 23 21  2  0
 24 22  2  0
M  RAD  8   6   3   9   2  11   2  12   3  14   3  15   3  16   3  20   2
M  RAD  4  21   2  22   2  23   2  24   2
M  END
>  <REMARK>  (1) 
 SMILES FCC1CN(c2nc(Nc3ccccc3)c3[nH]cnc3n2)CCO1
 SMILES IDX 6 1 7 2 8 3 16 4 17 5 18 6 19 7 20 8 21 9 5 11 3 12 4 13
 SMILES IDX 24 14 23 15 22 16 2 17 1 18 9 19 10 21 11 22 15 23 12 24
 SMILES IDX 14 25 13 26
 H PARENT 17 10 9 20

>  <TORSDO>  (1) 
F 4

$$$$
