/home/pchatterjee/Documents/git/vs_workflow/DiffDock/diffdock_run/pdbqt_scrubbed/Z2613622720.pdbqt
     RDKit          3D

 24 27  0  0  1  0  0  0  0  0999 V2000
   11.2636   63.8267   83.0647 C   0  0  0  0  0  0  0  0  0  0  0  0
   11.0415   64.9254   82.4655 N   0  0  0  0  0  0  0  0  0  0  0  0
    9.7546   65.4911   82.2354 C   0  0  0  0  0  0  0  0  0  0  0  0
    8.7085   64.8201   82.6807 C   0  0  0  0  0  0  0  0  0  0  0  0
    7.3172   65.0918   82.6221 N   0  0  0  0  0  0  0  0  0  0  0  0
    6.6221   63.9968   83.2698 C   0  0  0  0  0  2  0  0  0  0  0  0
    7.6674   63.1045   83.7036 N   0  0  0  0  0  0  0  0  0  0  0  0
    8.8473   63.5499   83.3806 C   0  0  0  0  0  0  0  0  0  0  0  0
   10.1706   63.0425   83.5757 N   0  0  0  0  0  2  0  0  0  0  0  0
   12.6091   63.3434   83.2472 N   0  0  0  0  0  0  0  0  0  0  0  0
   14.2400   61.6517   83.6133 C   0  0  0  0  0  3  0  0  0  0  0  0
   12.8329   62.0966   83.9766 C   0  0  0  0  0  2  0  0  0  0  0  0
   14.3630   61.8469   82.2466 O   0  0  0  0  0  0  0  0  0  0  0  0
   14.5753   63.1526   81.8876 C   0  0  0  0  0  2  0  0  0  0  0  0
   13.7262   64.0940   82.7099 C   0  0  0  0  0  2  0  0  0  0  0  0
   14.4173   60.1905   83.9599 C   0  0  0  0  0  2  0  0  0  0  0  0
   13.3999   59.4342   83.4586 F   0  0  0  0  0  0  0  0  0  0  0  0
    9.6801   66.7271   81.5484 N   0  0  0  0  0  0  0  0  0  0  0  0
   10.7727   67.5621   81.2552 C   0  0  0  0  0  0  0  0  0  0  0  0
   10.6197   68.6962   80.4468 C   0  0  0  0  0  3  0  0  0  0  0  0
   12.0644   67.3483   81.7130 C   0  0  0  0  0  3  0  0  0  0  0  0
   11.6783   69.5039   80.1531 C   0  0  0  0  0  3  0  0  0  0  0  0
   13.1268   68.1443   81.4281 C   0  0  0  0  0  3  0  0  0  0  0  0
   12.9530   69.2591   80.6280 C   0  0  0  0  0  3  0  0  0  0  0  0
  1  9  1  0
  2  3  1  0
  2  1  2  0
  3  4  2  0
  4  5  1  0
  4  8  1  0
  5  6  1  0
  6  7  1  0
  8  7  2  0
  9  8  1  0
 10  1  1  0
 10 15  1  0
 11 16  1  0
 11 12  1  0
 11 13  1  0
 12 10  1  0
 13 14  1  0
 14 15  1  0
 17 16  1  0
 18  3  1  0
 19 20  2  0
 19 18  1  0
 21 19  1  0
 22 20  1  0
 23 24  1  0
 23 21  2  0
 24 22  2  0
M  RAD  8   6   3   9   2  11   2  12   3  14   3  15   3  16   3  20   2
M  RAD  4  21   2  22   2  23   2  24   2
M  END
>  <REMARK>  (1) 
 SMILES FCC1CN(c2nc(Nc3ccccc3)c3[nH]cnc3n2)CCO1
 SMILES IDX 6 1 7 2 8 3 16 4 17 5 18 6 19 7 20 8 21 9 5 11 3 12 4 13
 SMILES IDX 24 14 23 15 22 16 2 17 1 18 9 19 10 21 11 22 15 23 12 24
 SMILES IDX 14 25 13 26
 H PARENT 17 10 9 20

>  <TORSDO>  (1) 
F 4

$$$$
