/home/pchatterjee/Documents/git/vs_workflow/DiffDock/diffdock_run/pdbqt_scrubbed/Z2613622720.pdbqt
     RDKit          3D

 24 27  0  0  1  0  0  0  0  0999 V2000
    6.1207   45.7222   51.7681 C   0  0  0  0  0  0  0  0  0  0  0  0
    6.1874   44.7237   50.9844 N   0  0  0  0  0  0  0  0  0  0  0  0
    7.3836   44.2124   50.4041 C   0  0  0  0  0  0  0  0  0  0  0  0
    8.5138   44.8248   50.7047 C   0  0  0  0  0  0  0  0  0  0  0  0
    9.8545   44.5811   50.3095 N   0  0  0  0  0  0  0  0  0  0  0  0
   10.6937   45.5798   50.9419 C   0  0  0  0  0  2  0  0  0  0  0  0
    9.7836   46.3879   51.7137 N   0  0  0  0  0  0  0  0  0  0  0  0
    8.5534   45.9796   51.5922 C   0  0  0  0  0  0  0  0  0  0  0  0
    7.3130   46.4378   52.1383 N   0  0  0  0  0  2  0  0  0  0  0  0
    4.8555   46.1581   52.3033 N   0  0  0  0  0  0  0  0  0  0  0  0
    2.5185   45.9564   52.6953 C   0  0  0  0  0  3  0  0  0  0  0  0
    3.6151   45.7113   51.6719 C   0  0  0  0  0  2  0  0  0  0  0  0
    3.0288   45.5338   53.9128 O   0  0  0  0  0  0  0  0  0  0  0  0
    3.9022   46.4198   54.4882 C   0  0  0  0  0  2  0  0  0  0  0  0
    4.8216   47.0333   53.4578 C   0  0  0  0  0  2  0  0  0  0  0  0
    1.2901   45.1555   52.3268 C   0  0  0  0  0  2  0  0  0  0  0  0
    1.2052   44.0100   53.0610 F   0  0  0  0  0  0  0  0  0  0  0  0
    7.2847   43.0889   49.5477 N   0  0  0  0  0  0  0  0  0  0  0  0
    6.0999   42.3904   49.2556 C   0  0  0  0  0  0  0  0  0  0  0  0
    5.1415   42.1454   50.2478 C   0  0  0  0  0  3  0  0  0  0  0  0
    5.7790   41.8854   48.0043 C   0  0  0  0  0  3  0  0  0  0  0  0
    3.9951   41.4611   49.9707 C   0  0  0  0  0  3  0  0  0  0  0  0
    4.6416   41.2026   47.7151 C   0  0  0  0  0  3  0  0  0  0  0  0
    3.7088   40.9722   48.7100 C   0  0  0  0  0  3  0  0  0  0  0  0
  1  9  1  0
  2  3  1  0
  2  1  2  0
  3  4  2  0
  4  5  1  0
  4  8  1  0
  5  6  1  0
  6  7  1  0
  8  7  2  0
  9  8  1  0
 10  1  1  0
 10 15  1  0
 11 16  1  0
 11 12  1  0
 11 13  1  0
 12 10  1  0
 13 14  1  0
 14 15  1  0
 17 16  1  0
 18  3  1  0
 19 20  2  0
 19 18  1  0
 21 19  1  0
 22 20  1  0
 23 24  1  0
 23 21  2  0
 24 22  2  0
M  RAD  8   6   3   9   2  11   2  12   3  14   3  15   3  16   3  20   2
M  RAD  4  21   2  22   2  23   2  24   2
M  END
>  <REMARK>  (1) 
 SMILES FCC1CN(c2nc(Nc3ccccc3)c3[nH]cnc3n2)CCO1
 SMILES IDX 6 1 7 2 8 3 16 4 17 5 18 6 19 7 20 8 21 9 5 11 3 12 4 13
 SMILES IDX 24 14 23 15 22 16 2 17 1 18 9 19 10 21 11 22 15 23 12 24
 SMILES IDX 14 25 13 26
 H PARENT 17 10 9 20

>  <TORSDO>  (1) 
F 4

$$$$
