/home/pchatterjee/Documents/git/vs_workflow/DiffDock/diffdock_run/pdbqt_scrubbed/Z2613622720.pdbqt
     RDKit          3D

 24 27  0  0  1  0  0  0  0  0999 V2000
    6.2796   45.5849   51.8790 C   0  0  0  0  0  0  0  0  0  0  0  0
    6.3015   44.5702   51.1139 N   0  0  0  0  0  0  0  0  0  0  0  0
    7.4646   44.0380   50.4869 C   0  0  0  0  0  0  0  0  0  0  0  0
    8.6121   44.6477   50.7196 C   0  0  0  0  0  0  0  0  0  0  0  0
    9.9303   44.3857   50.2650 N   0  0  0  0  0  0  0  0  0  0  0  0
   10.8059   45.3907   50.8350 C   0  0  0  0  0  2  0  0  0  0  0  0
    9.9398   46.2214   51.6332 N   0  0  0  0  0  0  0  0  0  0  0  0
    8.7025   45.8200   51.5800 C   0  0  0  0  0  0  0  0  0  0  0  0
    7.4932   46.2988   52.1760 N   0  0  0  0  0  2  0  0  0  0  0  0
    5.0449   46.0413   52.4658 N   0  0  0  0  0  0  0  0  0  0  0  0
    2.7189   45.8880   52.9373 C   0  0  0  0  0  3  0  0  0  0  0  0
    3.7726   45.6347   51.8717 C   0  0  0  0  0  2  0  0  0  0  0  0
    3.2613   45.4327   54.1288 O   0  0  0  0  0  0  0  0  0  0  0  0
    4.1754   46.2880   54.6871 C   0  0  0  0  0  2  0  0  0  0  0  0
    5.0726   46.8972   53.6348 C   0  0  0  0  0  2  0  0  0  0  0  0
    1.4593   45.1226   52.5996 C   0  0  0  0  0  2  0  0  0  0  0  0
    1.4666   44.7011   51.3032 F   0  0  0  0  0  0  0  0  0  0  0  0
    7.3167   42.8980   49.6599 N   0  0  0  0  0  0  0  0  0  0  0  0
    6.1086   42.2214   49.4155 C   0  0  0  0  0  0  0  0  0  0  0  0
    5.8095   41.7115   48.1452 C   0  0  0  0  0  3  0  0  0  0  0  0
    5.1257   42.0078   50.3704 C   0  0  0  0  0  3  0  0  0  0  0  0
    4.6356   41.0621   47.9018 C   0  0  0  0  0  3  0  0  0  0  0  0
    3.9529   41.3631   50.1413 C   0  0  0  0  0  3  0  0  0  0  0  0
    3.6783   40.8675   48.8796 C   0  0  0  0  0  3  0  0  0  0  0  0
  1  9  1  0
  2  3  1  0
  2  1  2  0
  3  4  2  0
  4  5  1  0
  4  8  1  0
  5  6  1  0
  6  7  1  0
  8  7  2  0
  9  8  1  0
 10  1  1  0
 10 15  1  0
 11 16  1  0
 11 12  1  0
 11 13  1  0
 12 10  1  0
 13 14  1  0
 14 15  1  0
 17 16  1  0
 18  3  1  0
 19 20  2  0
 19 18  1  0
 21 19  1  0
 22 20  1  0
 23 24  1  0
 23 21  2  0
 24 22  2  0
M  RAD  8   6   3   9   2  11   2  12   3  14   3  15   3  16   3  20   2
M  RAD  4  21   2  22   2  23   2  24   2
M  END
>  <REMARK>  (1) 
 SMILES FCC1CN(c2nc(Nc3ccccc3)c3[nH]cnc3n2)CCO1
 SMILES IDX 6 1 7 2 8 3 16 4 17 5 18 6 19 7 20 8 21 9 5 11 3 12 4 13
 SMILES IDX 24 14 23 15 22 16 2 17 1 18 9 19 10 21 11 22 15 23 12 24
 SMILES IDX 14 25 13 26
 H PARENT 17 10 9 20

>  <TORSDO>  (1) 
F 4

$$$$
