/home/pchatterjee/Documents/git/vs_workflow/DiffDock/diffdock_run/pdbqt_scrubbed/Z2613622720.pdbqt
     RDKit          3D

 24 27  0  0  1  0  0  0  0  0999 V2000
   12.6899   64.1966   82.8296 C   0  0  0  0  0  0  0  0  0  0  0  0
   12.8351   63.4688   83.8614 N   0  0  0  0  0  0  0  0  0  0  0  0
   13.5458   62.2350   83.9040 C   0  0  0  0  0  0  0  0  0  0  0  0
   14.0983   61.8140   82.7813 C   0  0  0  0  0  0  0  0  0  0  0  0
   14.8590   60.6551   82.4794 N   0  0  0  0  0  0  0  0  0  0  0  0
   15.2032   60.7025   81.0719 C   0  0  0  0  0  2  0  0  0  0  0  0
   14.6200   61.9304   80.5932 N   0  0  0  0  0  0  0  0  0  0  0  0
   13.9937   62.5686   81.5395 C   0  0  0  0  0  0  0  0  0  0  0  0
   13.2646   63.7991   81.5717 N   0  0  0  0  0  2  0  0  0  0  0  0
   11.9511   65.4324   82.8952 N   0  0  0  0  0  0  0  0  0  0  0  0
   11.0173   67.4146   81.9707 C   0  0  0  0  0  3  0  0  0  0  0  0
   12.2158   66.4818   81.9126 C   0  0  0  0  0  2  0  0  0  0  0  0
    9.8987   66.5983   82.0319 O   0  0  0  0  0  0  0  0  0  0  0  0
    9.6680   66.0621   83.2721 C   0  0  0  0  0  2  0  0  0  0  0  0
   10.9561   65.6260   83.9309 C   0  0  0  0  0  2  0  0  0  0  0  0
   10.9808   68.2744   80.7273 C   0  0  0  0  0  2  0  0  0  0  0  0
   12.2304   68.6874   80.3722 F   0  0  0  0  0  0  0  0  0  0  0  0
   13.6133   61.5438   85.1381 N   0  0  0  0  0  0  0  0  0  0  0  0
   13.1594   62.0385   86.3735 C   0  0  0  0  0  0  0  0  0  0  0  0
   14.0559   62.3233   87.4119 C   0  0  0  0  0  3  0  0  0  0  0  0
   11.8273   62.2762   86.6782 C   0  0  0  0  0  3  0  0  0  0  0  0
   13.6192   62.7953   88.6143 C   0  0  0  0  0  3  0  0  0  0  0  0
   11.3794   62.7457   87.8708 C   0  0  0  0  0  3  0  0  0  0  0  0
   12.2821   63.0203   88.8821 C   0  0  0  0  0  3  0  0  0  0  0  0
  1  9  1  0
  2  3  1  0
  2  1  2  0
  3  4  2  0
  4  5  1  0
  4  8  1  0
  5  6  1  0
  6  7  1  0
  8  7  2  0
  9  8  1  0
 10  1  1  0
 10 15  1  0
 11 16  1  0
 11 12  1  0
 11 13  1  0
 12 10  1  0
 13 14  1  0
 14 15  1  0
 17 16  1  0
 18  3  1  0
 19 20  2  0
 19 18  1  0
 21 19  1  0
 22 20  1  0
 23 24  1  0
 23 21  2  0
 24 22  2  0
M  RAD  8   6   3   9   2  11   2  12   3  14   3  15   3  16   3  20   2
M  RAD  4  21   2  22   2  23   2  24   2
M  END
>  <REMARK>  (1) 
 SMILES FCC1CN(c2nc(Nc3ccccc3)c3[nH]cnc3n2)CCO1
 SMILES IDX 6 1 7 2 8 3 16 4 17 5 18 6 19 7 20 8 21 9 5 11 3 12 4 13
 SMILES IDX 24 14 23 15 22 16 2 17 1 18 9 19 10 21 11 22 15 23 12 24
 SMILES IDX 14 25 13 26
 H PARENT 17 10 9 20

>  <TORSDO>  (1) 
F 4

$$$$
