/home/pchatterjee/Documents/git/vs_workflow/DiffDock/diffdock_run/pdbqt_scrubbed/Z2613622720.pdbqt
     RDKit          3D

 24 27  0  0  1  0  0  0  0  0999 V2000
    6.1985   45.7013   51.8027 C   0  0  0  0  0  0  0  0  0  0  0  0
    6.2342   44.7013   51.0191 N   0  0  0  0  0  0  0  0  0  0  0  0
    7.4080   44.1829   50.4005 C   0  0  0  0  0  0  0  0  0  0  0  0
    8.5506   44.7900   50.6626 C   0  0  0  0  0  0  0  0  0  0  0  0
    9.8762   44.5388   50.2239 N   0  0  0  0  0  0  0  0  0  0  0  0
   10.7409   45.5343   50.8264 C   0  0  0  0  0  2  0  0  0  0  0  0
    9.8608   46.3483   51.6264 N   0  0  0  0  0  0  0  0  0  0  0  0
    8.6252   45.9460   51.5463 C   0  0  0  0  0  0  0  0  0  0  0  0
    7.4059   46.4114   52.1321 N   0  0  0  0  0  2  0  0  0  0  0  0
    4.9538   46.1445   52.3786 N   0  0  0  0  0  0  0  0  0  0  0  0
    2.6299   45.9556   52.8475 C   0  0  0  0  0  3  0  0  0  0  0  0
    3.6910   45.7034   51.7890 C   0  0  0  0  0  2  0  0  0  0  0  0
    3.1778   45.5318   54.0481 O   0  0  0  0  0  0  0  0  0  0  0  0
    4.0742   46.4140   54.5932 C   0  0  0  0  0  2  0  0  0  0  0  0
    4.9623   47.0214   53.5323 C   0  0  0  0  0  2  0  0  0  0  0  0
    1.3859   45.1606   52.5207 C   0  0  0  0  0  2  0  0  0  0  0  0
    1.3140   44.8756   51.1896 F   0  0  0  0  0  0  0  0  0  0  0  0
    7.2753   43.0585   49.5499 N   0  0  0  0  0  0  0  0  0  0  0  0
    6.0765   42.3704   49.2921 C   0  0  0  0  0  0  0  0  0  0  0  0
    5.8460   41.7585   48.0530 C   0  0  0  0  0  3  0  0  0  0  0  0
    5.0381   42.2418   50.2026 C   0  0  0  0  0  3  0  0  0  0  0  0
    4.6815   41.0974   47.7959 C   0  0  0  0  0  3  0  0  0  0  0  0
    3.8740   41.5867   49.9594 C   0  0  0  0  0  3  0  0  0  0  0  0
    3.6676   40.9896   48.7290 C   0  0  0  0  0  3  0  0  0  0  0  0
  1  9  1  0
  2  3  1  0
  2  1  2  0
  3  4  2  0
  4  5  1  0
  4  8  1  0
  5  6  1  0
  6  7  1  0
  8  7  2  0
  9  8  1  0
 10  1  1  0
 10 15  1  0
 11 16  1  0
 11 12  1  0
 11 13  1  0
 12 10  1  0
 13 14  1  0
 14 15  1  0
 17 16  1  0
 18  3  1  0
 19 20  2  0
 19 18  1  0
 21 19  1  0
 22 20  1  0
 23 24  1  0
 23 21  2  0
 24 22  2  0
M  RAD  8   6   3   9   2  11   2  12   3  14   3  15   3  16   3  20   2
M  RAD  4  21   2  22   2  23   2  24   2
M  END
>  <REMARK>  (1) 
 SMILES FCC1CN(c2nc(Nc3ccccc3)c3[nH]cnc3n2)CCO1
 SMILES IDX 6 1 7 2 8 3 16 4 17 5 18 6 19 7 20 8 21 9 5 11 3 12 4 13
 SMILES IDX 24 14 23 15 22 16 2 17 1 18 9 19 10 21 11 22 15 23 12 24
 SMILES IDX 14 25 13 26
 H PARENT 17 10 9 20

>  <TORSDO>  (1) 
F 4

$$$$
