/home/pchatterjee/Documents/git/vs_workflow/DiffDock/diffdock_run/pdbqt_scrubbed/Z2613622720.pdbqt
     RDKit          3D

 24 27  0  0  1  0  0  0  0  0999 V2000
    6.1118   45.1107   51.8978 C   0  0  0  0  0  0  0  0  0  0  0  0
    6.1798   44.1846   51.0298 N   0  0  0  0  0  0  0  0  0  0  0  0
    7.3415   43.8456   50.2785 C   0  0  0  0  0  0  0  0  0  0  0  0
    8.4355   44.5498   50.5020 C   0  0  0  0  0  0  0  0  0  0  0  0
    9.7365   44.4777   49.9405 N   0  0  0  0  0  0  0  0  0  0  0  0
   10.5456   45.5103   50.5576 C   0  0  0  0  0  2  0  0  0  0  0  0
    9.6610   46.1598   51.4918 N   0  0  0  0  0  0  0  0  0  0  0  0
    8.4699   45.6344   51.4742 C   0  0  0  0  0  0  0  0  0  0  0  0
    7.2656   45.9186   52.1920 N   0  0  0  0  0  2  0  0  0  0  0  0
    4.8836   45.3709   52.6058 N   0  0  0  0  0  0  0  0  0  0  0  0
    3.3432   46.7570   53.7728 C   0  0  0  0  0  3  0  0  0  0  0  0
    4.8218   46.4811   53.5548 C   0  0  0  0  0  2  0  0  0  0  0  0
    2.7543   46.7034   52.5191 O   0  0  0  0  0  0  0  0  0  0  0  0
    2.5507   45.4303   52.0537 C   0  0  0  0  0  2  0  0  0  0  0  0
    3.7239   44.5335   52.3742 C   0  0  0  0  0  2  0  0  0  0  0  0
    3.1662   48.1282   54.3852 C   0  0  0  0  0  2  0  0  0  0  0  0
    4.3166   48.5613   54.9744 F   0  0  0  0  0  0  0  0  0  0  0  0
    7.2492   42.7835   49.3464 N   0  0  0  0  0  0  0  0  0  0  0  0
    6.0958   42.0195   49.0951 C   0  0  0  0  0  0  0  0  0  0  0  0
    5.2115   41.6836   50.1287 C   0  0  0  0  0  3  0  0  0  0  0  0
    5.7375   41.5331   47.8466 C   0  0  0  0  0  3  0  0  0  0  0  0
    4.0963   40.9359   49.8908 C   0  0  0  0  0  3  0  0  0  0  0  0
    4.6306   40.7878   47.5963 C   0  0  0  0  0  3  0  0  0  0  0  0
    3.7710   40.4680   48.6316 C   0  0  0  0  0  3  0  0  0  0  0  0
  1  9  1  0
  2  3  1  0
  2  1  2  0
  3  4  2  0
  4  5  1  0
  4  8  1  0
  5  6  1  0
  6  7  1  0
  8  7  2  0
  9  8  1  0
 10  1  1  0
 10 15  1  0
 11 16  1  0
 11 12  1  0
 11 13  1  0
 12 10  1  0
 13 14  1  0
 14 15  1  0
 17 16  1  0
 18  3  1  0
 19 20  2  0
 19 18  1  0
 21 19  1  0
 22 20  1  0
 23 24  1  0
 23 21  2  0
 24 22  2  0
M  RAD  8   6   3   9   2  11   2  12   3  14   3  15   3  16   3  20   2
M  RAD  4  21   2  22   2  23   2  24   2
M  END
>  <REMARK>  (1) 
 SMILES FCC1CN(c2nc(Nc3ccccc3)c3[nH]cnc3n2)CCO1
 SMILES IDX 6 1 7 2 8 3 16 4 17 5 18 6 19 7 20 8 21 9 5 11 3 12 4 13
 SMILES IDX 24 14 23 15 22 16 2 17 1 18 9 19 10 21 11 22 15 23 12 24
 SMILES IDX 14 25 13 26
 H PARENT 17 10 9 20

>  <TORSDO>  (1) 
F 4

$$$$
