/home/pchatterjee/Documents/git/vs_workflow/DiffDock/diffdock_run/pdbqt_scrubbed/Z2613622720.pdbqt
     RDKit          3D

 24 27  0  0  1  0  0  0  0  0999 V2000
    5.9299   44.9018   51.9251 C   0  0  0  0  0  0  0  0  0  0  0  0
    6.0469   44.0509   50.9883 N   0  0  0  0  0  0  0  0  0  0  0  0
    7.2021   43.8797   50.1724 C   0  0  0  0  0  0  0  0  0  0  0  0
    8.2340   44.6684   50.4088 C   0  0  0  0  0  0  0  0  0  0  0  0
    9.5108   44.7623   49.7973 N   0  0  0  0  0  0  0  0  0  0  0  0
   10.2454   45.8214   50.4607 C   0  0  0  0  0  2  0  0  0  0  0  0
    9.3448   46.3144   51.4721 N   0  0  0  0  0  0  0  0  0  0  0  0
    8.2084   45.6792   51.4577 C   0  0  0  0  0  0  0  0  0  0  0  0
    7.0146   45.7942   52.2376 N   0  0  0  0  0  2  0  0  0  0  0  0
    4.7142   44.9914   52.6942 N   0  0  0  0  0  0  0  0  0  0  0  0
    3.3061   45.9362   54.3617 C   0  0  0  0  0  3  0  0  0  0  0  0
    4.7482   45.5933   54.0258 C   0  0  0  0  0  2  0  0  0  0  0  0
    2.7670   46.4935   53.2128 O   0  0  0  0  0  0  0  0  0  0  0  0
    2.4302   45.5743   52.2533 C   0  0  0  0  0  2  0  0  0  0  0  0
    3.4722   44.4853   52.1453 C   0  0  0  0  0  2  0  0  0  0  0  0
    3.2712   46.9294   55.5013 C   0  0  0  0  0  2  0  0  0  0  0  0
    4.0222   46.5021   56.5557 F   0  0  0  0  0  0  0  0  0  0  0  0
    7.1696   42.8828   49.1673 N   0  0  0  0  0  0  0  0  0  0  0  0
    6.0523   42.0951   48.8383 C   0  0  0  0  0  0  0  0  0  0  0  0
    5.0959   41.7573   49.8048 C   0  0  0  0  0  3  0  0  0  0  0  0
    5.8006   41.5859   47.5730 C   0  0  0  0  0  3  0  0  0  0  0  0
    4.0154   40.9867   49.4921 C   0  0  0  0  0  3  0  0  0  0  0  0
    4.7292   40.8177   47.2483 C   0  0  0  0  0  3  0  0  0  0  0  0
    3.7970   40.4964   48.2184 C   0  0  0  0  0  3  0  0  0  0  0  0
  1  9  1  0
  2  3  1  0
  2  1  2  0
  3  4  2  0
  4  5  1  0
  4  8  1  0
  5  6  1  0
  6  7  1  0
  8  7  2  0
  9  8  1  0
 10  1  1  0
 10 15  1  0
 11 16  1  0
 11 12  1  0
 11 13  1  0
 12 10  1  0
 13 14  1  0
 14 15  1  0
 17 16  1  0
 18  3  1  0
 19 20  2  0
 19 18  1  0
 21 19  1  0
 22 20  1  0
 23 24  1  0
 23 21  2  0
 24 22  2  0
M  RAD  8   6   3   9   2  11   2  12   3  14   3  15   3  16   3  20   2
M  RAD  4  21   2  22   2  23   2  24   2
M  END
>  <REMARK>  (1) 
 SMILES FCC1CN(c2nc(Nc3ccccc3)c3[nH]cnc3n2)CCO1
 SMILES IDX 6 1 7 2 8 3 16 4 17 5 18 6 19 7 20 8 21 9 5 11 3 12 4 13
 SMILES IDX 24 14 23 15 22 16 2 17 1 18 9 19 10 21 11 22 15 23 12 24
 SMILES IDX 14 25 13 26
 H PARENT 17 10 9 20

>  <TORSDO>  (1) 
F 4

$$$$
