/home/pchatterjee/Documents/git/vs_workflow/DiffDock/diffdock_run/pdbqt_scrubbed/Z2613622720.pdbqt
     RDKit          3D

 24 27  0  0  1  0  0  0  0  0999 V2000
    6.2650   45.5461   51.9009 C   0  0  0  0  0  0  0  0  0  0  0  0
    6.2498   44.5403   51.1238 N   0  0  0  0  0  0  0  0  0  0  0  0
    7.3942   43.9666   50.4990 C   0  0  0  0  0  0  0  0  0  0  0  0
    8.5647   44.5244   50.7474 C   0  0  0  0  0  0  0  0  0  0  0  0
    9.8741   44.2120   50.2994 N   0  0  0  0  0  0  0  0  0  0  0  0
   10.7870   45.1722   50.8878 C   0  0  0  0  0  2  0  0  0  0  0  0
    9.9506   46.0295   51.6895 N   0  0  0  0  0  0  0  0  0  0  0  0
    8.6978   45.6816   51.6225 C   0  0  0  0  0  0  0  0  0  0  0  0
    7.5053   46.2043   52.2153 N   0  0  0  0  0  2  0  0  0  0  0  0
    5.0461   46.0475   52.4841 N   0  0  0  0  0  0  0  0  0  0  0  0
    2.7109   45.9914   52.9308 C   0  0  0  0  0  3  0  0  0  0  0  0
    3.7630   45.7092   51.8709 C   0  0  0  0  0  2  0  0  0  0  0  0
    3.2201   45.4915   54.1191 O   0  0  0  0  0  0  0  0  0  0  0  0
    4.1660   46.2948   54.7011 C   0  0  0  0  0  2  0  0  0  0  0  0
    5.1004   46.8809   53.6683 C   0  0  0  0  0  2  0  0  0  0  0  0
    1.4216   45.2897   52.5678 C   0  0  0  0  0  2  0  0  0  0  0  0
    1.2955   45.1495   51.2177 F   0  0  0  0  0  0  0  0  0  0  0  0
    7.2046   42.8437   49.6573 N   0  0  0  0  0  0  0  0  0  0  0  0
    5.9703   42.2246   49.3925 C   0  0  0  0  0  0  0  0  0  0  0  0
    4.9977   42.0937   50.3924 C   0  0  0  0  0  3  0  0  0  0  0  0
    5.6105   41.6937   48.1627 C   0  0  0  0  0  3  0  0  0  0  0  0
    3.8027   41.4865   50.1421 C   0  0  0  0  0  3  0  0  0  0  0  0
    4.4246   41.0868   47.9002 C   0  0  0  0  0  3  0  0  0  0  0  0
    3.4786   40.9686   48.9023 C   0  0  0  0  0  3  0  0  0  0  0  0
  1  9  1  0
  2  3  1  0
  2  1  2  0
  3  4  2  0
  4  5  1  0
  4  8  1  0
  5  6  1  0
  6  7  1  0
  8  7  2  0
  9  8  1  0
 10  1  1  0
 10 15  1  0
 11 16  1  0
 11 12  1  0
 11 13  1  0
 12 10  1  0
 13 14  1  0
 14 15  1  0
 17 16  1  0
 18  3  1  0
 19 20  2  0
 19 18  1  0
 21 19  1  0
 22 20  1  0
 23 24  1  0
 23 21  2  0
 24 22  2  0
M  RAD  8   6   3   9   2  11   2  12   3  14   3  15   3  16   3  20   2
M  RAD  4  21   2  22   2  23   2  24   2
M  END
>  <REMARK>  (1) 
 SMILES FCC1CN(c2nc(Nc3ccccc3)c3[nH]cnc3n2)CCO1
 SMILES IDX 6 1 7 2 8 3 16 4 17 5 18 6 19 7 20 8 21 9 5 11 3 12 4 13
 SMILES IDX 24 14 23 15 22 16 2 17 1 18 9 19 10 21 11 22 15 23 12 24
 SMILES IDX 14 25 13 26
 H PARENT 17 10 9 20

>  <TORSDO>  (1) 
F 4

$$$$
