/home/pchatterjee/Documents/git/vs_workflow/DiffDock/diffdock_run/pdbqt_scrubbed/Z1935637461.pdbqt
     RDKit          3D

 24 27  0  0  0  0  0  0  0  0999 V2000
    4.4467   41.3212   49.0609 C   0  0  0  0  0  0  0  0  0  0  0  0
    3.8008   41.2325   50.2997 C   0  0  0  0  0  3  0  0  0  0  0  0
    2.6610   40.4780   50.4712 C   0  0  0  0  0  3  0  0  0  0  0  0
    2.1000   39.7766   49.4440 C   0  0  0  0  0  3  0  0  0  0  0  0
    2.7227   39.8512   48.2163 C   0  0  0  0  0  3  0  0  0  0  0  0
    3.8811   40.6163   48.0387 C   0  0  0  0  0  0  0  0  0  0  0  0
    5.6255   42.1382   48.9989 C   0  0  0  0  0  0  0  0  0  0  0  0
    6.1754   42.9148   50.0401 N   0  0  0  0  0  0  0  0  0  0  0  0
    6.2504   42.1709   47.8921 O   0  0  0  0  0  0  0  0  0  0  0  0
    7.4778   42.6241   50.6450 C   0  0  0  0  0  2  0  0  0  0  0  0
    8.3273   43.8457   50.6109 C   0  0  0  0  0  0  0  0  0  0  0  0
    9.4675   44.0378   49.8902 N   0  0  0  0  0  0  0  0  0  0  0  0
    8.1505   45.0341   51.2904 C   0  0  0  0  0  0  0  0  0  0  0  0
    9.9302   45.2272   50.1158 O   0  0  0  0  0  0  0  0  0  0  0  0
    7.1836   45.4605   52.1762 C   0  0  0  0  0  3  0  0  0  0  0  0
    9.1774   45.8913   50.9602 C   0  0  0  0  0  0  0  0  0  0  0  0
    7.2149   46.7185   52.7402 C   0  0  0  0  0  3  0  0  0  0  0  0
    9.2420   47.1570   51.5043 C   0  0  0  0  0  3  0  0  0  0  0  0
    8.2556   47.5461   52.3865 C   0  0  0  0  0  3  0  0  0  0  0  0
    4.4187   40.6093   46.7665 O   0  0  0  0  0  0  0  0  0  0  0  0
    3.6275   39.9016   45.7937 C   0  0  0  0  0  2  0  0  0  0  0  0
    4.2120   39.9338   44.4263 C   0  0  0  0  0  3  0  0  0  0  0  0
    5.5542   40.4442   44.1508 C   0  0  0  0  0  2  0  0  0  0  0  0
    4.3659   41.3085   43.7338 C   0  0  0  0  0  2  0  0  0  0  0  0
  1  6  1  0
  1  2  2  0
  2  3  1  0
  3  4  2  0
  5  4  1  0
  6  5  2  0
  7  1  1  0
  8  7  1  0
  9  7  2  0
 10  8  1  0
 11 10  1  0
 12 11  2  0
 13 11  1  0
 14 12  1  0
 15 13  1  0
 16 14  1  0
 16 13  2  0
 17 15  2  0
 18 16  1  0
 19 18  2  0
 19 17  1  0
 20 21  1  0
 20  6  1  0
 22 23  1  0
 22 24  1  0
 22 21  1  0
 23 24  1  0
M  RAD  8   2   2   3   2   4   2   5   2  10   3  15   2  17   2  18   2
M  RAD  5  19   2  21   3  22   2  23   3  24   3
M  END
>  <REMARK>  (1) 
 SMILES O=C(NCc1noc2ccccc12)c1ccccc1OCC1CC1
 SMILES IDX 14 1 15 2 16 3 17 4 18 5 19 6 2 7 3 8 1 9 4 11 5 12 6 13
 SMILES IDX 13 14 7 15 12 16 8 17 11 18 9 19 10 20 20 21 21 22 22 23
 SMILES IDX 23 24 24 25
 H PARENT 3 10

>  <TORSDO>  (1) 
F 6

$$$$
