/home/pchatterjee/Documents/git/vs_workflow/DiffDock/diffdock_run/pdbqt_scrubbed/Z1935637461.pdbqt
     RDKit          3D

 24 27  0  0  0  0  0  0  0  0999 V2000
    8.2353   47.9071   53.5134 C   0  0  0  0  0  0  0  0  0  0  0  0
    9.2052   48.7774   53.0020 C   0  0  0  0  0  3  0  0  0  0  0  0
    9.1281   50.1401   53.1889 C   0  0  0  0  0  3  0  0  0  0  0  0
    8.1033   50.7153   53.8820 C   0  0  0  0  0  3  0  0  0  0  0  0
    7.1387   49.8739   54.3941 C   0  0  0  0  0  3  0  0  0  0  0  0
    7.2143   48.4890   54.2066 C   0  0  0  0  0  0  0  0  0  0  0  0
    8.4171   46.5066   53.2556 C   0  0  0  0  0  0  0  0  0  0  0  0
    8.3101   45.8521   52.0108 N   0  0  0  0  0  0  0  0  0  0  0  0
    8.7087   45.7677   54.2484 O   0  0  0  0  0  0  0  0  0  0  0  0
    7.1002   45.1417   51.5885 C   0  0  0  0  0  2  0  0  0  0  0  0
    7.4239   44.2385   50.4507 C   0  0  0  0  0  0  0  0  0  0  0  0
    8.6096   44.1402   49.7868 N   0  0  0  0  0  0  0  0  0  0  0  0
    6.6079   43.3162   49.8271 C   0  0  0  0  0  0  0  0  0  0  0  0
    8.5140   43.2450   48.8545 O   0  0  0  0  0  0  0  0  0  0  0  0
    5.2966   42.9459   50.0387 C   0  0  0  0  0  3  0  0  0  0  0  0
    7.3208   42.7011   48.8212 C   0  0  0  0  0  0  0  0  0  0  0  0
    4.6791   41.9791   49.2734 C   0  0  0  0  0  3  0  0  0  0  0  0
    6.7368   41.7298   48.0353 C   0  0  0  0  0  3  0  0  0  0  0  0
    5.4229   41.3874   48.2784 C   0  0  0  0  0  3  0  0  0  0  0  0
    6.1944   47.7481   54.7708 O   0  0  0  0  0  0  0  0  0  0  0  0
    4.9247   47.8868   54.1063 C   0  0  0  0  0  2  0  0  0  0  0  0
    3.8722   46.9926   54.6588 C   0  0  0  0  0  3  0  0  0  0  0  0
    4.1289   45.6008   55.0263 C   0  0  0  0  0  2  0  0  0  0  0  0
    3.3285   45.8633   53.7521 C   0  0  0  0  0  2  0  0  0  0  0  0
  1  6  1  0
  1  2  2  0
  2  3  1  0
  3  4  2  0
  5  4  1  0
  6  5  2  0
  7  1  1  0
  8  7  1  0
  9  7  2  0
 10  8  1  0
 11 10  1  0
 12 11  2  0
 13 11  1  0
 14 12  1  0
 15 13  1  0
 16 14  1  0
 16 13  2  0
 17 15  2  0
 18 16  1  0
 19 18  2  0
 19 17  1  0
 20 21  1  0
 20  6  1  0
 22 23  1  0
 22 24  1  0
 22 21  1  0
 23 24  1  0
M  RAD  8   2   2   3   2   4   2   5   2  10   3  15   2  17   2  18   2
M  RAD  5  19   2  21   3  22   2  23   3  24   3
M  END
>  <REMARK>  (1) 
 SMILES O=C(NCc1noc2ccccc12)c1ccccc1OCC1CC1
 SMILES IDX 14 1 15 2 16 3 17 4 18 5 19 6 2 7 3 8 1 9 4 11 5 12 6 13
 SMILES IDX 13 14 7 15 12 16 8 17 11 18 9 19 10 20 20 21 21 22 22 23
 SMILES IDX 23 24 24 25
 H PARENT 3 10

>  <TORSDO>  (1) 
F 6

$$$$
