/home/pchatterjee/Documents/git/vs_workflow/DiffDock/diffdock_run/pdbqt_scrubbed/Z1935637461.pdbqt
     RDKit          3D

 24 27  0  0  0  0  0  0  0  0999 V2000
    4.9894   41.3137   48.0646 C   0  0  0  0  0  0  0  0  0  0  0  0
    5.9430   41.0405   47.0768 C   0  0  0  0  0  3  0  0  0  0  0  0
    5.6586   40.2327   45.9976 C   0  0  0  0  0  3  0  0  0  0  0  0
    4.4333   39.6556   45.8328 C   0  0  0  0  0  3  0  0  0  0  0  0
    3.4807   39.9139   46.7953 C   0  0  0  0  0  3  0  0  0  0  0  0
    3.7661   40.7346   47.8926 C   0  0  0  0  0  0  0  0  0  0  0  0
    5.3977   42.1671   49.1444 C   0  0  0  0  0  0  0  0  0  0  0  0
    6.3234   43.2295   49.0829 N   0  0  0  0  0  0  0  0  0  0  0  0
    4.8729   41.9529   50.2825 O   0  0  0  0  0  0  0  0  0  0  0  0
    6.3963   44.2794   50.1023 C   0  0  0  0  0  2  0  0  0  0  0  0
    7.7742   44.8407   50.1423 C   0  0  0  0  0  0  0  0  0  0  0  0
    8.7853   44.6093   49.2589 N   0  0  0  0  0  0  0  0  0  0  0  0
    8.3229   45.7052   51.0680 C   0  0  0  0  0  0  0  0  0  0  0  0
    9.8393   45.2714   49.6199 O   0  0  0  0  0  0  0  0  0  0  0  0
    7.8068   46.3022   52.1987 C   0  0  0  0  0  3  0  0  0  0  0  0
    9.6298   45.9621   50.7152 C   0  0  0  0  0  0  0  0  0  0  0  0
    8.5601   47.1479   52.9855 C   0  0  0  0  0  3  0  0  0  0  0  0
   10.4138   46.8026   51.4776 C   0  0  0  0  0  3  0  0  0  0  0  0
    9.8607   47.3804   52.6014 C   0  0  0  0  0  3  0  0  0  0  0  0
    2.7314   40.9256   48.7873 O   0  0  0  0  0  0  0  0  0  0  0  0
    1.5672   40.1195   48.5266 C   0  0  0  0  0  2  0  0  0  0  0  0
    0.4455   40.3874   49.4660 C   0  0  0  0  0  3  0  0  0  0  0  0
    0.5387   41.3606   50.5533 C   0  0  0  0  0  2  0  0  0  0  0  0
    0.5786   39.8786   50.9209 C   0  0  0  0  0  2  0  0  0  0  0  0
  1  6  1  0
  1  2  2  0
  2  3  1  0
  3  4  2  0
  5  4  1  0
  6  5  2  0
  7  1  1  0
  8  7  1  0
  9  7  2  0
 10  8  1  0
 11 10  1  0
 12 11  2  0
 13 11  1  0
 14 12  1  0
 15 13  1  0
 16 14  1  0
 16 13  2  0
 17 15  2  0
 18 16  1  0
 19 18  2  0
 19 17  1  0
 20 21  1  0
 20  6  1  0
 22 23  1  0
 22 24  1  0
 22 21  1  0
 23 24  1  0
M  RAD  8   2   2   3   2   4   2   5   2  10   3  15   2  17   2  18   2
M  RAD  5  19   2  21   3  22   2  23   3  24   3
M  END
>  <REMARK>  (1) 
 SMILES O=C(NCc1noc2ccccc12)c1ccccc1OCC1CC1
 SMILES IDX 14 1 15 2 16 3 17 4 18 5 19 6 2 7 3 8 1 9 4 11 5 12 6 13
 SMILES IDX 13 14 7 15 12 16 8 17 11 18 9 19 10 20 20 21 21 22 22 23
 SMILES IDX 23 24 24 25
 H PARENT 3 10

>  <TORSDO>  (1) 
F 6

$$$$
