/home/pchatterjee/Documents/git/vs_workflow/DiffDock/diffdock_run/pdbqt_scrubbed/Z1935637461.pdbqt
     RDKit          3D

 24 27  0  0  0  0  0  0  0  0999 V2000
    5.8431   42.6275   49.5324 C   0  0  0  0  0  0  0  0  0  0  0  0
    5.0615   42.5557   50.6915 C   0  0  0  0  0  3  0  0  0  0  0  0
    4.0104   41.6723   50.8042 C   0  0  0  0  0  3  0  0  0  0  0  0
    3.6741   40.8200   49.7932 C   0  0  0  0  0  3  0  0  0  0  0  0
    4.4332   40.8757   48.6437 C   0  0  0  0  0  3  0  0  0  0  0  0
    5.5021   41.7714   48.5262 C   0  0  0  0  0  0  0  0  0  0  0  0
    6.9112   43.5867   49.5264 C   0  0  0  0  0  0  0  0  0  0  0  0
    6.9658   44.8002   50.2432 N   0  0  0  0  0  0  0  0  0  0  0  0
    7.9227   43.3232   48.8025 O   0  0  0  0  0  0  0  0  0  0  0  0
    8.2203   45.3778   50.7326 C   0  0  0  0  0  2  0  0  0  0  0  0
    7.9599   46.1559   51.9744 C   0  0  0  0  0  0  0  0  0  0  0  0
    6.7777   46.2741   52.6413 N   0  0  0  0  0  0  0  0  0  0  0  0
    8.8439   46.9169   52.7124 C   0  0  0  0  0  0  0  0  0  0  0  0
    6.9372   47.0332   53.6796 O   0  0  0  0  0  0  0  0  0  0  0  0
   10.1854   47.1937   52.5539 C   0  0  0  0  0  3  0  0  0  0  0  0
    8.1726   47.4611   53.7856 C   0  0  0  0  0  0  0  0  0  0  0  0
   10.8735   47.9984   53.4374 C   0  0  0  0  0  3  0  0  0  0  0  0
    8.8275   48.2706   54.6900 C   0  0  0  0  0  3  0  0  0  0  0  0
   10.1696   48.5236   54.4966 C   0  0  0  0  0  3  0  0  0  0  0  0
    6.1931   41.7315   47.3309 O   0  0  0  0  0  0  0  0  0  0  0  0
    5.3884   41.3661   46.1942 C   0  0  0  0  0  2  0  0  0  0  0  0
    6.1567   41.3215   44.9213 C   0  0  0  0  0  3  0  0  0  0  0  0
    5.8602   40.3709   43.8505 C   0  0  0  0  0  2  0  0  0  0  0  0
    7.1123   40.1271   44.6906 C   0  0  0  0  0  2  0  0  0  0  0  0
  1  6  1  0
  1  2  2  0
  2  3  1  0
  3  4  2  0
  5  4  1  0
  6  5  2  0
  7  1  1  0
  8  7  1  0
  9  7  2  0
 10  8  1  0
 11 10  1  0
 12 11  2  0
 13 11  1  0
 14 12  1  0
 15 13  1  0
 16 14  1  0
 16 13  2  0
 17 15  2  0
 18 16  1  0
 19 18  2  0
 19 17  1  0
 20 21  1  0
 20  6  1  0
 22 23  1  0
 22 24  1  0
 22 21  1  0
 23 24  1  0
M  RAD  8   2   2   3   2   4   2   5   2  10   3  15   2  17   2  18   2
M  RAD  5  19   2  21   3  22   2  23   3  24   3
M  END
>  <REMARK>  (1) 
 SMILES O=C(NCc1noc2ccccc12)c1ccccc1OCC1CC1
 SMILES IDX 14 1 15 2 16 3 17 4 18 5 19 6 2 7 3 8 1 9 4 11 5 12 6 13
 SMILES IDX 13 14 7 15 12 16 8 17 11 18 9 19 10 20 20 21 21 22 22 23
 SMILES IDX 23 24 24 25
 H PARENT 3 10

>  <TORSDO>  (1) 
F 6

$$$$
