/home/pchatterjee/Documents/git/vs_workflow/DiffDock/diffdock_run/pdbqt_scrubbed/Z1935637461.pdbqt
     RDKit          3D

 24 27  0  0  0  0  0  0  0  0999 V2000
   11.0003   65.4028   82.5854 C   0  0  0  0  0  0  0  0  0  0  0  0
   11.9567   66.2813   82.0628 C   0  0  0  0  0  3  0  0  0  0  0  0
   11.5990   67.3831   81.3171 C   0  0  0  0  0  3  0  0  0  0  0  0
   10.2944   67.6780   81.0477 C   0  0  0  0  0  3  0  0  0  0  0  0
    9.3380   66.8245   81.5549 C   0  0  0  0  0  3  0  0  0  0  0  0
    9.6978   65.7046   82.3134 C   0  0  0  0  0  0  0  0  0  0  0  0
   11.4885   64.2871   83.3455 C   0  0  0  0  0  0  0  0  0  0  0  0
   12.7593   63.6834   83.2458 N   0  0  0  0  0  0  0  0  0  0  0  0
   10.6998   63.7824   84.2057 O   0  0  0  0  0  0  0  0  0  0  0  0
   13.1688   62.5518   84.0817 C   0  0  0  0  0  2  0  0  0  0  0  0
   14.5205   62.0880   83.6656 C   0  0  0  0  0  0  0  0  0  0  0  0
   15.2681   62.5525   82.6255 N   0  0  0  0  0  0  0  0  0  0  0  0
   15.3021   61.1013   84.2320 C   0  0  0  0  0  0  0  0  0  0  0  0
   16.3904   61.9064   82.5731 O   0  0  0  0  0  0  0  0  0  0  0  0
   15.1023   60.2650   85.3099 C   0  0  0  0  0  3  0  0  0  0  0  0
   16.4796   61.0060   83.5228 C   0  0  0  0  0  0  0  0  0  0  0  0
   16.0458   59.3372   85.6980 C   0  0  0  0  0  3  0  0  0  0  0  0
   17.4464   60.0901   83.8812 C   0  0  0  0  0  3  0  0  0  0  0  0
   17.2088   59.2714   84.9656 C   0  0  0  0  0  3  0  0  0  0  0  0
    8.6530   64.9272   82.7731 O   0  0  0  0  0  0  0  0  0  0  0  0
    7.4586   65.0079   81.9730 C   0  0  0  0  0  2  0  0  0  0  0  0
    6.3680   64.1188   82.4551 C   0  0  0  0  0  3  0  0  0  0  0  0
    5.1152   64.6312   83.0083 C   0  0  0  0  0  2  0  0  0  0  0  0
    6.1264   64.0264   83.9803 C   0  0  0  0  0  2  0  0  0  0  0  0
  1  6  1  0
  1  2  2  0
  2  3  1  0
  3  4  2  0
  5  4  1  0
  6  5  2  0
  7  1  1  0
  8  7  1  0
  9  7  2  0
 10  8  1  0
 11 10  1  0
 12 11  2  0
 13 11  1  0
 14 12  1  0
 15 13  1  0
 16 14  1  0
 16 13  2  0
 17 15  2  0
 18 16  1  0
 19 18  2  0
 19 17  1  0
 20 21  1  0
 20  6  1  0
 22 23  1  0
 22 24  1  0
 22 21  1  0
 23 24  1  0
M  RAD  8   2   2   3   2   4   2   5   2  10   3  15   2  17   2  18   2
M  RAD  5  19   2  21   3  22   2  23   3  24   3
M  END
>  <REMARK>  (1) 
 SMILES O=C(NCc1noc2ccccc12)c1ccccc1OCC1CC1
 SMILES IDX 14 1 15 2 16 3 17 4 18 5 19 6 2 7 3 8 1 9 4 11 5 12 6 13
 SMILES IDX 13 14 7 15 12 16 8 17 11 18 9 19 10 20 20 21 21 22 22 23
 SMILES IDX 23 24 24 25
 H PARENT 3 10

>  <TORSDO>  (1) 
F 6

$$$$
