/home/pchatterjee/Documents/git/vs_workflow/DiffDock/diffdock_run/pdbqt_scrubbed/Z1935637461.pdbqt
     RDKit          3D

 24 27  0  0  0  0  0  0  0  0999 V2000
    4.6994   41.8527   48.9194 C   0  0  0  0  0  0  0  0  0  0  0  0
    5.4696   41.0282   48.0908 C   0  0  0  0  0  3  0  0  0  0  0  0
    4.8911   40.1280   47.2231 C   0  0  0  0  0  3  0  0  0  0  0  0
    3.5372   39.9910   47.1242 C   0  0  0  0  0  3  0  0  0  0  0  0
    2.7619   40.7952   47.9321 C   0  0  0  0  0  3  0  0  0  0  0  0
    3.3464   41.7113   48.8142 C   0  0  0  0  0  0  0  0  0  0  0  0
    5.4099   42.7513   49.7847 C   0  0  0  0  0  0  0  0  0  0  0  0
    6.7890   42.7324   50.0795 N   0  0  0  0  0  0  0  0  0  0  0  0
    4.7337   43.6680   50.3492 O   0  0  0  0  0  0  0  0  0  0  0  0
    7.3445   43.2884   51.3162 C   0  0  0  0  0  2  0  0  0  0  0  0
    8.4436   44.2363   50.9871 C   0  0  0  0  0  0  0  0  0  0  0  0
    9.2987   44.1726   49.9283 N   0  0  0  0  0  0  0  0  0  0  0  0
    8.8331   45.3706   51.6706 C   0  0  0  0  0  0  0  0  0  0  0  0
   10.1220   45.1726   49.9724 O   0  0  0  0  0  0  0  0  0  0  0  0
    8.3605   45.9686   52.8196 C   0  0  0  0  0  3  0  0  0  0  0  0
    9.8964   45.9447   51.0085 C   0  0  0  0  0  0  0  0  0  0  0  0
    8.9208   47.1231   53.3245 C   0  0  0  0  0  3  0  0  0  0  0  0
   10.4825   47.0992   51.4834 C   0  0  0  0  0  3  0  0  0  0  0  0
    9.9807   47.6669   52.6361 C   0  0  0  0  0  3  0  0  0  0  0  0
    2.4689   42.4664   49.5675 O   0  0  0  0  0  0  0  0  0  0  0  0
    1.5826   41.6917   50.3966 C   0  0  0  0  0  2  0  0  0  0  0  0
    0.7821   42.5219   51.3360 C   0  0  0  0  0  3  0  0  0  0  0  0
    0.6890   43.9769   51.2241 C   0  0  0  0  0  2  0  0  0  0  0  0
    1.5420   43.4043   52.3544 C   0  0  0  0  0  2  0  0  0  0  0  0
  1  6  1  0
  1  2  2  0
  2  3  1  0
  3  4  2  0
  5  4  1  0
  6  5  2  0
  7  1  1  0
  8  7  1  0
  9  7  2  0
 10  8  1  0
 11 10  1  0
 12 11  2  0
 13 11  1  0
 14 12  1  0
 15 13  1  0
 16 14  1  0
 16 13  2  0
 17 15  2  0
 18 16  1  0
 19 18  2  0
 19 17  1  0
 20 21  1  0
 20  6  1  0
 22 23  1  0
 22 24  1  0
 22 21  1  0
 23 24  1  0
M  RAD  8   2   2   3   2   4   2   5   2  10   3  15   2  17   2  18   2
M  RAD  5  19   2  21   3  22   2  23   3  24   3
M  END
>  <REMARK>  (1) 
 SMILES O=C(NCc1noc2ccccc12)c1ccccc1OCC1CC1
 SMILES IDX 14 1 15 2 16 3 17 4 18 5 19 6 2 7 3 8 1 9 4 11 5 12 6 13
 SMILES IDX 13 14 7 15 12 16 8 17 11 18 9 19 10 20 20 21 21 22 22 23
 SMILES IDX 23 24 24 25
 H PARENT 3 10

>  <TORSDO>  (1) 
F 6

$$$$
