/home/pchatterjee/Documents/git/vs_workflow/DiffDock/diffdock_run/pdbqt_scrubbed/Z1935637461.pdbqt
     RDKit          3D

 24 27  0  0  0  0  0  0  0  0999 V2000
    4.8653   41.3155   48.2713 C   0  0  0  0  0  0  0  0  0  0  0  0
    5.8334   40.9106   47.3447 C   0  0  0  0  0  3  0  0  0  0  0  0
    5.5212   40.0960   46.2785 C   0  0  0  0  0  3  0  0  0  0  0  0
    4.2527   39.6399   46.0676 C   0  0  0  0  0  3  0  0  0  0  0  0
    3.2853   40.0289   46.9695 C   0  0  0  0  0  3  0  0  0  0  0  0
    3.5989   40.8569   48.0534 C   0  0  0  0  0  0  0  0  0  0  0  0
    5.3052   42.1630   49.3433 C   0  0  0  0  0  0  0  0  0  0  0  0
    6.4588   42.9743   49.3649 N   0  0  0  0  0  0  0  0  0  0  0  0
    4.5838   42.1954   50.3898 O   0  0  0  0  0  0  0  0  0  0  0  0
    6.5130   44.2594   50.0667 C   0  0  0  0  0  2  0  0  0  0  0  0
    7.9323   44.6327   50.3144 C   0  0  0  0  0  0  0  0  0  0  0  0
    9.0421   44.0733   49.7560 N   0  0  0  0  0  0  0  0  0  0  0  0
    8.4295   45.6119   51.1507 C   0  0  0  0  0  0  0  0  0  0  0  0
   10.1031   44.6605   50.2133 O   0  0  0  0  0  0  0  0  0  0  0  0
    7.8122   46.5180   51.9869 C   0  0  0  0  0  3  0  0  0  0  0  0
    9.8049   45.6092   51.0687 C   0  0  0  0  0  0  0  0  0  0  0  0
    8.5309   47.4203   52.7425 C   0  0  0  0  0  3  0  0  0  0  0  0
   10.5571   46.4968   51.8093 C   0  0  0  0  0  3  0  0  0  0  0  0
    9.9022   47.3875   52.6342 C   0  0  0  0  0  3  0  0  0  0  0  0
    2.5464   41.1848   48.8855 O   0  0  0  0  0  0  0  0  0  0  0  0
    1.5902   40.1252   49.0757 C   0  0  0  0  0  2  0  0  0  0  0  0
    0.4756   40.4972   49.9877 C   0  0  0  0  0  3  0  0  0  0  0  0
    0.5391   41.6486   50.8867 C   0  0  0  0  0  2  0  0  0  0  0  0
    0.6663   40.2573   51.5040 C   0  0  0  0  0  2  0  0  0  0  0  0
  1  6  1  0
  1  2  2  0
  2  3  1  0
  3  4  2  0
  5  4  1  0
  6  5  2  0
  7  1  1  0
  8  7  1  0
  9  7  2  0
 10  8  1  0
 11 10  1  0
 12 11  2  0
 13 11  1  0
 14 12  1  0
 15 13  1  0
 16 14  1  0
 16 13  2  0
 17 15  2  0
 18 16  1  0
 19 18  2  0
 19 17  1  0
 20 21  1  0
 20  6  1  0
 22 23  1  0
 22 24  1  0
 22 21  1  0
 23 24  1  0
M  RAD  8   2   2   3   2   4   2   5   2  10   3  15   2  17   2  18   2
M  RAD  5  19   2  21   3  22   2  23   3  24   3
M  END
>  <REMARK>  (1) 
 SMILES O=C(NCc1noc2ccccc12)c1ccccc1OCC1CC1
 SMILES IDX 14 1 15 2 16 3 17 4 18 5 19 6 2 7 3 8 1 9 4 11 5 12 6 13
 SMILES IDX 13 14 7 15 12 16 8 17 11 18 9 19 10 20 20 21 21 22 22 23
 SMILES IDX 23 24 24 25
 H PARENT 3 10

>  <TORSDO>  (1) 
F 6

$$$$
