/home/pchatterjee/Documents/git/vs_workflow/DiffDock/diffdock_run/pdbqt_scrubbed/Z1935637461.pdbqt
     RDKit          3D

 24 27  0  0  0  0  0  0  0  0999 V2000
    6.2539   46.0538   52.1824 C   0  0  0  0  0  0  0  0  0  0  0  0
    4.8816   45.7771   52.1894 C   0  0  0  0  0  3  0  0  0  0  0  0
    4.0147   46.4279   53.0396 C   0  0  0  0  0  3  0  0  0  0  0  0
    4.4458   47.3766   53.9204 C   0  0  0  0  0  3  0  0  0  0  0  0
    5.7943   47.6632   53.9274 C   0  0  0  0  0  3  0  0  0  0  0  0
    6.6777   47.0044   53.0645 C   0  0  0  0  0  0  0  0  0  0  0  0
    7.0620   45.3133   51.2553 C   0  0  0  0  0  0  0  0  0  0  0  0
    6.6688   44.8171   49.9949 N   0  0  0  0  0  0  0  0  0  0  0  0
    8.2638   45.0755   51.5955 O   0  0  0  0  0  0  0  0  0  0  0  0
    7.1142   43.5206   49.4775 C   0  0  0  0  0  2  0  0  0  0  0  0
    5.9771   42.5605   49.4923 C   0  0  0  0  0  0  0  0  0  0  0  0
    5.1466   42.2813   50.5357 N   0  0  0  0  0  0  0  0  0  0  0  0
    5.5203   41.7543   48.4692 C   0  0  0  0  0  0  0  0  0  0  0  0
    4.2753   41.3929   50.1733 O   0  0  0  0  0  0  0  0  0  0  0  0
    5.9412   41.5801   47.1677 C   0  0  0  0  0  3  0  0  0  0  0  0
    4.4434   41.0257   48.9252 C   0  0  0  0  0  0  0  0  0  0  0  0
    5.3163   40.6989   46.3108 C   0  0  0  0  0  3  0  0  0  0  0  0
    3.7932   40.1349   48.0971 C   0  0  0  0  0  3  0  0  0  0  0  0
    4.2447   39.9892   46.8019 C   0  0  0  0  0  3  0  0  0  0  0  0
    8.0035   47.3798   53.1580 O   0  0  0  0  0  0  0  0  0  0  0  0
    8.2942   48.2549   54.2639 C   0  0  0  0  0  2  0  0  0  0  0  0
    9.7513   48.4314   54.5054 C   0  0  0  0  0  3  0  0  0  0  0  0
   10.7684   47.6201   53.8379 C   0  0  0  0  0  2  0  0  0  0  0  0
   10.4916   47.3397   55.3137 C   0  0  0  0  0  2  0  0  0  0  0  0
  1  6  1  0
  1  2  2  0
  2  3  1  0
  3  4  2  0
  5  4  1  0
  6  5  2  0
  7  1  1  0
  8  7  1  0
  9  7  2  0
 10  8  1  0
 11 10  1  0
 12 11  2  0
 13 11  1  0
 14 12  1  0
 15 13  1  0
 16 14  1  0
 16 13  2  0
 17 15  2  0
 18 16  1  0
 19 18  2  0
 19 17  1  0
 20 21  1  0
 20  6  1  0
 22 23  1  0
 22 24  1  0
 22 21  1  0
 23 24  1  0
M  RAD  8   2   2   3   2   4   2   5   2  10   3  15   2  17   2  18   2
M  RAD  5  19   2  21   3  22   2  23   3  24   3
M  END
>  <REMARK>  (1) 
 SMILES O=C(NCc1noc2ccccc12)c1ccccc1OCC1CC1
 SMILES IDX 14 1 15 2 16 3 17 4 18 5 19 6 2 7 3 8 1 9 4 11 5 12 6 13
 SMILES IDX 13 14 7 15 12 16 8 17 11 18 9 19 10 20 20 21 21 22 22 23
 SMILES IDX 23 24 24 25
 H PARENT 3 10

>  <TORSDO>  (1) 
F 6

$$$$
