/home/pchatterjee/Documents/git/vs_workflow/DiffDock/diffdock_run/pdbqt_scrubbed/Z1935637461.pdbqt
     RDKit          3D

 24 27  0  0  0  0  0  0  0  0999 V2000
    4.8888   41.4774   48.1677 C   0  0  0  0  0  0  0  0  0  0  0  0
    5.7276   41.4702   47.0470 C   0  0  0  0  0  3  0  0  0  0  0  0
    5.4329   40.7273   45.9249 C   0  0  0  0  0  3  0  0  0  0  0  0
    4.3084   39.9587   45.8447 C   0  0  0  0  0  3  0  0  0  0  0  0
    3.4695   39.9537   46.9387 C   0  0  0  0  0  3  0  0  0  0  0  0
    3.7656   40.7078   48.0800 C   0  0  0  0  0  0  0  0  0  0  0  0
    5.2971   42.2870   49.2807 C   0  0  0  0  0  0  0  0  0  0  0  0
    6.4579   43.0831   49.3702 N   0  0  0  0  0  0  0  0  0  0  0  0
    4.5369   42.2969   50.2998 O   0  0  0  0  0  0  0  0  0  0  0  0
    6.5770   44.2126   50.2959 C   0  0  0  0  0  2  0  0  0  0  0  0
    8.0099   44.5866   50.4445 C   0  0  0  0  0  0  0  0  0  0  0  0
    9.0776   44.0337   49.8037 N   0  0  0  0  0  0  0  0  0  0  0  0
    8.5643   45.5600   51.2509 C   0  0  0  0  0  0  0  0  0  0  0  0
   10.1678   44.6192   50.1887 O   0  0  0  0  0  0  0  0  0  0  0  0
    8.0073   46.4583   52.1364 C   0  0  0  0  0  3  0  0  0  0  0  0
    9.9304   45.5606   51.0708 C   0  0  0  0  0  0  0  0  0  0  0  0
    8.7770   47.3560   52.8458 C   0  0  0  0  0  3  0  0  0  0  0  0
   10.7325   46.4437   51.7629 C   0  0  0  0  0  3  0  0  0  0  0  0
   10.1370   47.3266   52.6395 C   0  0  0  0  0  3  0  0  0  0  0  0
    2.8482   40.6284   49.1093 O   0  0  0  0  0  0  0  0  0  0  0  0
    1.5584   40.1243   48.7149 C   0  0  0  0  0  2  0  0  0  0  0  0
    0.6129   39.9762   49.8536 C   0  0  0  0  0  3  0  0  0  0  0  0
   -0.5876   40.7984   49.9979 C   0  0  0  0  0  2  0  0  0  0  0  0
    0.5887   41.0891   50.9278 C   0  0  0  0  0  2  0  0  0  0  0  0
  1  6  1  0
  1  2  2  0
  2  3  1  0
  3  4  2  0
  5  4  1  0
  6  5  2  0
  7  1  1  0
  8  7  1  0
  9  7  2  0
 10  8  1  0
 11 10  1  0
 12 11  2  0
 13 11  1  0
 14 12  1  0
 15 13  1  0
 16 14  1  0
 16 13  2  0
 17 15  2  0
 18 16  1  0
 19 18  2  0
 19 17  1  0
 20 21  1  0
 20  6  1  0
 22 23  1  0
 22 24  1  0
 22 21  1  0
 23 24  1  0
M  RAD  8   2   2   3   2   4   2   5   2  10   3  15   2  17   2  18   2
M  RAD  5  19   2  21   3  22   2  23   3  24   3
M  END
>  <REMARK>  (1) 
 SMILES O=C(NCc1noc2ccccc12)c1ccccc1OCC1CC1
 SMILES IDX 14 1 15 2 16 3 17 4 18 5 19 6 2 7 3 8 1 9 4 11 5 12 6 13
 SMILES IDX 13 14 7 15 12 16 8 17 11 18 9 19 10 20 20 21 21 22 22 23
 SMILES IDX 23 24 24 25
 H PARENT 3 10

>  <TORSDO>  (1) 
F 6

$$$$
