/home/pchatterjee/Documents/git/vs_workflow/DiffDock/diffdock_run/pdbqt_scrubbed/Z1935637461.pdbqt
     RDKit          3D

 24 27  0  0  0  0  0  0  0  0999 V2000
    7.1973   46.9356   53.5444 C   0  0  0  0  0  0  0  0  0  0  0  0
    5.8768   46.5161   53.3450 C   0  0  0  0  0  3  0  0  0  0  0  0
    4.8290   47.0536   54.0600 C   0  0  0  0  0  3  0  0  0  0  0  0
    5.0210   48.0232   55.0004 C   0  0  0  0  0  3  0  0  0  0  0  0
    6.3150   48.4499   55.2102 C   0  0  0  0  0  3  0  0  0  0  0  0
    7.3817   47.9065   54.4852 C   0  0  0  0  0  0  0  0  0  0  0  0
    8.2083   46.3044   52.7442 C   0  0  0  0  0  0  0  0  0  0  0  0
    8.0146   45.3149   51.7578 N   0  0  0  0  0  0  0  0  0  0  0  0
    9.4108   46.6705   52.9349 O   0  0  0  0  0  0  0  0  0  0  0  0
    8.0489   45.6069   50.3224 C   0  0  0  0  0  2  0  0  0  0  0  0
    7.8008   44.3571   49.5533 C   0  0  0  0  0  0  0  0  0  0  0  0
    8.6712   43.7086   48.7298 N   0  0  0  0  0  0  0  0  0  0  0  0
    6.6531   43.5917   49.5051 C   0  0  0  0  0  0  0  0  0  0  0  0
    8.1005   42.6553   48.2352 O   0  0  0  0  0  0  0  0  0  0  0  0
    5.4250   43.7227   50.1183 C   0  0  0  0  0  3  0  0  0  0  0  0
    6.8683   42.5213   48.6647 C   0  0  0  0  0  0  0  0  0  0  0  0
    4.4076   42.8145   49.9149 C   0  0  0  0  0  3  0  0  0  0  0  0
    5.8745   41.5926   48.4370 C   0  0  0  0  0  3  0  0  0  0  0  0
    4.6598   41.7589   49.0692 C   0  0  0  0  0  3  0  0  0  0  0  0
    8.6312   48.4172   54.7775 O   0  0  0  0  0  0  0  0  0  0  0  0
    8.7248   49.0500   56.0675 C   0  0  0  0  0  2  0  0  0  0  0  0
   10.1216   49.3760   56.4613 C   0  0  0  0  0  3  0  0  0  0  0  0
   11.2871   48.8598   55.7449 C   0  0  0  0  0  2  0  0  0  0  0  0
   10.9718   48.2606   57.1140 C   0  0  0  0  0  2  0  0  0  0  0  0
  1  6  1  0
  1  2  2  0
  2  3  1  0
  3  4  2  0
  5  4  1  0
  6  5  2  0
  7  1  1  0
  8  7  1  0
  9  7  2  0
 10  8  1  0
 11 10  1  0
 12 11  2  0
 13 11  1  0
 14 12  1  0
 15 13  1  0
 16 14  1  0
 16 13  2  0
 17 15  2  0
 18 16  1  0
 19 18  2  0
 19 17  1  0
 20 21  1  0
 20  6  1  0
 22 23  1  0
 22 24  1  0
 22 21  1  0
 23 24  1  0
M  RAD  8   2   2   3   2   4   2   5   2  10   3  15   2  17   2  18   2
M  RAD  5  19   2  21   3  22   2  23   3  24   3
M  END
>  <REMARK>  (1) 
 SMILES O=C(NCc1noc2ccccc12)c1ccccc1OCC1CC1
 SMILES IDX 14 1 15 2 16 3 17 4 18 5 19 6 2 7 3 8 1 9 4 11 5 12 6 13
 SMILES IDX 13 14 7 15 12 16 8 17 11 18 9 19 10 20 20 21 21 22 22 23
 SMILES IDX 23 24 24 25
 H PARENT 3 10

>  <TORSDO>  (1) 
F 6

$$$$
