/home/pchatterjee/Documents/git/vs_workflow/DiffDock/diffdock_run/pdbqt_scrubbed/Z811085044.pdbqt
     RDKit          3D

 26 29  0  0  1  0  0  0  0  0999 V2000
    6.4782   46.4286   53.8177 C   0  0  0  0  0  0  0  0  0  0  0  0
    6.6499   47.1118   54.8656 O   0  0  0  0  0  0  0  0  0  0  0  0
    7.6267   46.3164   52.9321 C   0  0  0  0  0  0  0  0  0  0  0  0
    8.7633   44.4316   49.9705 C   0  0  0  0  0  0  0  0  0  0  0  0
    9.9859   44.6756   49.4622 N   0  0  0  0  0  0  0  0  0  0  0  0
    8.6267   45.2776   51.0578 C   0  0  0  0  0  0  0  0  0  0  0  0
   10.5843   45.6242   50.1924 N   0  0  0  0  0  0  0  0  0  0  0  0
    7.5456   45.3989   51.9035 C   0  0  0  0  0  3  0  0  0  0  0  0
    9.7772   46.0200   51.1859 C   0  0  0  0  0  0  0  0  0  0  0  0
    9.8206   46.9036   52.1997 N   0  0  0  0  0  0  0  0  0  0  0  0
    8.7830   47.0466   53.0419 C   0  0  0  0  0  3  0  0  0  0  0  0
    7.7395   43.4463   49.4756 C   0  0  0  0  0  1  0  0  0  0  0  0
    5.2648   45.7870   53.4792 N   0  0  0  0  0  0  0  0  0  0  0  0
    4.0936   45.7069   54.3022 C   0  0  0  0  0  2  0  0  0  0  0  0
    2.8200   46.1028   53.6987 C   0  0  0  0  0  0  0  0  0  0  0  0
    1.6701   45.3059   53.8036 C   0  0  0  0  0  3  0  0  0  0  0  0
    2.6381   47.3019   52.9962 C   0  0  0  0  0  3  0  0  0  0  0  0
    0.4629   45.6828   53.2549 C   0  0  0  0  0  3  0  0  0  0  0  0
    1.4324   47.6775   52.4480 C   0  0  0  0  0  3  0  0  0  0  0  0
    0.3275   46.8672   52.5723 C   0  0  0  0  0  3  0  0  0  0  0  0
    5.1544   45.1042   52.1694 C   0  0  0  0  0  2  0  0  0  0  0  0
    5.1287   43.6202   52.3199 C   0  0  0  0  0  3  0  0  0  0  0  0
    4.0235   43.2050   53.2627 C   0  0  0  0  0  2  0  0  0  0  0  0
    4.8864   43.0334   51.0903 O   0  0  0  0  0  0  0  0  0  0  0  0
    2.8689   42.9532   52.2891 C   0  0  0  0  0  2  0  0  0  0  0  0
    3.6732   42.3737   51.1276 C   0  0  0  0  0  2  0  0  0  0  0  0
  1  2  2  0
  3  1  1  0
  4 12  1  0
  4  6  2  0
  5  4  1  0
  6  8  1  0
  7  5  1  0
  7  9  2  0
  8  3  2  0
  9 10  1  0
  9  6  1  0
 10 11  2  0
 11  3  1  0
 13  1  1  0
 13 21  1  0
 14 13  1  0
 15 14  1  0
 15 16  2  0
 17 15  1  0
 18 16  1  0
 19 17  2  0
 19 20  1  0
 20 18  2  0
 22 21  1  0
 22 24  1  0
 23 22  1  0
 25 23  1  0
 25 26  1  0
 26 24  1  0
M  RAD  8   8   2  11   2  12   2  14   3  16   2  17   2  18   2  19   2
M  RAD  6  20   2  21   3  22   2  23   3  25   3  26   3
M  END
>  <REMARK>  (1) 
 SMILES Cc1[nH]nc2ncc(C(=O)N(Cc3ccccc3)CC3CCCO3)cc12
 SMILES IDX 9 1 10 2 8 3 2 4 3 5 26 6 4 7 25 8 5 9 6 10 7 11 1 12 11 14
 SMILES IDX 12 15 13 16 14 17 18 18 15 19 17 20 16 21 19 22 20 23 21 24
 SMILES IDX 24 25 22 26 23 27
 H PARENT 3 13

>  <TORSDO>  (1) 
F 6

$$$$
