/home/pchatterjee/Documents/git/vs_workflow/DiffDock/diffdock_run/pdbqt_scrubbed/Z811085044.pdbqt
     RDKit          3D

 26 29  0  0  1  0  0  0  0  0999 V2000
    7.2540   47.5266   53.8011 C   0  0  0  0  0  0  0  0  0  0  0  0
    7.7089   48.2951   54.6938 O   0  0  0  0  0  0  0  0  0  0  0  0
    8.2389   46.9060   52.9289 C   0  0  0  0  0  0  0  0  0  0  0  0
    8.4874   44.3390   50.2899 C   0  0  0  0  0  0  0  0  0  0  0  0
    9.6850   44.0796   49.7323 N   0  0  0  0  0  0  0  0  0  0  0  0
    8.7113   45.3300   51.2303 C   0  0  0  0  0  0  0  0  0  0  0  0
   10.6109   44.8662   50.2935 N   0  0  0  0  0  0  0  0  0  0  0  0
    7.7902   45.9305   52.0609 C   0  0  0  0  0  3  0  0  0  0  0  0
   10.0485   45.6510   51.2224 C   0  0  0  0  0  0  0  0  0  0  0  0
   10.4494   46.6057   52.0817 N   0  0  0  0  0  0  0  0  0  0  0  0
    9.5762   47.2111   52.9047 C   0  0  0  0  0  3  0  0  0  0  0  0
    7.1645   43.6959   49.9728 C   0  0  0  0  0  1  0  0  0  0  0  0
    5.8799   47.2482   53.6194 N   0  0  0  0  0  0  0  0  0  0  0  0
    5.3263   46.2789   52.7199 C   0  0  0  0  0  2  0  0  0  0  0  0
    3.9225   45.9099   52.9106 C   0  0  0  0  0  0  0  0  0  0  0  0
    3.5260   44.9770   53.8805 C   0  0  0  0  0  3  0  0  0  0  0  0
    2.8708   46.4647   52.1687 C   0  0  0  0  0  3  0  0  0  0  0  0
    2.2040   44.6405   54.0785 C   0  0  0  0  0  3  0  0  0  0  0  0
    1.5507   46.1278   52.3665 C   0  0  0  0  0  3  0  0  0  0  0  0
    1.2028   45.2073   53.3281 C   0  0  0  0  0  3  0  0  0  0  0  0
    4.8821   48.0195   54.3964 C   0  0  0  0  0  2  0  0  0  0  0  0
    5.3467   49.4114   54.6656 C   0  0  0  0  0  3  0  0  0  0  0  0
    5.6525   50.1250   53.3694 C   0  0  0  0  0  2  0  0  0  0  0  0
    4.3496   50.1152   55.3177 O   0  0  0  0  0  0  0  0  0  0  0  0
    4.3162   50.8124   53.0757 C   0  0  0  0  0  2  0  0  0  0  0  0
    3.9126   51.1471   54.5098 C   0  0  0  0  0  2  0  0  0  0  0  0
  1  2  2  0
  3  1  1  0
  4 12  1  0
  4  6  2  0
  5  4  1  0
  6  8  1  0
  7  5  1  0
  7  9  2  0
  8  3  2  0
  9 10  1  0
  9  6  1  0
 10 11  2  0
 11  3  1  0
 13  1  1  0
 13 21  1  0
 14 13  1  0
 15 14  1  0
 15 16  2  0
 17 15  1  0
 18 16  1  0
 19 17  2  0
 19 20  1  0
 20 18  2  0
 22 21  1  0
 22 24  1  0
 23 22  1  0
 25 23  1  0
 25 26  1  0
 26 24  1  0
M  RAD  8   8   2  11   2  12   2  14   3  16   2  17   2  18   2  19   2
M  RAD  6  20   2  21   3  22   2  23   3  25   3  26   3
M  END
>  <REMARK>  (1) 
 SMILES Cc1[nH]nc2ncc(C(=O)N(Cc3ccccc3)CC3CCCO3)cc12
 SMILES IDX 9 1 10 2 8 3 2 4 3 5 26 6 4 7 25 8 5 9 6 10 7 11 1 12 11 14
 SMILES IDX 12 15 13 16 14 17 18 18 15 19 17 20 16 21 19 22 20 23 21 24
 SMILES IDX 24 25 22 26 23 27
 H PARENT 3 13

>  <TORSDO>  (1) 
F 6

$$$$
