/home/pchatterjee/Documents/git/vs_workflow/DiffDock/diffdock_run/pdbqt_scrubbed/Z811085044.pdbqt
     RDKit          3D

 26 29  0  0  1  0  0  0  0  0999 V2000
    6.5088   45.7474   53.6542 C   0  0  0  0  0  0  0  0  0  0  0  0
    6.2958   44.7382   54.3826 O   0  0  0  0  0  0  0  0  0  0  0  0
    7.5673   45.6107   52.6658 C   0  0  0  0  0  0  0  0  0  0  0  0
    8.2703   43.9149   49.4649 C   0  0  0  0  0  0  0  0  0  0  0  0
    9.4681   44.0884   48.8754 N   0  0  0  0  0  0  0  0  0  0  0  0
    8.3063   44.6634   50.6290 C   0  0  0  0  0  0  0  0  0  0  0  0
   10.2159   44.9024   49.6300 N   0  0  0  0  0  0  0  0  0  0  0  0
    7.3125   44.8065   51.5727 C   0  0  0  0  0  3  0  0  0  0  0  0
    9.5335   45.2775   50.7203 C   0  0  0  0  0  0  0  0  0  0  0  0
    9.7462   46.0530   51.7990 N   0  0  0  0  0  0  0  0  0  0  0  0
    8.7975   46.2138   52.7374 C   0  0  0  0  0  3  0  0  0  0  0  0
    7.1152   43.0828   48.9776 C   0  0  0  0  0  1  0  0  0  0  0  0
    5.7887   46.9602   53.7492 N   0  0  0  0  0  0  0  0  0  0  0  0
    6.0537   48.0302   54.6656 C   0  0  0  0  0  2  0  0  0  0  0  0
    7.4234   48.5439   54.7209 C   0  0  0  0  0  0  0  0  0  0  0  0
    7.9320   49.4071   53.7387 C   0  0  0  0  0  3  0  0  0  0  0  0
    8.3207   48.2407   55.7539 C   0  0  0  0  0  3  0  0  0  0  0  0
    9.2141   49.9101   53.7958 C   0  0  0  0  0  3  0  0  0  0  0  0
    9.6012   48.7429   55.8102 C   0  0  0  0  0  3  0  0  0  0  0  0
   10.0629   49.5866   54.8263 C   0  0  0  0  0  3  0  0  0  0  0  0
    4.6324   47.1811   52.8500 C   0  0  0  0  0  2  0  0  0  0  0  0
    3.8516   45.9281   52.6354 C   0  0  0  0  0  3  0  0  0  0  0  0
    3.5265   45.2762   53.9591 C   0  0  0  0  0  2  0  0  0  0  0  0
    2.6592   46.2276   52.0006 O   0  0  0  0  0  0  0  0  0  0  0  0
    2.1513   45.8756   54.2660 C   0  0  0  0  0  2  0  0  0  0  0  0
    1.6041   45.9303   52.8415 C   0  0  0  0  0  2  0  0  0  0  0  0
  1  2  2  0
  3  1  1  0
  4 12  1  0
  4  6  2  0
  5  4  1  0
  6  8  1  0
  7  5  1  0
  7  9  2  0
  8  3  2  0
  9 10  1  0
  9  6  1  0
 10 11  2  0
 11  3  1  0
 13  1  1  0
 13 21  1  0
 14 13  1  0
 15 14  1  0
 15 16  2  0
 17 15  1  0
 18 16  1  0
 19 17  2  0
 19 20  1  0
 20 18  2  0
 22 21  1  0
 22 24  1  0
 23 22  1  0
 25 23  1  0
 25 26  1  0
 26 24  1  0
M  RAD  8   8   2  11   2  12   2  14   3  16   2  17   2  18   2  19   2
M  RAD  6  20   2  21   3  22   2  23   3  25   3  26   3
M  END
>  <REMARK>  (1) 
 SMILES Cc1[nH]nc2ncc(C(=O)N(Cc3ccccc3)CC3CCCO3)cc12
 SMILES IDX 9 1 10 2 8 3 2 4 3 5 26 6 4 7 25 8 5 9 6 10 7 11 1 12 11 14
 SMILES IDX 12 15 13 16 14 17 18 18 15 19 17 20 16 21 19 22 20 23 21 24
 SMILES IDX 24 25 22 26 23 27
 H PARENT 3 13

>  <TORSDO>  (1) 
F 6

$$$$
