/home/pchatterjee/Documents/git/vs_workflow/DiffDock/diffdock_run/pdbqt_scrubbed/Z811085044.pdbqt
     RDKit          3D

 26 29  0  0  1  0  0  0  0  0999 V2000
    5.7906   46.5632   53.3453 C   0  0  0  0  0  0  0  0  0  0  0  0
    5.6924   47.3938   54.2914 O   0  0  0  0  0  0  0  0  0  0  0  0
    7.1141   46.4135   52.7607 C   0  0  0  0  0  0  0  0  0  0  0  0
    8.8667   44.4990   50.1379 C   0  0  0  0  0  0  0  0  0  0  0  0
   10.1831   44.7015   49.9413 N   0  0  0  0  0  0  0  0  0  0  0  0
    8.5006   45.3460   51.1700 C   0  0  0  0  0  0  0  0  0  0  0  0
   10.6194   45.6263   50.8047 N   0  0  0  0  0  0  0  0  0  0  0  0
    7.2524   45.5025   51.7323 C   0  0  0  0  0  3  0  0  0  0  0  0
    9.6106   46.0471   51.5794 C   0  0  0  0  0  0  0  0  0  0  0  0
    9.4382   46.9256   52.5839 N   0  0  0  0  0  0  0  0  0  0  0  0
    8.2337   47.1023   53.1535 C   0  0  0  0  0  3  0  0  0  0  0  0
    7.9597   43.5517   49.4002 C   0  0  0  0  0  1  0  0  0  0  0  0
    4.7121   45.7964   52.8482 N   0  0  0  0  0  0  0  0  0  0  0  0
    4.4321   45.5278   51.4681 C   0  0  0  0  0  2  0  0  0  0  0  0
    4.0005   44.1725   51.1215 C   0  0  0  0  0  0  0  0  0  0  0  0
    4.3952   43.0540   51.8708 C   0  0  0  0  0  3  0  0  0  0  0  0
    3.1523   43.8843   50.0437 C   0  0  0  0  0  3  0  0  0  0  0  0
    3.9758   41.7778   51.5615 C   0  0  0  0  0  3  0  0  0  0  0  0
    2.7342   42.6096   49.7349 C   0  0  0  0  0  3  0  0  0  0  0  0
    3.1444   41.5383   50.4946 C   0  0  0  0  0  3  0  0  0  0  0  0
    3.7448   45.2121   53.8060 C   0  0  0  0  0  2  0  0  0  0  0  0
    2.4242   44.9460   53.1650 C   0  0  0  0  0  3  0  0  0  0  0  0
    1.4816   44.2951   54.1502 C   0  0  0  0  0  2  0  0  0  0  0  0
    1.8583   46.1404   52.7553 O   0  0  0  0  0  0  0  0  0  0  0  0
    0.7590   45.5127   54.7329 C   0  0  0  0  0  2  0  0  0  0  0  0
    0.6972   46.3669   53.4687 C   0  0  0  0  0  2  0  0  0  0  0  0
  1  2  2  0
  3  1  1  0
  4 12  1  0
  4  6  2  0
  5  4  1  0
  6  8  1  0
  7  5  1  0
  7  9  2  0
  8  3  2  0
  9 10  1  0
  9  6  1  0
 10 11  2  0
 11  3  1  0
 13  1  1  0
 13 21  1  0
 14 13  1  0
 15 14  1  0
 15 16  2  0
 17 15  1  0
 18 16  1  0
 19 17  2  0
 19 20  1  0
 20 18  2  0
 22 21  1  0
 22 24  1  0
 23 22  1  0
 25 23  1  0
 25 26  1  0
 26 24  1  0
M  RAD  8   8   2  11   2  12   2  14   3  16   2  17   2  18   2  19   2
M  RAD  6  20   2  21   3  22   2  23   3  25   3  26   3
M  END
>  <REMARK>  (1) 
 SMILES Cc1[nH]nc2ncc(C(=O)N(Cc3ccccc3)CC3CCCO3)cc12
 SMILES IDX 9 1 10 2 8 3 2 4 3 5 26 6 4 7 25 8 5 9 6 10 7 11 1 12 11 14
 SMILES IDX 12 15 13 16 14 17 18 18 15 19 17 20 16 21 19 22 20 23 21 24
 SMILES IDX 24 25 22 26 23 27
 H PARENT 3 13

>  <TORSDO>  (1) 
F 6

$$$$
