/home/pchatterjee/Documents/git/vs_workflow/DiffDock/diffdock_run/pdbqt_scrubbed/Z811085044.pdbqt
     RDKit          3D

 26 29  0  0  1  0  0  0  0  0999 V2000
    5.5753   45.8697   53.5538 C   0  0  0  0  0  0  0  0  0  0  0  0
    6.1961   46.0240   54.6424 O   0  0  0  0  0  0  0  0  0  0  0  0
    6.3628   45.3827   52.4319 C   0  0  0  0  0  0  0  0  0  0  0  0
    9.6957   45.7944   50.9029 C   0  0  0  0  0  0  0  0  0  0  0  0
   10.0041   45.0954   49.7944 N   0  0  0  0  0  0  0  0  0  0  0  0
    8.4004   45.4339   51.2329 C   0  0  0  0  0  0  0  0  0  0  0  0
    8.9575   44.3369   49.4475 N   0  0  0  0  0  0  0  0  0  0  0  0
    7.6425   45.8823   52.2927 C   0  0  0  0  0  3  0  0  0  0  0  0
    7.9491   44.5189   50.3107 C   0  0  0  0  0  0  0  0  0  0  0  0
    6.6974   44.0544   50.4779 N   0  0  0  0  0  0  0  0  0  0  0  0
    5.9324   44.4711   51.5013 C   0  0  0  0  0  3  0  0  0  0  0  0
   10.5640   46.7725   51.6469 C   0  0  0  0  0  1  0  0  0  0  0  0
    4.1974   46.1355   53.3821 N   0  0  0  0  0  0  0  0  0  0  0  0
    3.2691   45.3353   52.6385 C   0  0  0  0  0  2  0  0  0  0  0  0
    1.9131   45.2061   53.1749 C   0  0  0  0  0  0  0  0  0  0  0  0
    0.7956   45.7159   52.4969 C   0  0  0  0  0  3  0  0  0  0  0  0
    1.6183   44.5534   54.3796 C   0  0  0  0  0  3  0  0  0  0  0  0
   -0.4857   45.5798   52.9868 C   0  0  0  0  0  3  0  0  0  0  0  0
    0.3386   44.4181   54.8686 C   0  0  0  0  0  3  0  0  0  0  0  0
   -0.7313   44.9331   54.1736 C   0  0  0  0  0  3  0  0  0  0  0  0
    3.6195   47.3542   53.9946 C   0  0  0  0  0  2  0  0  0  0  0  0
    3.6176   48.5034   53.0434 C   0  0  0  0  0  3  0  0  0  0  0  0
    2.6764   49.5835   53.5234 C   0  0  0  0  0  2  0  0  0  0  0  0
    4.8887   49.0449   52.9677 O   0  0  0  0  0  0  0  0  0  0  0  0
    3.6220   50.4769   54.3310 C   0  0  0  0  0  2  0  0  0  0  0  0
    4.8678   50.3358   53.4594 C   0  0  0  0  0  2  0  0  0  0  0  0
  1  2  2  0
  3  1  1  0
  4 12  1  0
  4  6  2  0
  5  4  1  0
  6  8  1  0
  7  5  1  0
  7  9  2  0
  8  3  2  0
  9 10  1  0
  9  6  1  0
 10 11  2  0
 11  3  1  0
 13  1  1  0
 13 21  1  0
 14 13  1  0
 15 14  1  0
 15 16  2  0
 17 15  1  0
 18 16  1  0
 19 17  2  0
 19 20  1  0
 20 18  2  0
 22 21  1  0
 22 24  1  0
 23 22  1  0
 25 23  1  0
 25 26  1  0
 26 24  1  0
M  RAD  8   8   2  11   2  12   2  14   3  16   2  17   2  18   2  19   2
M  RAD  6  20   2  21   3  22   2  23   3  25   3  26   3
M  END
>  <REMARK>  (1) 
 SMILES Cc1[nH]nc2ncc(C(=O)N(Cc3ccccc3)CC3CCCO3)cc12
 SMILES IDX 9 1 10 2 8 3 2 4 3 5 26 6 4 7 25 8 5 9 6 10 7 11 1 12 11 14
 SMILES IDX 12 15 13 16 14 17 18 18 15 19 17 20 16 21 19 22 20 23 21 24
 SMILES IDX 24 25 22 26 23 27
 H PARENT 3 13

>  <TORSDO>  (1) 
F 6

$$$$
