/home/pchatterjee/Documents/git/vs_workflow/DiffDock/diffdock_run/pdbqt_scrubbed/Z811085044.pdbqt
     RDKit          3D

 26 29  0  0  1  0  0  0  0  0999 V2000
    6.5530   46.9213   54.0330 C   0  0  0  0  0  0  0  0  0  0  0  0
    6.8361   47.7862   54.9083 O   0  0  0  0  0  0  0  0  0  0  0  0
    7.6347   46.5382   53.1391 C   0  0  0  0  0  0  0  0  0  0  0  0
    8.3023   44.3208   50.2663 C   0  0  0  0  0  0  0  0  0  0  0  0
    9.5365   44.2900   49.7293 N   0  0  0  0  0  0  0  0  0  0  0  0
    8.3628   45.2295   51.3090 C   0  0  0  0  0  0  0  0  0  0  0  0
   10.3291   45.1344   50.4000 N   0  0  0  0  0  0  0  0  0  0  0  0
    7.3480   45.6060   52.1617 C   0  0  0  0  0  3  0  0  0  0  0  0
    9.6409   45.7321   51.3820 C   0  0  0  0  0  0  0  0  0  0  0  0
    9.8835   46.6379   52.3469 N   0  0  0  0  0  0  0  0  0  0  0  0
    8.9155   47.0267   53.1944 C   0  0  0  0  0  3  0  0  0  0  0  0
    7.0913   43.5371   49.8382 C   0  0  0  0  0  1  0  0  0  0  0  0
    5.2787   46.3262   53.8893 N   0  0  0  0  0  0  0  0  0  0  0  0
    4.8941   45.0290   54.3632 C   0  0  0  0  0  2  0  0  0  0  0  0
    3.6028   44.9181   55.0440 C   0  0  0  0  0  0  0  0  0  0  0  0
    2.5826   44.0811   54.5676 C   0  0  0  0  0  3  0  0  0  0  0  0
    3.2894   45.6091   56.2224 C   0  0  0  0  0  3  0  0  0  0  0  0
    1.3721   43.9569   55.2153 C   0  0  0  0  0  3  0  0  0  0  0  0
    2.0801   45.4851   56.8686 C   0  0  0  0  0  3  0  0  0  0  0  0
    1.1046   44.6538   56.3685 C   0  0  0  0  0  3  0  0  0  0  0  0
    4.2162   47.0685   53.1721 C   0  0  0  0  0  2  0  0  0  0  0  0
    3.7968   46.3661   51.9245 C   0  0  0  0  0  3  0  0  0  0  0  0
    3.4092   44.9378   52.2286 C   0  0  0  0  0  2  0  0  0  0  0  0
    2.6949   47.0032   51.3817 O   0  0  0  0  0  0  0  0  0  0  0  0
    1.9007   45.0714   52.4547 C   0  0  0  0  0  2  0  0  0  0  0  0
    1.6093   46.1494   51.4131 C   0  0  0  0  0  2  0  0  0  0  0  0
  1  2  2  0
  3  1  1  0
  4 12  1  0
  4  6  2  0
  5  4  1  0
  6  8  1  0
  7  5  1  0
  7  9  2  0
  8  3  2  0
  9 10  1  0
  9  6  1  0
 10 11  2  0
 11  3  1  0
 13  1  1  0
 13 21  1  0
 14 13  1  0
 15 14  1  0
 15 16  2  0
 17 15  1  0
 18 16  1  0
 19 17  2  0
 19 20  1  0
 20 18  2  0
 22 21  1  0
 22 24  1  0
 23 22  1  0
 25 23  1  0
 25 26  1  0
 26 24  1  0
M  RAD  8   8   2  11   2  12   2  14   3  16   2  17   2  18   2  19   2
M  RAD  6  20   2  21   3  22   2  23   3  25   3  26   3
M  END
>  <REMARK>  (1) 
 SMILES Cc1[nH]nc2ncc(C(=O)N(Cc3ccccc3)CC3CCCO3)cc12
 SMILES IDX 9 1 10 2 8 3 2 4 3 5 26 6 4 7 25 8 5 9 6 10 7 11 1 12 11 14
 SMILES IDX 12 15 13 16 14 17 18 18 15 19 17 20 16 21 19 22 20 23 21 24
 SMILES IDX 24 25 22 26 23 27
 H PARENT 3 13

>  <TORSDO>  (1) 
F 6

$$$$
