/home/pchatterjee/Documents/git/vs_workflow/DiffDock/diffdock_run/pdbqt_scrubbed/Z811085044.pdbqt
     RDKit          3D

 26 29  0  0  1  0  0  0  0  0999 V2000
    6.8302   46.8981   54.1155 C   0  0  0  0  0  0  0  0  0  0  0  0
    7.2807   47.1297   55.2721 O   0  0  0  0  0  0  0  0  0  0  0  0
    7.8100   46.5060   53.1143 C   0  0  0  0  0  0  0  0  0  0  0  0
    8.0957   44.4471   50.0655 C   0  0  0  0  0  0  0  0  0  0  0  0
    9.2794   44.3718   49.4286 N   0  0  0  0  0  0  0  0  0  0  0  0
    8.3004   45.2780   51.1537 C   0  0  0  0  0  0  0  0  0  0  0  0
   10.1789   45.1160   50.0830 N   0  0  0  0  0  0  0  0  0  0  0  0
    7.3836   45.6620   52.1081 C   0  0  0  0  0  3  0  0  0  0  0  0
    9.6125   45.6902   51.1528 C   0  0  0  0  0  0  0  0  0  0  0  0
    9.9921   46.5117   52.1485 N   0  0  0  0  0  0  0  0  0  0  0  0
    9.1224   46.9052   53.0946 C   0  0  0  0  0  3  0  0  0  0  0  0
    6.8030   43.7744   49.6905 C   0  0  0  0  0  1  0  0  0  0  0  0
    5.4649   46.9953   53.7621 N   0  0  0  0  0  0  0  0  0  0  0  0
    4.4548   47.7127   54.4834 C   0  0  0  0  0  2  0  0  0  0  0  0
    4.3197   49.1438   54.2063 C   0  0  0  0  0  0  0  0  0  0  0  0
    3.4663   49.6277   53.2032 C   0  0  0  0  0  3  0  0  0  0  0  0
    5.0022   50.1367   54.9222 C   0  0  0  0  0  3  0  0  0  0  0  0
    3.3195   50.9749   52.9510 C   0  0  0  0  0  3  0  0  0  0  0  0
    4.8555   51.4820   54.6695 C   0  0  0  0  0  3  0  0  0  0  0  0
    4.0087   51.9164   53.6760 C   0  0  0  0  0  3  0  0  0  0  0  0
    4.9845   46.2902   52.5512 C   0  0  0  0  0  2  0  0  0  0  0  0
    4.3666   44.9743   52.8862 C   0  0  0  0  0  3  0  0  0  0  0  0
    3.5378   45.0862   54.1445 C   0  0  0  0  0  2  0  0  0  0  0  0
    3.5314   44.5785   51.8564 O   0  0  0  0  0  0  0  0  0  0  0  0
    2.1520   45.3960   53.5718 C   0  0  0  0  0  2  0  0  0  0  0  0
    2.2284   44.5347   52.3132 C   0  0  0  0  0  2  0  0  0  0  0  0
  1  2  2  0
  3  1  1  0
  4 12  1  0
  4  6  2  0
  5  4  1  0
  6  8  1  0
  7  5  1  0
  7  9  2  0
  8  3  2  0
  9 10  1  0
  9  6  1  0
 10 11  2  0
 11  3  1  0
 13  1  1  0
 13 21  1  0
 14 13  1  0
 15 14  1  0
 15 16  2  0
 17 15  1  0
 18 16  1  0
 19 17  2  0
 19 20  1  0
 20 18  2  0
 22 21  1  0
 22 24  1  0
 23 22  1  0
 25 23  1  0
 25 26  1  0
 26 24  1  0
M  RAD  8   8   2  11   2  12   2  14   3  16   2  17   2  18   2  19   2
M  RAD  6  20   2  21   3  22   2  23   3  25   3  26   3
M  END
>  <REMARK>  (1) 
 SMILES Cc1[nH]nc2ncc(C(=O)N(Cc3ccccc3)CC3CCCO3)cc12
 SMILES IDX 9 1 10 2 8 3 2 4 3 5 26 6 4 7 25 8 5 9 6 10 7 11 1 12 11 14
 SMILES IDX 12 15 13 16 14 17 18 18 15 19 17 20 16 21 19 22 20 23 21 24
 SMILES IDX 24 25 22 26 23 27
 H PARENT 3 13

>  <TORSDO>  (1) 
F 6

$$$$
