/home/pchatterjee/Documents/git/vs_workflow/DiffDock/diffdock_run/pdbqt_scrubbed/Z811085044.pdbqt
     RDKit          3D

 26 29  0  0  1  0  0  0  0  0999 V2000
    5.0384   44.5861   51.8987 C   0  0  0  0  0  0  0  0  0  0  0  0
    4.8328   45.5715   52.6611 O   0  0  0  0  0  0  0  0  0  0  0  0
    6.3531   44.5198   51.2798 C   0  0  0  0  0  0  0  0  0  0  0  0
    9.7425   45.9334   51.6397 C   0  0  0  0  0  0  0  0  0  0  0  0
   10.7078   45.5607   50.7784 N   0  0  0  0  0  0  0  0  0  0  0  0
    8.6031   45.2473   51.2555 C   0  0  0  0  0  0  0  0  0  0  0  0
   10.2004   44.6874   49.9004 N   0  0  0  0  0  0  0  0  0  0  0  0
    7.3526   45.2958   51.8323 C   0  0  0  0  0  3  0  0  0  0  0  0
    8.9047   44.4694   50.1622 C   0  0  0  0  0  0  0  0  0  0  0  0
    7.9060   43.7270   49.6505 N   0  0  0  0  0  0  0  0  0  0  0  0
    6.6752   43.7513   50.1899 C   0  0  0  0  0  3  0  0  0  0  0  0
    9.8557   46.8965   52.7902 C   0  0  0  0  0  1  0  0  0  0  0  0
    4.0843   43.5777   51.6314 N   0  0  0  0  0  0  0  0  0  0  0  0
    4.0697   42.7100   50.4903 C   0  0  0  0  0  2  0  0  0  0  0  0
    2.8479   41.9414   50.2463 C   0  0  0  0  0  0  0  0  0  0  0  0
    1.9005   42.3382   49.2906 C   0  0  0  0  0  3  0  0  0  0  0  0
    2.5368   40.7518   50.9189 C   0  0  0  0  0  3  0  0  0  0  0  0
    0.7581   41.6080   49.0420 C   0  0  0  0  0  3  0  0  0  0  0  0
    1.3954   40.0232   50.6706 C   0  0  0  0  0  3  0  0  0  0  0  0
    0.4901   40.4467   49.7251 C   0  0  0  0  0  3  0  0  0  0  0  0
    2.9669   43.3761   52.5826 C   0  0  0  0  0  2  0  0  0  0  0  0
    2.2257   44.6446   52.8418 C   0  0  0  0  0  3  0  0  0  0  0  0
    1.0460   44.7667   51.9057 C   0  0  0  0  0  2  0  0  0  0  0  0
    1.7451   44.6441   54.1394 O   0  0  0  0  0  0  0  0  0  0  0  0
   -0.0746   44.1434   52.7424 C   0  0  0  0  0  2  0  0  0  0  0  0
    0.3638   44.6424   54.1174 C   0  0  0  0  0  2  0  0  0  0  0  0
  1  2  2  0
  3  1  1  0
  4 12  1  0
  4  6  2  0
  5  4  1  0
  6  8  1  0
  7  5  1  0
  7  9  2  0
  8  3  2  0
  9 10  1  0
  9  6  1  0
 10 11  2  0
 11  3  1  0
 13  1  1  0
 13 21  1  0
 14 13  1  0
 15 14  1  0
 15 16  2  0
 17 15  1  0
 18 16  1  0
 19 17  2  0
 19 20  1  0
 20 18  2  0
 22 21  1  0
 22 24  1  0
 23 22  1  0
 25 23  1  0
 25 26  1  0
 26 24  1  0
M  RAD  8   8   2  11   2  12   2  14   3  16   2  17   2  18   2  19   2
M  RAD  6  20   2  21   3  22   2  23   3  25   3  26   3
M  END
>  <REMARK>  (1) 
 SMILES Cc1[nH]nc2ncc(C(=O)N(Cc3ccccc3)CC3CCCO3)cc12
 SMILES IDX 9 1 10 2 8 3 2 4 3 5 26 6 4 7 25 8 5 9 6 10 7 11 1 12 11 14
 SMILES IDX 12 15 13 16 14 17 18 18 15 19 17 20 16 21 19 22 20 23 21 24
 SMILES IDX 24 25 22 26 23 27
 H PARENT 3 13

>  <TORSDO>  (1) 
F 6

$$$$
