/home/pchatterjee/Documents/git/vs_workflow/DiffDock/diffdock_run/pdbqt_scrubbed/Z811085044.pdbqt
     RDKit          3D

 26 29  0  0  1  0  0  0  0  0999 V2000
    6.7201   47.1401   54.1781 C   0  0  0  0  0  0  0  0  0  0  0  0
    7.2922   47.5822   55.2134 O   0  0  0  0  0  0  0  0  0  0  0  0
    7.5893   46.5642   53.1638 C   0  0  0  0  0  0  0  0  0  0  0  0
    7.5423   44.0321   50.4802 C   0  0  0  0  0  0  0  0  0  0  0  0
    8.6547   43.8220   49.7516 N   0  0  0  0  0  0  0  0  0  0  0  0
    7.8653   45.0221   51.3923 C   0  0  0  0  0  0  0  0  0  0  0  0
    9.6242   44.6370   50.1843 N   0  0  0  0  0  0  0  0  0  0  0  0
    7.0539   45.5807   52.3559 C   0  0  0  0  0  3  0  0  0  0  0  0
    9.1752   45.3921   51.1958 C   0  0  0  0  0  0  0  0  0  0  0  0
    9.6628   46.3530   52.0017 N   0  0  0  0  0  0  0  0  0  0  0  0
    8.8975   46.9184   52.9509 C   0  0  0  0  0  3  0  0  0  0  0  0
    6.2108   43.3438   50.3484 C   0  0  0  0  0  1  0  0  0  0  0  0
    5.3225   47.1746   53.9686 N   0  0  0  0  0  0  0  0  0  0  0  0
    4.4031   48.1046   54.5558 C   0  0  0  0  0  2  0  0  0  0  0  0
    4.4535   49.4890   54.0824 C   0  0  0  0  0  0  0  0  0  0  0  0
    3.8154   49.8922   52.8997 C   0  0  0  0  0  3  0  0  0  0  0  0
    5.1130   50.5167   54.7703 C   0  0  0  0  0  3  0  0  0  0  0  0
    3.8422   51.1981   52.4593 C   0  0  0  0  0  3  0  0  0  0  0  0
    5.1399   51.8207   54.3298 C   0  0  0  0  0  3  0  0  0  0  0  0
    4.5018   52.1758   53.1637 C   0  0  0  0  0  3  0  0  0  0  0  0
    4.7041   46.1620   53.0817 C   0  0  0  0  0  2  0  0  0  0  0  0
    5.7316   45.3148   52.4091 C   0  0  0  0  0  3  0  0  0  0  0  0
    5.8785   43.9940   53.1279 C   0  0  0  0  0  2  0  0  0  0  0  0
    5.3382   45.0536   51.1084 O   0  0  0  0  0  0  0  0  0  0  0  0
    4.8948   43.1127   52.3533 C   0  0  0  0  0  2  0  0  0  0  0  0
    5.1127   43.6987   50.9603 C   0  0  0  0  0  2  0  0  0  0  0  0
  1  2  2  0
  3  1  1  0
  4 12  1  0
  4  6  2  0
  5  4  1  0
  6  8  1  0
  7  5  1  0
  7  9  2  0
  8  3  2  0
  9 10  1  0
  9  6  1  0
 10 11  2  0
 11  3  1  0
 13  1  1  0
 13 21  1  0
 14 13  1  0
 15 14  1  0
 15 16  2  0
 17 15  1  0
 18 16  1  0
 19 17  2  0
 19 20  1  0
 20 18  2  0
 22 21  1  0
 22 24  1  0
 23 22  1  0
 25 23  1  0
 25 26  1  0
 26 24  1  0
M  RAD  8   8   2  11   2  12   2  14   3  16   2  17   2  18   2  19   2
M  RAD  6  20   2  21   3  22   2  23   3  25   3  26   3
M  END
>  <REMARK>  (1) 
 SMILES Cc1[nH]nc2ncc(C(=O)N(Cc3ccccc3)CC3CCCO3)cc12
 SMILES IDX 9 1 10 2 8 3 2 4 3 5 26 6 4 7 25 8 5 9 6 10 7 11 1 12 11 14
 SMILES IDX 12 15 13 16 14 17 18 18 15 19 17 20 16 21 19 22 20 23 21 24
 SMILES IDX 24 25 22 26 23 27
 H PARENT 3 13

>  <TORSDO>  (1) 
F 6

$$$$
