/home/pchatterjee/Documents/git/vs_workflow/DiffDock/diffdock_run/pdbqt_scrubbed/Z811085044.pdbqt
     RDKit          3D

 26 29  0  0  1  0  0  0  0  0999 V2000
    7.0560   47.3262   54.0430 C   0  0  0  0  0  0  0  0  0  0  0  0
    7.6138   47.8258   55.0597 O   0  0  0  0  0  0  0  0  0  0  0  0
    7.9434   46.7462   53.0470 C   0  0  0  0  0  0  0  0  0  0  0  0
    7.9664   44.1546   50.4205 C   0  0  0  0  0  0  0  0  0  0  0  0
    9.0876   43.9517   49.7033 N   0  0  0  0  0  0  0  0  0  0  0  0
    8.2629   45.1712   51.3121 C   0  0  0  0  0  0  0  0  0  0  0  0
   10.0370   44.7964   50.1233 N   0  0  0  0  0  0  0  0  0  0  0  0
    7.4339   45.7339   52.2581 C   0  0  0  0  0  3  0  0  0  0  0  0
    9.5660   45.5642   51.1150 C   0  0  0  0  0  0  0  0  0  0  0  0
   10.0283   46.5528   51.9021 N   0  0  0  0  0  0  0  0  0  0  0  0
    9.2453   47.1230   52.8339 C   0  0  0  0  0  3  0  0  0  0  0  0
    6.6505   43.4356   50.2963 C   0  0  0  0  0  1  0  0  0  0  0  0
    5.6576   47.3019   53.8373 N   0  0  0  0  0  0  0  0  0  0  0  0
    4.6761   47.9887   54.6248 C   0  0  0  0  0  2  0  0  0  0  0  0
    4.5048   49.4225   54.3841 C   0  0  0  0  0  0  0  0  0  0  0  0
    3.5123   49.9169   53.5244 C   0  0  0  0  0  3  0  0  0  0  0  0
    5.2893   50.4078   54.9989 C   0  0  0  0  0  3  0  0  0  0  0  0
    3.3329   51.2666   53.3094 C   0  0  0  0  0  3  0  0  0  0  0  0
    5.1100   51.7556   54.7834 C   0  0  0  0  0  3  0  0  0  0  0  0
    4.1252   52.2003   53.9317 C   0  0  0  0  0  3  0  0  0  0  0  0
    5.1090   46.4887   52.7273 C   0  0  0  0  0  2  0  0  0  0  0  0
    3.6669   46.1691   52.9364 C   0  0  0  0  0  3  0  0  0  0  0  0
    3.0855   45.5232   51.7004 C   0  0  0  0  0  2  0  0  0  0  0  0
    3.5368   45.2783   53.9872 O   0  0  0  0  0  0  0  0  0  0  0  0
    3.2819   44.0367   52.0106 C   0  0  0  0  0  2  0  0  0  0  0  0
    3.0290   44.0831   53.5157 C   0  0  0  0  0  2  0  0  0  0  0  0
  1  2  2  0
  3  1  1  0
  4 12  1  0
  4  6  2  0
  5  4  1  0
  6  8  1  0
  7  5  1  0
  7  9  2  0
  8  3  2  0
  9 10  1  0
  9  6  1  0
 10 11  2  0
 11  3  1  0
 13  1  1  0
 13 21  1  0
 14 13  1  0
 15 14  1  0
 15 16  2  0
 17 15  1  0
 18 16  1  0
 19 17  2  0
 19 20  1  0
 20 18  2  0
 22 21  1  0
 22 24  1  0
 23 22  1  0
 25 23  1  0
 25 26  1  0
 26 24  1  0
M  RAD  8   8   2  11   2  12   2  14   3  16   2  17   2  18   2  19   2
M  RAD  6  20   2  21   3  22   2  23   3  25   3  26   3
M  END
>  <REMARK>  (1) 
 SMILES Cc1[nH]nc2ncc(C(=O)N(Cc3ccccc3)CC3CCCO3)cc12
 SMILES IDX 9 1 10 2 8 3 2 4 3 5 26 6 4 7 25 8 5 9 6 10 7 11 1 12 11 14
 SMILES IDX 12 15 13 16 14 17 18 18 15 19 17 20 16 21 19 22 20 23 21 24
 SMILES IDX 24 25 22 26 23 27
 H PARENT 3 13

>  <TORSDO>  (1) 
F 6

$$$$
