/home/pchatterjee/Documents/git/vs_workflow/DiffDock/diffdock_run/pdbqt_scrubbed/Z1255854579.pdbqt
     RDKit          3D

 30 33  0  0  1  0  0  0  0  0999 V2000
    1.2885   41.7719   47.6091 C   0  0  0  0  0  0  0  0  0  0  0  0
    0.5595   42.3620   48.4453 O   0  0  0  0  0  0  0  0  0  0  0  0
    2.5085   41.1786   48.0371 N   0  0  0  0  0  0  0  0  0  0  0  0
    4.2792   41.2068   49.7376 C   0  0  0  0  0  3  0  0  0  0  0  0
    5.0437   40.1890   48.9426 C   0  0  0  0  0  2  0  0  0  0  0  0
    2.8075   41.2032   49.4529 C   0  0  0  0  0  2  0  0  0  0  0  0
    4.2457   39.5602   47.8375 C   0  0  0  0  0  2  0  0  0  0  0  0
    3.4105   40.5742   47.0759 C   0  0  0  0  0  2  0  0  0  0  0  0
    4.8975   42.5398   49.6301 C   0  0  0  0  0  0  0  0  0  0  0  0
    6.2349   42.7439   49.1764 N   0  0  0  0  0  0  0  0  0  0  0  0
    7.0212   43.6833   49.9136 C   0  0  0  0  0  0  0  0  0  0  0  0
    6.3479   44.5090   50.7606 N   0  0  0  0  0  0  0  0  0  0  0  0
    8.3581   43.7635   49.7914 N   0  0  0  0  0  0  0  0  0  0  0  0
    6.9648   45.4294   51.5054 C   0  0  0  0  0  0  0  0  0  0  0  0
    9.0039   44.6968   50.5435 C   0  0  0  0  0  0  0  0  0  0  0  0
    6.2582   46.2540   52.3562 C   0  0  0  0  0  3  0  0  0  0  0  0
    8.3390   45.5388   51.4041 C   0  0  0  0  0  0  0  0  0  0  0  0
    6.8723   47.2084   53.1322 C   0  0  0  0  0  3  0  0  0  0  0  0
    8.9491   46.4910   52.1787 C   0  0  0  0  0  3  0  0  0  0  0  0
    8.2444   47.3243   53.0372 C   0  0  0  0  0  3  0  0  0  0  0  0
    4.1767   43.5399   49.9662 O   0  0  0  0  0  0  0  0  0  0  0  0
   10.2526   44.8089   50.4631 O   0  0  0  0  0  0  0  0  0  0  0  0
    0.8985   41.6792   46.1633 C   0  0  0  0  0  2  0  0  0  0  0  0
   -0.2886   42.4185   46.0196 O   0  0  0  0  0  0  0  0  0  0  0  0
   -0.5869   42.9580   44.7696 C   0  0  0  0  0  0  0  0  0  0  0  0
   -0.8608   44.3035   44.5966 C   0  0  0  0  0  3  0  0  0  0  0  0
   -0.6158   42.1430   43.6532 C   0  0  0  0  0  3  0  0  0  0  0  0
   -1.1525   44.8357   43.3789 C   0  0  0  0  0  3  0  0  0  0  0  0
   -0.9131   42.6843   42.4114 C   0  0  0  0  0  3  0  0  0  0  0  0
   -1.1826   44.0230   42.2581 C   0  0  0  0  0  3  0  0  0  0  0  0
  1  3  1  0
  2  1  2  0
  3  6  1  0
  3  8  1  0
  4  9  1  0
  4  5  1  0
  6  4  1  0
  7  5  1  0
  8  7  1  0
  9 21  2  0
 10  9  1  0
 11 13  1  0
 11 10  1  0
 12 11  2  0
 14 17  2  0
 14 12  1  0
 15 22  2  0
 15 13  1  0
 16 14  1  0
 17 15  1  0
 18 20  1  0
 18 16  2  0
 19 17  1  0
 20 19  2  0
 23  1  1  0
 24 23  1  0
 25 27  1  0
 25 24  1  0
 26 25  2  0
 28 30  2  0
 28 26  1  0
 29 27  2  0
 30 29  1  0
M  RAD  8   4   2   5   3   6   3   7   3   8   3  16   2  18   2  19   2
M  RAD  7  20   2  23   3  26   2  27   2  28   2  29   2  30   2
M  END
>  <REMARK>  (1) 
 SMILES O=C(Nc1nc2ccccc2c(=O)[nH]1)C1CCCN(C(=O)COc2ccccc2)C1
 SMILES IDX 20 1 21 2 19 3 15 4 16 5 30 6 17 7 18 8 2 9 3 10 4 11 5 12
 SMILES IDX 14 13 6 14 12 15 7 16 11 17 8 18 10 19 9 20 1 21 13 24 22 25
 SMILES IDX 23 26 24 27 25 28 29 29 26 30 28 31 27 32
 H PARENT 3 22 14 23

>  <TORSDO>  (1) 
F 5

$$$$
