/home/pchatterjee/Documents/git/vs_workflow/DiffDock/diffdock_run/pdbqt_scrubbed/Z1255854579.pdbqt
     RDKit          3D

 30 33  0  0  1  0  0  0  0  0999 V2000
    1.3464   40.9202   47.2921 C   0  0  0  0  0  0  0  0  0  0  0  0
    0.7489   39.8240   47.1494 O   0  0  0  0  0  0  0  0  0  0  0  0
    2.0393   41.1889   48.5050 N   0  0  0  0  0  0  0  0  0  0  0  0
    3.8009   42.5273   49.5694 C   0  0  0  0  0  3  0  0  0  0  0  0
    3.6261   41.7340   50.8313 C   0  0  0  0  0  2  0  0  0  0  0  0
    2.5911   42.5146   48.6844 C   0  0  0  0  0  2  0  0  0  0  0  0
    2.3963   40.8730   50.8394 C   0  0  0  0  0  2  0  0  0  0  0  0
    2.1792   40.1595   49.5168 C   0  0  0  0  0  2  0  0  0  0  0  0
    5.0446   42.1532   48.8737 C   0  0  0  0  0  0  0  0  0  0  0  0
    6.2515   41.8225   49.5593 N   0  0  0  0  0  0  0  0  0  0  0  0
    7.0627   42.9198   49.9862 C   0  0  0  0  0  0  0  0  0  0  0  0
    6.5239   43.7468   50.9235 N   0  0  0  0  0  0  0  0  0  0  0  0
    8.2967   43.1414   49.4998 N   0  0  0  0  0  0  0  0  0  0  0  0
    7.1779   44.8065   51.4050 C   0  0  0  0  0  0  0  0  0  0  0  0
    8.9784   44.2179   49.9797 C   0  0  0  0  0  0  0  0  0  0  0  0
    6.6086   45.6289   52.3550 C   0  0  0  0  0  3  0  0  0  0  0  0
    8.4490   45.0634   50.9265 C   0  0  0  0  0  0  0  0  0  0  0  0
    7.2632   46.7252   52.8650 C   0  0  0  0  0  3  0  0  0  0  0  0
    9.0997   46.1569   51.4363 C   0  0  0  0  0  3  0  0  0  0  0  0
    8.5329   46.9890   52.3925 C   0  0  0  0  0  3  0  0  0  0  0  0
    5.0087   42.1331   47.5966 O   0  0  0  0  0  0  0  0  0  0  0  0
   10.1346   44.4652   49.5551 O   0  0  0  0  0  0  0  0  0  0  0  0
    1.3447   41.9559   46.2065 C   0  0  0  0  0  2  0  0  0  0  0  0
    0.2663   41.6471   45.3589 O   0  0  0  0  0  0  0  0  0  0  0  0
   -0.1345   42.5982   44.4223 C   0  0  0  0  0  0  0  0  0  0  0  0
   -1.0935   43.5537   44.7098 C   0  0  0  0  0  3  0  0  0  0  0  0
    0.4295   42.6069   43.1600 C   0  0  0  0  0  3  0  0  0  0  0  0
   -1.4887   44.4846   43.7996 C   0  0  0  0  0  3  0  0  0  0  0  0
    0.0274   43.5552   42.2313 C   0  0  0  0  0  3  0  0  0  0  0  0
   -0.9265   44.4968   42.5342 C   0  0  0  0  0  3  0  0  0  0  0  0
  1  3  1  0
  2  1  2  0
  3  6  1  0
  3  8  1  0
  4  9  1  0
  4  5  1  0
  6  4  1  0
  7  5  1  0
  8  7  1  0
  9 21  2  0
 10  9  1  0
 11 13  1  0
 11 10  1  0
 12 11  2  0
 14 17  2  0
 14 12  1  0
 15 22  2  0
 15 13  1  0
 16 14  1  0
 17 15  1  0
 18 20  1  0
 18 16  2  0
 19 17  1  0
 20 19  2  0
 23  1  1  0
 24 23  1  0
 25 27  1  0
 25 24  1  0
 26 25  2  0
 28 30  2  0
 28 26  1  0
 29 27  2  0
 30 29  1  0
M  RAD  8   4   2   5   3   6   3   7   3   8   3  16   2  18   2  19   2
M  RAD  7  20   2  23   3  26   2  27   2  28   2  29   2  30   2
M  END
>  <REMARK>  (1) 
 SMILES O=C(Nc1nc2ccccc2c(=O)[nH]1)C1CCCN(C(=O)COc2ccccc2)C1
 SMILES IDX 20 1 21 2 19 3 15 4 16 5 30 6 17 7 18 8 2 9 3 10 4 11 5 12
 SMILES IDX 14 13 6 14 12 15 7 16 11 17 8 18 10 19 9 20 1 21 13 24 22 25
 SMILES IDX 23 26 24 27 25 28 29 29 26 30 28 31 27 32
 H PARENT 3 22 14 23

>  <TORSDO>  (1) 
F 5

$$$$
