/home/pchatterjee/Documents/git/vs_workflow/DiffDock/diffdock_run/pdbqt_scrubbed/Z1255854579.pdbqt
     RDKit          3D

 30 33  0  0  1  0  0  0  0  0999 V2000
    1.2096   41.5883   47.7316 C   0  0  0  0  0  0  0  0  0  0  0  0
    0.5554   42.2330   48.5891 O   0  0  0  0  0  0  0  0  0  0  0  0
    2.5032   41.0962   48.0605 N   0  0  0  0  0  0  0  0  0  0  0  0
    4.3692   41.2290   49.6504 C   0  0  0  0  0  3  0  0  0  0  0  0
    5.1703   40.3152   48.7698 C   0  0  0  0  0  2  0  0  0  0  0  0
    2.8886   41.0988   49.4554 C   0  0  0  0  0  2  0  0  0  0  0  0
    4.3633   39.6543   47.6902 C   0  0  0  0  0  2  0  0  0  0  0  0
    3.3928   40.6124   47.0226 C   0  0  0  0  0  2  0  0  0  0  0  0
    4.8561   42.6167   49.5603 C   0  0  0  0  0  0  0  0  0  0  0  0
    6.0794   42.9728   48.9178 N   0  0  0  0  0  0  0  0  0  0  0  0
    7.0007   43.7493   49.6875 C   0  0  0  0  0  0  0  0  0  0  0  0
    6.4650   44.5678   50.6339 N   0  0  0  0  0  0  0  0  0  0  0  0
    8.3313   43.6892   49.5022 N   0  0  0  0  0  0  0  0  0  0  0  0
    7.2163   45.3440   51.4185 C   0  0  0  0  0  0  0  0  0  0  0  0
    9.1131   44.4742   50.2937 C   0  0  0  0  0  0  0  0  0  0  0  0
    6.6476   46.1647   52.3704 C   0  0  0  0  0  3  0  0  0  0  0  0
    8.5882   45.3066   51.2545 C   0  0  0  0  0  0  0  0  0  0  0  0
    7.4014   46.9722   53.1891 C   0  0  0  0  0  3  0  0  0  0  0  0
    9.3377   46.1124   52.0718 C   0  0  0  0  0  3  0  0  0  0  0  0
    8.7724   46.9409   53.0319 C   0  0  0  0  0  3  0  0  0  0  0  0
    4.1264   43.5208   50.0920 O   0  0  0  0  0  0  0  0  0  0  0  0
   10.3618   44.4518   50.1572 O   0  0  0  0  0  0  0  0  0  0  0  0
    0.6538   41.3253   46.3630 C   0  0  0  0  0  2  0  0  0  0  0  0
   -0.3836   42.2535   46.1660 O   0  0  0  0  0  0  0  0  0  0  0  0
   -0.5979   42.7456   44.8798 C   0  0  0  0  0  0  0  0  0  0  0  0
   -0.7826   44.0943   44.6305 C   0  0  0  0  0  3  0  0  0  0  0  0
   -0.6312   41.8782   43.8037 C   0  0  0  0  0  3  0  0  0  0  0  0
   -0.9921   44.5804   43.3771 C   0  0  0  0  0  3  0  0  0  0  0  0
   -0.8447   42.3724   42.5256 C   0  0  0  0  0  3  0  0  0  0  0  0
   -1.0262   43.7152   42.2964 C   0  0  0  0  0  3  0  0  0  0  0  0
  1  3  1  0
  2  1  2  0
  3  6  1  0
  3  8  1  0
  4  9  1  0
  4  5  1  0
  6  4  1  0
  7  5  1  0
  8  7  1  0
  9 21  2  0
 10  9  1  0
 11 13  1  0
 11 10  1  0
 12 11  2  0
 14 17  2  0
 14 12  1  0
 15 22  2  0
 15 13  1  0
 16 14  1  0
 17 15  1  0
 18 20  1  0
 18 16  2  0
 19 17  1  0
 20 19  2  0
 23  1  1  0
 24 23  1  0
 25 27  1  0
 25 24  1  0
 26 25  2  0
 28 30  2  0
 28 26  1  0
 29 27  2  0
 30 29  1  0
M  RAD  8   4   2   5   3   6   3   7   3   8   3  16   2  18   2  19   2
M  RAD  7  20   2  23   3  26   2  27   2  28   2  29   2  30   2
M  END
>  <REMARK>  (1) 
 SMILES O=C(Nc1nc2ccccc2c(=O)[nH]1)C1CCCN(C(=O)COc2ccccc2)C1
 SMILES IDX 20 1 21 2 19 3 15 4 16 5 30 6 17 7 18 8 2 9 3 10 4 11 5 12
 SMILES IDX 14 13 6 14 12 15 7 16 11 17 8 18 10 19 9 20 1 21 13 24 22 25
 SMILES IDX 23 26 24 27 25 28 29 29 26 30 28 31 27 32
 H PARENT 3 22 14 23

>  <TORSDO>  (1) 
F 5

$$$$
