/home/pchatterjee/Documents/git/vs_workflow/DiffDock/diffdock_run/pdbqt_scrubbed/Z1255854579.pdbqt
     RDKit          3D

 30 33  0  0  1  0  0  0  0  0999 V2000
   11.0105   64.1050   83.6376 C   0  0  0  0  0  0  0  0  0  0  0  0
    9.8892   63.5385   83.6650 O   0  0  0  0  0  0  0  0  0  0  0  0
   12.1893   63.3383   83.8522 N   0  0  0  0  0  0  0  0  0  0  0  0
   13.0825   61.1077   84.3565 C   0  0  0  0  0  3  0  0  0  0  0  0
   14.4604   61.6939   84.4561 C   0  0  0  0  0  2  0  0  0  0  0  0
   12.1433   61.9292   83.5257 C   0  0  0  0  0  2  0  0  0  0  0  0
   14.5583   63.1006   83.9412 C   0  0  0  0  0  2  0  0  0  0  0  0
   13.3873   63.9618   84.3803 C   0  0  0  0  0  2  0  0  0  0  0  0
   12.5503   60.7701   85.6883 C   0  0  0  0  0  0  0  0  0  0  0  0
   13.2365   59.9237   86.6097 N   0  0  0  0  0  0  0  0  0  0  0  0
   12.9358   60.1136   87.9945 C   0  0  0  0  0  0  0  0  0  0  0  0
   12.1885   61.2063   88.3111 N   0  0  0  0  0  0  0  0  0  0  0  0
   13.3596   59.2685   88.9509 N   0  0  0  0  0  0  0  0  0  0  0  0
   11.8395   61.4966   89.5667 C   0  0  0  0  0  0  0  0  0  0  0  0
   13.0129   59.5490   90.2374 C   0  0  0  0  0  0  0  0  0  0  0  0
   11.0812   62.6109   89.8602 C   0  0  0  0  0  3  0  0  0  0  0  0
   12.2585   60.6485   90.5745 C   0  0  0  0  0  0  0  0  0  0  0  0
   10.7102   62.9294   91.1452 C   0  0  0  0  0  3  0  0  0  0  0  0
   11.8875   60.9680   91.8549 C   0  0  0  0  0  3  0  0  0  0  0  0
   11.1245   62.0877   92.1577 C   0  0  0  0  0  3  0  0  0  0  0  0
   11.4193   61.2742   86.0035 O   0  0  0  0  0  0  0  0  0  0  0  0
   13.3858   58.7882   91.1650 O   0  0  0  0  0  0  0  0  0  0  0  0
   11.1333   65.5784   83.3824 C   0  0  0  0  0  2  0  0  0  0  0  0
   11.4166   65.7263   82.0133 O   0  0  0  0  0  0  0  0  0  0  0  0
   11.5126   67.0150   81.4913 C   0  0  0  0  0  0  0  0  0  0  0  0
   10.4265   67.6624   80.9285 C   0  0  0  0  0  3  0  0  0  0  0  0
   12.7200   67.6875   81.5256 C   0  0  0  0  0  3  0  0  0  0  0  0
   10.5141   68.9203   80.4174 C   0  0  0  0  0  3  0  0  0  0  0  0
   12.8107   68.9697   81.0050 C   0  0  0  0  0  3  0  0  0  0  0  0
   11.7216   69.5974   80.4497 C   0  0  0  0  0  3  0  0  0  0  0  0
  1  3  1  0
  2  1  2  0
  3  6  1  0
  3  8  1  0
  4  9  1  0
  4  5  1  0
  6  4  1  0
  7  5  1  0
  8  7  1  0
  9 21  2  0
 10  9  1  0
 11 13  1  0
 11 10  1  0
 12 11  2  0
 14 17  2  0
 14 12  1  0
 15 22  2  0
 15 13  1  0
 16 14  1  0
 17 15  1  0
 18 20  1  0
 18 16  2  0
 19 17  1  0
 20 19  2  0
 23  1  1  0
 24 23  1  0
 25 27  1  0
 25 24  1  0
 26 25  2  0
 28 30  2  0
 28 26  1  0
 29 27  2  0
 30 29  1  0
M  RAD  8   4   2   5   3   6   3   7   3   8   3  16   2  18   2  19   2
M  RAD  7  20   2  23   3  26   2  27   2  28   2  29   2  30   2
M  END
>  <REMARK>  (1) 
 SMILES O=C(Nc1nc2ccccc2c(=O)[nH]1)C1CCCN(C(=O)COc2ccccc2)C1
 SMILES IDX 20 1 21 2 19 3 15 4 16 5 30 6 17 7 18 8 2 9 3 10 4 11 5 12
 SMILES IDX 14 13 6 14 12 15 7 16 11 17 8 18 10 19 9 20 1 21 13 24 22 25
 SMILES IDX 23 26 24 27 25 28 29 29 26 30 28 31 27 32
 H PARENT 3 22 14 23

>  <TORSDO>  (1) 
F 5

$$$$
