/home/pchatterjee/Documents/git/vs_workflow/DiffDock/diffdock_run/pdbqt_scrubbed/Z1255854579.pdbqt
     RDKit          3D

 30 33  0  0  1  0  0  0  0  0999 V2000
    0.9390   41.6292   48.4425 C   0  0  0  0  0  0  0  0  0  0  0  0
    0.3944   42.0378   49.4986 O   0  0  0  0  0  0  0  0  0  0  0  0
    2.2642   41.1143   48.4903 N   0  0  0  0  0  0  0  0  0  0  0  0
    4.3910   41.1256   49.7167 C   0  0  0  0  0  3  0  0  0  0  0  0
    5.0054   40.2832   48.6373 C   0  0  0  0  0  2  0  0  0  0  0  0
    2.8982   41.0096   49.7870 C   0  0  0  0  0  2  0  0  0  0  0  0
    4.0060   39.7068   47.6768 C   0  0  0  0  0  2  0  0  0  0  0  0
    2.9425   40.7127   47.2732 C   0  0  0  0  0  2  0  0  0  0  0  0
    4.8717   42.5166   49.6445 C   0  0  0  0  0  0  0  0  0  0  0  0
    6.0965   42.8857   49.0124 N   0  0  0  0  0  0  0  0  0  0  0  0
    6.9909   43.6950   49.7801 C   0  0  0  0  0  0  0  0  0  0  0  0
    6.4294   44.4838   50.7367 N   0  0  0  0  0  0  0  0  0  0  0  0
    8.3212   43.6922   49.5834 N   0  0  0  0  0  0  0  0  0  0  0  0
    7.1540   45.2855   51.5207 C   0  0  0  0  0  0  0  0  0  0  0  0
    9.0761   44.5040   50.3741 C   0  0  0  0  0  0  0  0  0  0  0  0
    6.5595   46.0751   52.4831 C   0  0  0  0  0  3  0  0  0  0  0  0
    8.5249   45.3070   51.3451 C   0  0  0  0  0  0  0  0  0  0  0  0
    7.2856   46.9079   53.3013 C   0  0  0  0  0  3  0  0  0  0  0  0
    9.2468   46.1381   52.1619 C   0  0  0  0  0  3  0  0  0  0  0  0
    8.6553   46.9355   53.1326 C   0  0  0  0  0  3  0  0  0  0  0  0
    4.1348   43.4112   50.1824 O   0  0  0  0  0  0  0  0  0  0  0  0
   10.3234   44.5351   50.2271 O   0  0  0  0  0  0  0  0  0  0  0  0
    0.2189   41.6728   47.1269 C   0  0  0  0  0  2  0  0  0  0  0  0
    0.5713   42.8893   46.5167 O   0  0  0  0  0  0  0  0  0  0  0  0
    0.0032   43.2014   45.2829 C   0  0  0  0  0  0  0  0  0  0  0  0
   -1.1811   43.9098   45.1774 C   0  0  0  0  0  3  0  0  0  0  0  0
    0.6241   42.8014   44.1141 C   0  0  0  0  0  3  0  0  0  0  0  0
   -1.7403   44.2174   43.9758 C   0  0  0  0  0  3  0  0  0  0  0  0
    0.0551   43.1143   42.8887 C   0  0  0  0  0  3  0  0  0  0  0  0
   -1.1217   43.8186   42.8028 C   0  0  0  0  0  3  0  0  0  0  0  0
  1  3  1  0
  2  1  2  0
  3  6  1  0
  3  8  1  0
  4  9  1  0
  4  5  1  0
  6  4  1  0
  7  5  1  0
  8  7  1  0
  9 21  2  0
 10  9  1  0
 11 13  1  0
 11 10  1  0
 12 11  2  0
 14 17  2  0
 14 12  1  0
 15 22  2  0
 15 13  1  0
 16 14  1  0
 17 15  1  0
 18 20  1  0
 18 16  2  0
 19 17  1  0
 20 19  2  0
 23  1  1  0
 24 23  1  0
 25 27  1  0
 25 24  1  0
 26 25  2  0
 28 30  2  0
 28 26  1  0
 29 27  2  0
 30 29  1  0
M  RAD  8   4   2   5   3   6   3   7   3   8   3  16   2  18   2  19   2
M  RAD  7  20   2  23   3  26   2  27   2  28   2  29   2  30   2
M  END
>  <REMARK>  (1) 
 SMILES O=C(Nc1nc2ccccc2c(=O)[nH]1)C1CCCN(C(=O)COc2ccccc2)C1
 SMILES IDX 20 1 21 2 19 3 15 4 16 5 30 6 17 7 18 8 2 9 3 10 4 11 5 12
 SMILES IDX 14 13 6 14 12 15 7 16 11 17 8 18 10 19 9 20 1 21 13 24 22 25
 SMILES IDX 23 26 24 27 25 28 29 29 26 30 28 31 27 32
 H PARENT 3 22 14 23

>  <TORSDO>  (1) 
F 5

$$$$
