/home/pchatterjee/Documents/git/vs_workflow/DiffDock/diffdock_run/pdbqt_scrubbed/Z1255854579.pdbqt
     RDKit          3D

 30 33  0  0  1  0  0  0  0  0999 V2000
    1.2236   41.2883   48.4502 C   0  0  0  0  0  0  0  0  0  0  0  0
    0.7027   41.5215   49.5697 O   0  0  0  0  0  0  0  0  0  0  0  0
    2.6098   40.9786   48.3723 N   0  0  0  0  0  0  0  0  0  0  0  0
    4.7884   41.1779   49.4866 C   0  0  0  0  0  3  0  0  0  0  0  0
    5.4464   40.5625   48.2864 C   0  0  0  0  0  2  0  0  0  0  0  0
    3.3361   40.8295   49.6150 C   0  0  0  0  0  2  0  0  0  0  0  0
    4.4803   39.9500   47.3141 C   0  0  0  0  0  2  0  0  0  0  0  0
    3.2579   40.8210   47.0846 C   0  0  0  0  0  2  0  0  0  0  0  0
    5.0560   42.6251   49.5565 C   0  0  0  0  0  0  0  0  0  0  0  0
    6.1303   43.2533   48.8582 N   0  0  0  0  0  0  0  0  0  0  0  0
    7.0807   43.9626   49.6568 C   0  0  0  0  0  0  0  0  0  0  0  0
    6.5760   44.8104   50.5945 N   0  0  0  0  0  0  0  0  0  0  0  0
    8.4087   43.8147   49.5056 N   0  0  0  0  0  0  0  0  0  0  0  0
    7.3565   45.5307   51.4036 C   0  0  0  0  0  0  0  0  0  0  0  0
    9.2201   44.5417   50.3224 C   0  0  0  0  0  0  0  0  0  0  0  0
    6.8190   46.3829   52.3459 C   0  0  0  0  0  3  0  0  0  0  0  0
    8.7268   45.4025   51.2749 C   0  0  0  0  0  0  0  0  0  0  0  0
    7.6031   47.1340   53.1892 C   0  0  0  0  0  3  0  0  0  0  0  0
    9.5065   46.1524   52.1168 C   0  0  0  0  0  3  0  0  0  0  0  0
    8.9726   47.0120   53.0674 C   0  0  0  0  0  3  0  0  0  0  0  0
    4.2719   43.3233   50.2848 O   0  0  0  0  0  0  0  0  0  0  0  0
   10.4676   44.4366   50.2182 O   0  0  0  0  0  0  0  0  0  0  0  0
    0.4119   41.3297   47.1890 C   0  0  0  0  0  2  0  0  0  0  0  0
    0.4356   42.6618   46.7401 O   0  0  0  0  0  0  0  0  0  0  0  0
   -0.1409   42.9561   45.5059 C   0  0  0  0  0  0  0  0  0  0  0  0
   -1.2204   43.8138   45.3850 C   0  0  0  0  0  3  0  0  0  0  0  0
    0.3642   42.3853   44.3524 C   0  0  0  0  0  3  0  0  0  0  0  0
   -1.7872   44.1048   44.1828 C   0  0  0  0  0  3  0  0  0  0  0  0
   -0.2127   42.6811   43.1264 C   0  0  0  0  0  3  0  0  0  0  0  0
   -1.2844   43.5353   43.0251 C   0  0  0  0  0  3  0  0  0  0  0  0
  1  3  1  0
  2  1  2  0
  3  6  1  0
  3  8  1  0
  4  9  1  0
  4  5  1  0
  6  4  1  0
  7  5  1  0
  8  7  1  0
  9 21  2  0
 10  9  1  0
 11 13  1  0
 11 10  1  0
 12 11  2  0
 14 17  2  0
 14 12  1  0
 15 22  2  0
 15 13  1  0
 16 14  1  0
 17 15  1  0
 18 20  1  0
 18 16  2  0
 19 17  1  0
 20 19  2  0
 23  1  1  0
 24 23  1  0
 25 27  1  0
 25 24  1  0
 26 25  2  0
 28 30  2  0
 28 26  1  0
 29 27  2  0
 30 29  1  0
M  RAD  8   4   2   5   3   6   3   7   3   8   3  16   2  18   2  19   2
M  RAD  7  20   2  23   3  26   2  27   2  28   2  29   2  30   2
M  END
>  <REMARK>  (1) 
 SMILES O=C(Nc1nc2ccccc2c(=O)[nH]1)C1CCCN(C(=O)COc2ccccc2)C1
 SMILES IDX 20 1 21 2 19 3 15 4 16 5 30 6 17 7 18 8 2 9 3 10 4 11 5 12
 SMILES IDX 14 13 6 14 12 15 7 16 11 17 8 18 10 19 9 20 1 21 13 24 22 25
 SMILES IDX 23 26 24 27 25 28 29 29 26 30 28 31 27 32
 H PARENT 3 22 14 23

>  <TORSDO>  (1) 
F 5

$$$$
