/home/pchatterjee/Documents/git/vs_workflow/DiffDock/diffdock_run/pdbqt_scrubbed/Z1255854579.pdbqt
     RDKit          3D

 30 33  0  0  1  0  0  0  0  0999 V2000
    2.2099   40.2275   47.5669 C   0  0  0  0  0  0  0  0  0  0  0  0
    2.9153   39.2303   47.2722 O   0  0  0  0  0  0  0  0  0  0  0  0
    2.3926   40.8695   48.8231 N   0  0  0  0  0  0  0  0  0  0  0  0
    3.7578   42.4655   50.0945 C   0  0  0  0  0  3  0  0  0  0  0  0
    2.9809   42.1268   51.3331 C   0  0  0  0  0  2  0  0  0  0  0  0
    3.0136   42.1767   48.8258 C   0  0  0  0  0  2  0  0  0  0  0  0
    1.7391   41.3260   51.0684 C   0  0  0  0  0  2  0  0  0  0  0  0
    1.9662   40.2234   50.0493 C   0  0  0  0  0  2  0  0  0  0  0  0
    5.1070   41.8747   50.1344 C   0  0  0  0  0  0  0  0  0  0  0  0
    6.1709   42.3042   49.2860 N   0  0  0  0  0  0  0  0  0  0  0  0
    7.0842   43.2540   49.8408 C   0  0  0  0  0  0  0  0  0  0  0  0
    6.5500   44.2173   50.6404 N   0  0  0  0  0  0  0  0  0  0  0  0
    8.4064   43.2158   49.5979 N   0  0  0  0  0  0  0  0  0  0  0  0
    7.2945   45.1624   51.2191 C   0  0  0  0  0  0  0  0  0  0  0  0
    9.1811   44.1722   50.1800 C   0  0  0  0  0  0  0  0  0  0  0  0
    6.7274   46.1276   52.0254 C   0  0  0  0  0  3  0  0  0  0  0  0
    8.6576   45.1524   50.9904 C   0  0  0  0  0  0  0  0  0  0  0  0
    7.4743   47.1101   52.6313 C   0  0  0  0  0  3  0  0  0  0  0  0
    9.4002   46.1329   51.5955 C   0  0  0  0  0  3  0  0  0  0  0  0
    8.8364   47.1073   52.4082 C   0  0  0  0  0  3  0  0  0  0  0  0
    5.3019   40.9359   50.9790 O   0  0  0  0  0  0  0  0  0  0  0  0
   10.4217   44.1770   49.9822 O   0  0  0  0  0  0  0  0  0  0  0  0
    1.1749   40.7578   46.6189 C   0  0  0  0  0  2  0  0  0  0  0  0
    1.8404   41.6422   45.7519 O   0  0  0  0  0  0  0  0  0  0  0  0
    1.0819   42.3716   44.8382 C   0  0  0  0  0  0  0  0  0  0  0  0
   -0.0944   43.0049   45.1997 C   0  0  0  0  0  3  0  0  0  0  0  0
    1.4975   42.4798   43.5240 C   0  0  0  0  0  3  0  0  0  0  0  0
   -0.8390   43.7183   44.3121 C   0  0  0  0  0  3  0  0  0  0  0  0
    0.7394   43.2067   42.6183 C   0  0  0  0  0  3  0  0  0  0  0  0
   -0.4264   43.8293   42.9949 C   0  0  0  0  0  3  0  0  0  0  0  0
  1  3  1  0
  2  1  2  0
  3  6  1  0
  3  8  1  0
  4  9  1  0
  4  5  1  0
  6  4  1  0
  7  5  1  0
  8  7  1  0
  9 21  2  0
 10  9  1  0
 11 13  1  0
 11 10  1  0
 12 11  2  0
 14 17  2  0
 14 12  1  0
 15 22  2  0
 15 13  1  0
 16 14  1  0
 17 15  1  0
 18 20  1  0
 18 16  2  0
 19 17  1  0
 20 19  2  0
 23  1  1  0
 24 23  1  0
 25 27  1  0
 25 24  1  0
 26 25  2  0
 28 30  2  0
 28 26  1  0
 29 27  2  0
 30 29  1  0
M  RAD  8   4   2   5   3   6   3   7   3   8   3  16   2  18   2  19   2
M  RAD  7  20   2  23   3  26   2  27   2  28   2  29   2  30   2
M  END
>  <REMARK>  (1) 
 SMILES O=C(Nc1nc2ccccc2c(=O)[nH]1)C1CCCN(C(=O)COc2ccccc2)C1
 SMILES IDX 20 1 21 2 19 3 15 4 16 5 30 6 17 7 18 8 2 9 3 10 4 11 5 12
 SMILES IDX 14 13 6 14 12 15 7 16 11 17 8 18 10 19 9 20 1 21 13 24 22 25
 SMILES IDX 23 26 24 27 25 28 29 29 26 30 28 31 27 32
 H PARENT 3 22 14 23

>  <TORSDO>  (1) 
F 5

$$$$
