/home/pchatterjee/Documents/git/vs_workflow/DiffDock/diffdock_run/pdbqt_scrubbed/Z1255854579.pdbqt
     RDKit          3D

 30 33  0  0  1  0  0  0  0  0999 V2000
    5.1108   41.1807   48.7461 C   0  0  0  0  0  0  0  0  0  0  0  0
    4.8849   39.9992   49.1093 O   0  0  0  0  0  0  0  0  0  0  0  0
    5.4720   42.1560   49.7166 N   0  0  0  0  0  0  0  0  0  0  0  0
    6.7737   44.1935   50.1431 C   0  0  0  0  0  3  0  0  0  0  0  0
    6.4105   44.1082   51.5968 C   0  0  0  0  0  2  0  0  0  0  0  0
    5.8080   43.4820   49.2442 C   0  0  0  0  0  2  0  0  0  0  0  0
    5.3218   43.1175   51.8914 C   0  0  0  0  0  2  0  0  0  0  0  0
    5.4980   41.8177   51.1265 C   0  0  0  0  0  2  0  0  0  0  0  0
    8.1786   43.8083   49.9221 C   0  0  0  0  0  0  0  0  0  0  0  0
    9.2737   44.4467   50.5774 N   0  0  0  0  0  0  0  0  0  0  0  0
    8.9479   45.5227   51.4607 C   0  0  0  0  0  0  0  0  0  0  0  0
    7.6344   45.6653   51.7882 N   0  0  0  0  0  0  0  0  0  0  0  0
    9.8756   46.3620   51.9539 N   0  0  0  0  0  0  0  0  0  0  0  0
    7.1996   46.6292   52.6032 C   0  0  0  0  0  0  0  0  0  0  0  0
    9.4500   47.3514   52.7870 C   0  0  0  0  0  0  0  0  0  0  0  0
    5.8623   46.7514   52.9190 C   0  0  0  0  0  3  0  0  0  0  0  0
    8.1270   47.5095   53.1280 C   0  0  0  0  0  0  0  0  0  0  0  0
    5.3921   47.7359   53.7557 C   0  0  0  0  0  3  0  0  0  0  0  0
    7.6560   48.4902   53.9619 C   0  0  0  0  0  3  0  0  0  0  0  0
    6.3116   48.6192   54.2841 C   0  0  0  0  0  3  0  0  0  0  0  0
    8.3937   42.8546   49.0995 O   0  0  0  0  0  0  0  0  0  0  0  0
   10.2803   48.1596   53.2724 O   0  0  0  0  0  0  0  0  0  0  0  0
    5.0073   41.5867   47.3054 C   0  0  0  0  0  2  0  0  0  0  0  0
    3.9686   40.8216   46.7465 O   0  0  0  0  0  0  0  0  0  0  0  0
    3.3623   41.2795   45.5781 C   0  0  0  0  0  0  0  0  0  0  0  0
    3.9560   41.1333   44.3365 C   0  0  0  0  0  3  0  0  0  0  0  0
    2.1294   41.9023   45.6365 C   0  0  0  0  0  3  0  0  0  0  0  0
    3.3689   41.5782   43.1926 C   0  0  0  0  0  3  0  0  0  0  0  0
    1.5299   42.3563   44.4712 C   0  0  0  0  0  3  0  0  0  0  0  0
    2.1341   42.2026   43.2465 C   0  0  0  0  0  3  0  0  0  0  0  0
  1  3  1  0
  2  1  2  0
  3  6  1  0
  3  8  1  0
  4  9  1  0
  4  5  1  0
  6  4  1  0
  7  5  1  0
  8  7  1  0
  9 21  2  0
 10  9  1  0
 11 13  1  0
 11 10  1  0
 12 11  2  0
 14 17  2  0
 14 12  1  0
 15 22  2  0
 15 13  1  0
 16 14  1  0
 17 15  1  0
 18 20  1  0
 18 16  2  0
 19 17  1  0
 20 19  2  0
 23  1  1  0
 24 23  1  0
 25 27  1  0
 25 24  1  0
 26 25  2  0
 28 30  2  0
 28 26  1  0
 29 27  2  0
 30 29  1  0
M  RAD  8   4   2   5   3   6   3   7   3   8   3  16   2  18   2  19   2
M  RAD  7  20   2  23   3  26   2  27   2  28   2  29   2  30   2
M  END
>  <REMARK>  (1) 
 SMILES O=C(Nc1nc2ccccc2c(=O)[nH]1)C1CCCN(C(=O)COc2ccccc2)C1
 SMILES IDX 20 1 21 2 19 3 15 4 16 5 30 6 17 7 18 8 2 9 3 10 4 11 5 12
 SMILES IDX 14 13 6 14 12 15 7 16 11 17 8 18 10 19 9 20 1 21 13 24 22 25
 SMILES IDX 23 26 24 27 25 28 29 29 26 30 28 31 27 32
 H PARENT 3 22 14 23

>  <TORSDO>  (1) 
F 5

$$$$
