/home/pchatterjee/Documents/git/vs_workflow/DiffDock/diffdock_run/pdbqt_scrubbed/Z1255854579.pdbqt
     RDKit          3D

 30 33  0  0  1  0  0  0  0  0999 V2000
    2.8995   40.0150   47.4670 C   0  0  0  0  0  0  0  0  0  0  0  0
    2.5366   38.8152   47.5549 O   0  0  0  0  0  0  0  0  0  0  0  0
    3.3200   40.7083   48.6358 N   0  0  0  0  0  0  0  0  0  0  0  0
    4.4885   42.6879   49.4979 C   0  0  0  0  0  3  0  0  0  0  0  0
    4.3639   42.1417   50.8902 C   0  0  0  0  0  2  0  0  0  0  0  0
    3.4611   42.1460   48.5504 C   0  0  0  0  0  2  0  0  0  0  0  0
    3.4251   40.9755   51.0011 C   0  0  0  0  0  2  0  0  0  0  0  0
    3.5937   39.9850   49.8626 C   0  0  0  0  0  2  0  0  0  0  0  0
    5.8704   42.5682   49.0011 C   0  0  0  0  0  0  0  0  0  0  0  0
    6.7300   43.6913   48.8113 N   0  0  0  0  0  0  0  0  0  0  0  0
    7.1215   44.4001   49.9897 C   0  0  0  0  0  0  0  0  0  0  0  0
    8.4525   44.6407   50.1415 N   0  0  0  0  0  0  0  0  0  0  0  0
    6.2367   44.8165   50.9128 N   0  0  0  0  0  0  0  0  0  0  0  0
    8.9472   45.2921   51.1967 C   0  0  0  0  0  0  0  0  0  0  0  0
    6.7236   45.4827   51.9959 C   0  0  0  0  0  0  0  0  0  0  0  0
   10.3012   45.5228   51.3261 C   0  0  0  0  0  3  0  0  0  0  0  0
    8.0652   45.7341   52.1647 C   0  0  0  0  0  0  0  0  0  0  0  0
   10.8327   46.1912   52.4037 C   0  0  0  0  0  3  0  0  0  0  0  0
    8.5974   46.4002   53.2381 C   0  0  0  0  0  3  0  0  0  0  0  0
    9.9588   46.6360   53.3750 C   0  0  0  0  0  3  0  0  0  0  0  0
    6.2895   41.3905   48.7367 O   0  0  0  0  0  0  0  0  0  0  0  0
    5.9351   45.8910   52.8846 O   0  0  0  0  0  0  0  0  0  0  0  0
    2.8989   40.7351   46.1507 C   0  0  0  0  0  2  0  0  0  0  0  0
    1.5731   40.7159   45.6834 O   0  0  0  0  0  0  0  0  0  0  0  0
    1.1834   41.6787   44.7540 C   0  0  0  0  0  0  0  0  0  0  0  0
    1.8354   41.8376   43.5436 C   0  0  0  0  0  3  0  0  0  0  0  0
    0.1151   42.5123   45.0278 C   0  0  0  0  0  3  0  0  0  0  0  0
    1.4595   42.7757   42.6326 C   0  0  0  0  0  3  0  0  0  0  0  0
   -0.2691   43.4689   44.1001 C   0  0  0  0  0  3  0  0  0  0  0  0
    0.3900   43.6127   42.9028 C   0  0  0  0  0  3  0  0  0  0  0  0
  1  3  1  0
  2  1  2  0
  3  6  1  0
  3  8  1  0
  4  9  1  0
  4  5  1  0
  6  4  1  0
  7  5  1  0
  8  7  1  0
  9 21  2  0
 10  9  1  0
 11 13  1  0
 11 10  1  0
 12 11  2  0
 14 17  2  0
 14 12  1  0
 15 22  2  0
 15 13  1  0
 16 14  1  0
 17 15  1  0
 18 20  1  0
 18 16  2  0
 19 17  1  0
 20 19  2  0
 23  1  1  0
 24 23  1  0
 25 27  1  0
 25 24  1  0
 26 25  2  0
 28 30  2  0
 28 26  1  0
 29 27  2  0
 30 29  1  0
M  RAD  8   4   2   5   3   6   3   7   3   8   3  16   2  18   2  19   2
M  RAD  7  20   2  23   3  26   2  27   2  28   2  29   2  30   2
M  END
>  <REMARK>  (1) 
 SMILES O=C(Nc1nc2ccccc2c(=O)[nH]1)C1CCCN(C(=O)COc2ccccc2)C1
 SMILES IDX 20 1 21 2 19 3 15 4 16 5 30 6 17 7 18 8 2 9 3 10 4 11 5 12
 SMILES IDX 14 13 6 14 12 15 7 16 11 17 8 18 10 19 9 20 1 21 13 24 22 25
 SMILES IDX 23 26 24 27 25 28 29 29 26 30 28 31 27 32
 H PARENT 3 22 14 23

>  <TORSDO>  (1) 
F 5

$$$$
