/home/pchatterjee/Documents/git/vs_workflow/DiffDock/diffdock_run/pdbqt_scrubbed/Z1255854579.pdbqt
     RDKit          3D

 30 33  0  0  1  0  0  0  0  0999 V2000
    1.2368   40.7670   47.5682 C   0  0  0  0  0  0  0  0  0  0  0  0
    0.6473   39.6731   47.3817 O   0  0  0  0  0  0  0  0  0  0  0  0
    2.0838   40.9234   48.7003 N   0  0  0  0  0  0  0  0  0  0  0  0
    3.8107   42.3159   49.7523 C   0  0  0  0  0  3  0  0  0  0  0  0
    3.9563   41.2936   50.8413 C   0  0  0  0  0  2  0  0  0  0  0  0
    2.4808   42.2671   49.0622 C   0  0  0  0  0  2  0  0  0  0  0  0
    2.8682   40.2593   50.8498 C   0  0  0  0  0  2  0  0  0  0  0  0
    2.5254   39.7665   49.4551 C   0  0  0  0  0  2  0  0  0  0  0  0
    4.9569   42.2751   48.8274 C   0  0  0  0  0  0  0  0  0  0  0  0
    6.2953   42.0282   49.2561 N   0  0  0  0  0  0  0  0  0  0  0  0
    7.0307   43.1585   49.7311 C   0  0  0  0  0  0  0  0  0  0  0  0
    6.4330   43.9132   50.6934 N   0  0  0  0  0  0  0  0  0  0  0  0
    8.2512   43.4774   49.2650 N   0  0  0  0  0  0  0  0  0  0  0  0
    7.0136   44.9939   51.2202 C   0  0  0  0  0  0  0  0  0  0  0  0
    8.8584   44.5768   49.7910 C   0  0  0  0  0  0  0  0  0  0  0  0
    6.3856   45.7414   52.1948 C   0  0  0  0  0  3  0  0  0  0  0  0
    8.2687   45.3501   50.7636 C   0  0  0  0  0  0  0  0  0  0  0  0
    6.9642   46.8576   52.7513 C   0  0  0  0  0  3  0  0  0  0  0  0
    8.8436   46.4631   51.3198 C   0  0  0  0  0  3  0  0  0  0  0  0
    8.2175   47.2203   52.3010 C   0  0  0  0  0  3  0  0  0  0  0  0
    4.7082   42.4738   47.5899 O   0  0  0  0  0  0  0  0  0  0  0  0
    9.9991   44.9139   49.3868 O   0  0  0  0  0  0  0  0  0  0  0  0
    1.0661   41.9163   46.6189 C   0  0  0  0  0  2  0  0  0  0  0  0
    0.2058   41.4708   45.6000 O   0  0  0  0  0  0  0  0  0  0  0  0
   -0.1969   42.3827   44.6261 C   0  0  0  0  0  0  0  0  0  0  0  0
   -1.1005   43.3954   44.8968 C   0  0  0  0  0  3  0  0  0  0  0  0
    0.3087   42.2927   43.3425 C   0  0  0  0  0  3  0  0  0  0  0  0
   -1.4973   44.2885   43.9501 C   0  0  0  0  0  3  0  0  0  0  0  0
   -0.0949   43.2024   42.3767 C   0  0  0  0  0  3  0  0  0  0  0  0
   -0.9934   44.2020   42.6632 C   0  0  0  0  0  3  0  0  0  0  0  0
  1  3  1  0
  2  1  2  0
  3  6  1  0
  3  8  1  0
  4  9  1  0
  4  5  1  0
  6  4  1  0
  7  5  1  0
  8  7  1  0
  9 21  2  0
 10  9  1  0
 11 13  1  0
 11 10  1  0
 12 11  2  0
 14 17  2  0
 14 12  1  0
 15 22  2  0
 15 13  1  0
 16 14  1  0
 17 15  1  0
 18 20  1  0
 18 16  2  0
 19 17  1  0
 20 19  2  0
 23  1  1  0
 24 23  1  0
 25 27  1  0
 25 24  1  0
 26 25  2  0
 28 30  2  0
 28 26  1  0
 29 27  2  0
 30 29  1  0
M  RAD  8   4   2   5   3   6   3   7   3   8   3  16   2  18   2  19   2
M  RAD  7  20   2  23   3  26   2  27   2  28   2  29   2  30   2
M  END
>  <REMARK>  (1) 
 SMILES O=C(Nc1nc2ccccc2c(=O)[nH]1)C1CCCN(C(=O)COc2ccccc2)C1
 SMILES IDX 20 1 21 2 19 3 15 4 16 5 30 6 17 7 18 8 2 9 3 10 4 11 5 12
 SMILES IDX 14 13 6 14 12 15 7 16 11 17 8 18 10 19 9 20 1 21 13 24 22 25
 SMILES IDX 23 26 24 27 25 28 29 29 26 30 28 31 27 32
 H PARENT 3 22 14 23

>  <TORSDO>  (1) 
F 5

$$$$
