/home/pchatterjee/Documents/git/vs_workflow/DiffDock/diffdock_run/pdbqt_scrubbed/Z1665619458.pdbqt
     RDKit          3D

 27 30  0  0  0  0  0  0  0  0999 V2000
    7.3283   44.9146   50.0403 C   0  0  0  0  0  0  0  0  0  0  0  0
    6.2663   44.1307   49.6291 C   0  0  0  0  0  3  0  0  0  0  0  0
    6.7485   43.0943   48.8330 C   0  0  0  0  0  0  0  0  0  0  0  0
    8.0810   43.2762   48.7830 N   0  0  0  0  0  0  0  0  0  0  0  0
    8.4201   44.3487   49.4947 N   0  0  0  0  0  0  0  0  0  0  0  0
    7.2857   46.0809   50.8692 N   0  0  0  0  0  0  0  0  0  0  0  0
    8.2393   46.1824   51.9266 C   0  0  0  0  0  0  0  0  0  0  0  0
    9.2622   45.4486   51.7641 O   0  0  0  0  0  0  0  0  0  0  0  0
    8.0271   47.0506   53.0619 C   0  0  0  0  0  0  0  0  0  0  0  0
    8.9793   47.8192   53.7325 C   0  0  0  0  0  0  0  0  0  0  0  0
    8.3566   48.4727   54.7230 N   0  0  0  0  0  0  0  0  0  0  0  0
    7.1289   48.1498   54.6843 O   0  0  0  0  0  0  0  0  0  0  0  0
    6.8551   47.2909   53.7030 C   0  0  0  0  0  0  0  0  0  0  0  0
   10.4279   47.9534   53.4731 C   0  0  0  0  0  1  0  0  0  0  0  0
    5.5043   46.8069   53.5012 C   0  0  0  0  0  0  0  0  0  0  0  0
    4.6517   47.5687   52.6885 C   0  0  0  0  0  3  0  0  0  0  0  0
    4.9554   45.6723   54.0217 C   0  0  0  0  0  3  0  0  0  0  0  0
    3.3380   47.1634   52.4502 C   0  0  0  0  0  3  0  0  0  0  0  0
    3.6778   45.2470   53.8099 C   0  0  0  0  0  3  0  0  0  0  0  0
    2.8567   46.0058   53.0110 C   0  0  0  0  0  3  0  0  0  0  0  0
    5.9816   42.0070   48.1681 C   0  0  0  0  0  2  0  0  0  0  0  0
    5.6217   40.9109   49.1425 C   0  0  0  0  0  3  0  0  0  0  0  0
    4.9184   39.7826   48.4315 C   0  0  0  0  0  2  0  0  0  0  0  0
    4.8653   41.4305   50.3200 C   0  0  0  0  0  2  0  0  0  0  0  0
    3.4477   40.1032   48.3652 C   0  0  0  0  0  2  0  0  0  0  0  0
    3.6565   42.1860   49.7710 C   0  0  0  0  0  2  0  0  0  0  0  0
    3.1962   41.5976   48.4565 C   0  0  0  0  0  2  0  0  0  0  0  0
  1  2  2  0
  1  5  1  0
  2  3  1  0
  3  4  2  0
  3 21  1  0
  5  4  1  0
  6  1  1  0
  7  8  2  0
  7  6  1  0
  9 13  2  0
  9  7  1  0
 10  9  1  0
 11 10  2  0
 11 12  1  0
 12 13  1  0
 13 15  1  0
 14 10  1  0
 15 16  2  0
 16 18  1  0
 17 19  2  0
 17 15  1  0
 19 20  1  0
 20 18  2  0
 21 22  1  0
 22 24  1  0
 22 23  1  0
 24 26  1  0
 25 23  1  0
 27 25  1  0
 27 26  1  0
M  RAD  8   2   2  14   2  16   2  17   2  18   2  19   2  20   2  21   3
M  RAD  6  22   2  23   3  24   3  25   3  26   3  27   3
M  END
>  <REMARK>  (1) 
 SMILES Cc1noc(-c2ccccc2)c1C(=O)Nc1cc(CC2CCCCC2)n[nH]1
 SMILES IDX 16 1 17 2 18 3 26 4 27 5 15 7 13 8 14 9 12 11 2 12 3 13 4 14
 SMILES IDX 5 15 1 16 6 17 7 18 11 19 8 20 10 21 9 22 19 23 20 24 21 25
 SMILES IDX 25 26 22 27 24 28 23 29
 H PARENT 27 6 15 10

>  <TORSDO>  (1) 
F 5

$$$$
