/home/pchatterjee/Documents/git/vs_workflow/DiffDock/diffdock_run/pdbqt_scrubbed/Z1665619458.pdbqt
     RDKit          3D

 27 30  0  0  0  0  0  0  0  0999 V2000
    7.7227   44.1694   50.9397 C   0  0  0  0  0  0  0  0  0  0  0  0
    6.5334   43.6591   50.4534 C   0  0  0  0  0  3  0  0  0  0  0  0
    6.7693   43.0526   49.2218 C   0  0  0  0  0  0  0  0  0  0  0  0
    8.0865   43.2101   48.9956 N   0  0  0  0  0  0  0  0  0  0  0  0
    8.6459   43.8681   50.0085 N   0  0  0  0  0  0  0  0  0  0  0  0
    7.9366   44.8700   52.1695 N   0  0  0  0  0  0  0  0  0  0  0  0
    8.2746   46.2549   52.0977 C   0  0  0  0  0  0  0  0  0  0  0  0
    8.8618   46.5822   51.0210 O   0  0  0  0  0  0  0  0  0  0  0  0
    7.9620   47.1712   53.1703 C   0  0  0  0  0  0  0  0  0  0  0  0
    8.8290   48.0595   53.8078 C   0  0  0  0  0  0  0  0  0  0  0  0
    8.1292   48.7178   54.7420 N   0  0  0  0  0  0  0  0  0  0  0  0
    6.9345   48.2888   54.7009 O   0  0  0  0  0  0  0  0  0  0  0  0
    6.7585   47.3496   53.7721 C   0  0  0  0  0  0  0  0  0  0  0  0
   10.2670   48.3012   53.5679 C   0  0  0  0  0  1  0  0  0  0  0  0
    5.4589   46.7394   53.5764 C   0  0  0  0  0  0  0  0  0  0  0  0
    5.1466   45.6068   54.3429 C   0  0  0  0  0  3  0  0  0  0  0  0
    4.4844   47.1484   52.7147 C   0  0  0  0  0  3  0  0  0  0  0  0
    3.9138   44.9676   54.2071 C   0  0  0  0  0  3  0  0  0  0  0  0
    3.2707   46.5485   52.5567 C   0  0  0  0  0  3  0  0  0  0  0  0
    2.9818   45.4401   53.3158 C   0  0  0  0  0  3  0  0  0  0  0  0
    5.7965   42.3703   48.3270 C   0  0  0  0  0  2  0  0  0  0  0  0
    5.4435   40.9956   48.8427 C   0  0  0  0  0  3  0  0  0  0  0  0
    4.6882   40.2169   47.7955 C   0  0  0  0  0  2  0  0  0  0  0  0
    4.7414   41.0512   50.1589 C   0  0  0  0  0  2  0  0  0  0  0  0
    3.2246   40.5543   47.9128 C   0  0  0  0  0  2  0  0  0  0  0  0
    3.5334   41.9684   49.9775 C   0  0  0  0  0  2  0  0  0  0  0  0
    3.0135   41.9119   48.5588 C   0  0  0  0  0  2  0  0  0  0  0  0
  1  2  2  0
  1  5  1  0
  2  3  1  0
  3  4  2  0
  3 21  1  0
  5  4  1  0
  6  1  1  0
  7  8  2  0
  7  6  1  0
  9 13  2  0
  9  7  1  0
 10  9  1  0
 11 10  2  0
 11 12  1  0
 12 13  1  0
 13 15  1  0
 14 10  1  0
 15 16  2  0
 16 18  1  0
 17 19  2  0
 17 15  1  0
 19 20  1  0
 20 18  2  0
 21 22  1  0
 22 24  1  0
 22 23  1  0
 24 26  1  0
 25 23  1  0
 27 25  1  0
 27 26  1  0
M  RAD  8   2   2  14   2  16   2  17   2  18   2  19   2  20   2  21   3
M  RAD  6  22   2  23   3  24   3  25   3  26   3  27   3
M  END
>  <REMARK>  (1) 
 SMILES Cc1noc(-c2ccccc2)c1C(=O)Nc1cc(CC2CCCCC2)n[nH]1
 SMILES IDX 16 1 17 2 18 3 26 4 27 5 15 7 13 8 14 9 12 11 2 12 3 13 4 14
 SMILES IDX 5 15 1 16 6 17 7 18 11 19 8 20 10 21 9 22 19 23 20 24 21 25
 SMILES IDX 25 26 22 27 24 28 23 29
 H PARENT 27 6 15 10

>  <TORSDO>  (1) 
F 5

$$$$
