/home/pchatterjee/Documents/git/vs_workflow/DiffDock/diffdock_run/pdbqt_scrubbed/Z1665619458.pdbqt
     RDKit          3D

 27 30  0  0  0  0  0  0  0  0999 V2000
    9.9547   64.0831   82.6724 C   0  0  0  0  0  0  0  0  0  0  0  0
   10.6174   65.2484   82.3343 C   0  0  0  0  0  3  0  0  0  0  0  0
    9.6899   66.2813   82.2194 C   0  0  0  0  0  0  0  0  0  0  0  0
    8.4975   65.7186   82.4891 N   0  0  0  0  0  0  0  0  0  0  0  0
    8.6559   64.4241   82.7555 N   0  0  0  0  0  0  0  0  0  0  0  0
   10.5203   62.7862   82.8897 N   0  0  0  0  0  0  0  0  0  0  0  0
   11.9269   62.6324   82.7019 C   0  0  0  0  0  0  0  0  0  0  0  0
   12.5081   63.6895   82.3070 O   0  0  0  0  0  0  0  0  0  0  0  0
   12.5946   61.3749   82.9482 C   0  0  0  0  0  0  0  0  0  0  0  0
   13.9661   61.1204   82.9117 C   0  0  0  0  0  0  0  0  0  0  0  0
   14.1516   59.8250   83.2004 N   0  0  0  0  0  0  0  0  0  0  0  0
   13.0089   59.3082   83.4005 O   0  0  0  0  0  0  0  0  0  0  0  0
   12.0173   60.1879   83.2649 C   0  0  0  0  0  0  0  0  0  0  0  0
   15.0834   62.0423   82.6190 C   0  0  0  0  0  1  0  0  0  0  0  0
   10.6393   59.7821   83.4556 C   0  0  0  0  0  0  0  0  0  0  0  0
   10.1828   59.6172   84.7716 C   0  0  0  0  0  3  0  0  0  0  0  0
    9.7164   59.5371   82.4821 C   0  0  0  0  0  3  0  0  0  0  0  0
    8.8680   59.2282   85.0304 C   0  0  0  0  0  3  0  0  0  0  0  0
    8.4258   59.1561   82.6989 C   0  0  0  0  0  3  0  0  0  0  0  0
    7.9957   58.9994   83.9946 C   0  0  0  0  0  3  0  0  0  0  0  0
    9.9339   67.7075   81.8748 C   0  0  0  0  0  2  0  0  0  0  0  0
   10.6217   67.8416   80.5372 C   0  0  0  0  0  3  0  0  0  0  0  0
   12.0369   67.3276   80.6174 C   0  0  0  0  0  2  0  0  0  0  0  0
   10.5262   69.2278   79.9914 C   0  0  0  0  0  2  0  0  0  0  0  0
   12.9240   68.4454   81.1008 C   0  0  0  0  0  2  0  0  0  0  0  0
   11.0798   70.1644   81.0637 C   0  0  0  0  0  2  0  0  0  0  0  0
   12.1417   69.4779   81.8925 C   0  0  0  0  0  2  0  0  0  0  0  0
  1  2  2  0
  1  5  1  0
  2  3  1  0
  3  4  2  0
  3 21  1  0
  5  4  1  0
  6  1  1  0
  7  8  2  0
  7  6  1  0
  9 13  2  0
  9  7  1  0
 10  9  1  0
 11 10  2  0
 11 12  1  0
 12 13  1  0
 13 15  1  0
 14 10  1  0
 15 16  2  0
 16 18  1  0
 17 19  2  0
 17 15  1  0
 19 20  1  0
 20 18  2  0
 21 22  1  0
 22 24  1  0
 22 23  1  0
 24 26  1  0
 25 23  1  0
 27 25  1  0
 27 26  1  0
M  RAD  8   2   2  14   2  16   2  17   2  18   2  19   2  20   2  21   3
M  RAD  6  22   2  23   3  24   3  25   3  26   3  27   3
M  END
>  <REMARK>  (1) 
 SMILES Cc1noc(-c2ccccc2)c1C(=O)Nc1cc(CC2CCCCC2)n[nH]1
 SMILES IDX 16 1 17 2 18 3 26 4 27 5 15 7 13 8 14 9 12 11 2 12 3 13 4 14
 SMILES IDX 5 15 1 16 6 17 7 18 11 19 8 20 10 21 9 22 19 23 20 24 21 25
 SMILES IDX 25 26 22 27 24 28 23 29
 H PARENT 27 6 15 10

>  <TORSDO>  (1) 
F 5

$$$$
