/home/pchatterjee/Documents/git/vs_workflow/DiffDock/diffdock_run/pdbqt_scrubbed/Z1665619458.pdbqt
     RDKit          3D

 27 30  0  0  0  0  0  0  0  0999 V2000
    5.0267   45.7761   52.8590 C   0  0  0  0  0  0  0  0  0  0  0  0
    4.9727   47.1553   52.9372 C   0  0  0  0  0  3  0  0  0  0  0  0
    3.9303   47.5216   53.7856 C   0  0  0  0  0  0  0  0  0  0  0  0
    3.3837   46.3625   54.1964 N   0  0  0  0  0  0  0  0  0  0  0  0
    4.0309   45.3359   53.6495 N   0  0  0  0  0  0  0  0  0  0  0  0
    5.9422   44.9776   52.1019 N   0  0  0  0  0  0  0  0  0  0  0  0
    7.2096   45.5468   51.7737 C   0  0  0  0  0  0  0  0  0  0  0  0
    7.3913   46.7044   52.2617 O   0  0  0  0  0  0  0  0  0  0  0  0
    8.1724   44.8419   50.9590 C   0  0  0  0  0  0  0  0  0  0  0  0
    9.5240   45.1443   50.7891 C   0  0  0  0  0  0  0  0  0  0  0  0
   10.0460   44.2374   49.9518 N   0  0  0  0  0  0  0  0  0  0  0  0
    9.1158   43.4377   49.6227 O   0  0  0  0  0  0  0  0  0  0  0  0
    7.9515   43.7420   50.1948 C   0  0  0  0  0  0  0  0  0  0  0  0
   10.3214   46.2393   51.3798 C   0  0  0  0  0  1  0  0  0  0  0  0
    6.7714   42.9411   49.9384 C   0  0  0  0  0  0  0  0  0  0  0  0
    5.6880   43.0729   50.8197 C   0  0  0  0  0  3  0  0  0  0  0  0
    6.5896   42.0556   48.9175 C   0  0  0  0  0  3  0  0  0  0  0  0
    4.5196   42.3331   50.6343 C   0  0  0  0  0  3  0  0  0  0  0  0
    5.4632   41.3175   48.7068 C   0  0  0  0  0  3  0  0  0  0  0  0
    4.4118   41.4594   49.5801 C   0  0  0  0  0  3  0  0  0  0  0  0
    3.4920   48.8892   54.1730 C   0  0  0  0  0  2  0  0  0  0  0  0
    3.9962   49.9264   53.1982 C   0  0  0  0  0  3  0  0  0  0  0  0
    5.3941   50.3581   53.5627 C   0  0  0  0  0  2  0  0  0  0  0  0
    3.0452   51.0674   53.0483 C   0  0  0  0  0  2  0  0  0  0  0  0
    5.3016   51.4669   54.5786 C   0  0  0  0  0  2  0  0  0  0  0  0
    2.7878   51.6157   54.4506 C   0  0  0  0  0  2  0  0  0  0  0  0
    3.9914   51.4167   55.3439 C   0  0  0  0  0  2  0  0  0  0  0  0
  1  2  2  0
  1  5  1  0
  2  3  1  0
  3  4  2  0
  3 21  1  0
  5  4  1  0
  6  1  1  0
  7  8  2  0
  7  6  1  0
  9 13  2  0
  9  7  1  0
 10  9  1  0
 11 10  2  0
 11 12  1  0
 12 13  1  0
 13 15  1  0
 14 10  1  0
 15 16  2  0
 16 18  1  0
 17 19  2  0
 17 15  1  0
 19 20  1  0
 20 18  2  0
 21 22  1  0
 22 24  1  0
 22 23  1  0
 24 26  1  0
 25 23  1  0
 27 25  1  0
 27 26  1  0
M  RAD  8   2   2  14   2  16   2  17   2  18   2  19   2  20   2  21   3
M  RAD  6  22   2  23   3  24   3  25   3  26   3  27   3
M  END
>  <REMARK>  (1) 
 SMILES Cc1noc(-c2ccccc2)c1C(=O)Nc1cc(CC2CCCCC2)n[nH]1
 SMILES IDX 16 1 17 2 18 3 26 4 27 5 15 7 13 8 14 9 12 11 2 12 3 13 4 14
 SMILES IDX 5 15 1 16 6 17 7 18 11 19 8 20 10 21 9 22 19 23 20 24 21 25
 SMILES IDX 25 26 22 27 24 28 23 29
 H PARENT 27 6 15 10

>  <TORSDO>  (1) 
F 5

$$$$
