/home/pchatterjee/Documents/git/vs_workflow/DiffDock/diffdock_run/pdbqt_scrubbed/Z1665619458.pdbqt
     RDKit          3D

 27 30  0  0  0  0  0  0  0  0999 V2000
    7.7269   44.2035   50.8290 C   0  0  0  0  0  0  0  0  0  0  0  0
    6.5184   43.7436   50.3398 C   0  0  0  0  0  3  0  0  0  0  0  0
    6.7302   43.1364   49.1042 C   0  0  0  0  0  0  0  0  0  0  0  0
    8.0526   43.2435   48.8786 N   0  0  0  0  0  0  0  0  0  0  0  0
    8.6375   43.8723   49.8956 N   0  0  0  0  0  0  0  0  0  0  0  0
    7.9683   44.8871   52.0633 N   0  0  0  0  0  0  0  0  0  0  0  0
    8.2540   46.2845   52.0067 C   0  0  0  0  0  0  0  0  0  0  0  0
    8.7845   46.6535   50.9141 O   0  0  0  0  0  0  0  0  0  0  0  0
    7.9537   47.1680   53.1098 C   0  0  0  0  0  0  0  0  0  0  0  0
    8.8115   48.0819   53.7234 C   0  0  0  0  0  0  0  0  0  0  0  0
    8.1291   48.6934   54.7012 N   0  0  0  0  0  0  0  0  0  0  0  0
    6.9530   48.2140   54.7073 O   0  0  0  0  0  0  0  0  0  0  0  0
    6.7734   47.2841   53.7700 C   0  0  0  0  0  0  0  0  0  0  0  0
   10.2251   48.3894   53.4219 C   0  0  0  0  0  1  0  0  0  0  0  0
    5.4929   46.6219   53.6229 C   0  0  0  0  0  0  0  0  0  0  0  0
    4.5809   47.1598   52.7029 C   0  0  0  0  0  3  0  0  0  0  0  0
    5.0640   45.5127   54.2903 C   0  0  0  0  0  3  0  0  0  0  0  0
    3.3291   46.5744   52.5092 C   0  0  0  0  0  3  0  0  0  0  0  0
    3.8498   44.9156   54.1260 C   0  0  0  0  0  3  0  0  0  0  0  0
    2.9689   45.4561   53.2205 C   0  0  0  0  0  3  0  0  0  0  0  0
    5.7313   42.4987   48.2052 C   0  0  0  0  0  2  0  0  0  0  0  0
    5.4087   41.0920   48.6495 C   0  0  0  0  0  3  0  0  0  0  0  0
    4.6306   40.3664   47.5812 C   0  0  0  0  0  2  0  0  0  0  0  0
    4.7460   41.0620   49.9869 C   0  0  0  0  0  2  0  0  0  0  0  0
    3.1676   40.6783   47.7611 C   0  0  0  0  0  2  0  0  0  0  0  0
    3.5234   41.9732   49.8952 C   0  0  0  0  0  2  0  0  0  0  0  0
    2.9616   41.9931   48.4916 C   0  0  0  0  0  2  0  0  0  0  0  0
  1  2  2  0
  1  5  1  0
  2  3  1  0
  3  4  2  0
  3 21  1  0
  5  4  1  0
  6  1  1  0
  7  8  2  0
  7  6  1  0
  9 13  2  0
  9  7  1  0
 10  9  1  0
 11 10  2  0
 11 12  1  0
 12 13  1  0
 13 15  1  0
 14 10  1  0
 15 16  2  0
 16 18  1  0
 17 19  2  0
 17 15  1  0
 19 20  1  0
 20 18  2  0
 21 22  1  0
 22 24  1  0
 22 23  1  0
 24 26  1  0
 25 23  1  0
 27 25  1  0
 27 26  1  0
M  RAD  8   2   2  14   2  16   2  17   2  18   2  19   2  20   2  21   3
M  RAD  6  22   2  23   3  24   3  25   3  26   3  27   3
M  END
>  <REMARK>  (1) 
 SMILES Cc1noc(-c2ccccc2)c1C(=O)Nc1cc(CC2CCCCC2)n[nH]1
 SMILES IDX 16 1 17 2 18 3 26 4 27 5 15 7 13 8 14 9 12 11 2 12 3 13 4 14
 SMILES IDX 5 15 1 16 6 17 7 18 11 19 8 20 10 21 9 22 19 23 20 24 21 25
 SMILES IDX 25 26 22 27 24 28 23 29
 H PARENT 27 6 15 10

>  <TORSDO>  (1) 
F 5

$$$$
