/home/pchatterjee/Documents/git/vs_workflow/DiffDock/diffdock_run/pdbqt_scrubbed/Z1665619458.pdbqt
     RDKit          3D

 27 30  0  0  0  0  0  0  0  0999 V2000
    7.8654   44.8377   50.3787 C   0  0  0  0  0  0  0  0  0  0  0  0
    6.7069   44.1139   50.1658 C   0  0  0  0  0  3  0  0  0  0  0  0
    7.0188   42.9559   49.4570 C   0  0  0  0  0  0  0  0  0  0  0  0
    8.3491   43.0081   49.2604 N   0  0  0  0  0  0  0  0  0  0  0  0
    8.8455   44.1171   49.8040 N   0  0  0  0  0  0  0  0  0  0  0  0
    8.0032   46.0874   51.0630 N   0  0  0  0  0  0  0  0  0  0  0  0
    8.4893   46.0627   52.4049 C   0  0  0  0  0  0  0  0  0  0  0  0
    9.2638   45.0872   52.6497 O   0  0  0  0  0  0  0  0  0  0  0  0
    8.1136   47.0711   53.3691 C   0  0  0  0  0  0  0  0  0  0  0  0
    8.9561   47.9531   54.0471 C   0  0  0  0  0  0  0  0  0  0  0  0
    8.1961   48.7165   54.8442 N   0  0  0  0  0  0  0  0  0  0  0  0
    6.9891   48.3540   54.6870 O   0  0  0  0  0  0  0  0  0  0  0  0
    6.8622   47.3609   53.8077 C   0  0  0  0  0  0  0  0  0  0  0  0
   10.4249   48.0948   53.9677 C   0  0  0  0  0  1  0  0  0  0  0  0
    5.5575   46.8127   53.4966 C   0  0  0  0  0  0  0  0  0  0  0  0
    5.2648   45.5205   53.9573 C   0  0  0  0  0  3  0  0  0  0  0  0
    4.5608   47.4215   52.7926 C   0  0  0  0  0  3  0  0  0  0  0  0
    4.0284   44.9293   53.6950 C   0  0  0  0  0  3  0  0  0  0  0  0
    3.3430   46.8741   52.5184 C   0  0  0  0  0  3  0  0  0  0  0  0
    3.0736   45.6073   52.9776 C   0  0  0  0  0  3  0  0  0  0  0  0
    6.1019   41.8768   49.0018 C   0  0  0  0  0  2  0  0  0  0  0  0
    4.7514   42.4287   48.6122 C   0  0  0  0  0  3  0  0  0  0  0  0
    3.8578   42.5400   49.8215 C   0  0  0  0  0  2  0  0  0  0  0  0
    4.1334   41.6639   47.4888 C   0  0  0  0  0  2  0  0  0  0  0  0
    3.1718   41.2151   50.0318 C   0  0  0  0  0  2  0  0  0  0  0  0
    4.0978   40.1984   47.9183 C   0  0  0  0  0  2  0  0  0  0  0  0
    3.9618   40.0727   49.4189 C   0  0  0  0  0  2  0  0  0  0  0  0
  1  2  2  0
  1  5  1  0
  2  3  1  0
  3  4  2  0
  3 21  1  0
  5  4  1  0
  6  1  1  0
  7  8  2  0
  7  6  1  0
  9 13  2  0
  9  7  1  0
 10  9  1  0
 11 10  2  0
 11 12  1  0
 12 13  1  0
 13 15  1  0
 14 10  1  0
 15 16  2  0
 16 18  1  0
 17 19  2  0
 17 15  1  0
 19 20  1  0
 20 18  2  0
 21 22  1  0
 22 24  1  0
 22 23  1  0
 24 26  1  0
 25 23  1  0
 27 25  1  0
 27 26  1  0
M  RAD  8   2   2  14   2  16   2  17   2  18   2  19   2  20   2  21   3
M  RAD  6  22   2  23   3  24   3  25   3  26   3  27   3
M  END
>  <REMARK>  (1) 
 SMILES Cc1noc(-c2ccccc2)c1C(=O)Nc1cc(CC2CCCCC2)n[nH]1
 SMILES IDX 16 1 17 2 18 3 26 4 27 5 15 7 13 8 14 9 12 11 2 12 3 13 4 14
 SMILES IDX 5 15 1 16 6 17 7 18 11 19 8 20 10 21 9 22 19 23 20 24 21 25
 SMILES IDX 25 26 22 27 24 28 23 29
 H PARENT 27 6 15 10

>  <TORSDO>  (1) 
F 5

$$$$
