/home/pchatterjee/Documents/git/vs_workflow/DiffDock/diffdock_run/pdbqt_scrubbed/Z1665619458.pdbqt
     RDKit          3D

 27 30  0  0  0  0  0  0  0  0999 V2000
    7.5933   44.2630   50.8883 C   0  0  0  0  0  0  0  0  0  0  0  0
    6.4214   43.8190   50.3044 C   0  0  0  0  0  3  0  0  0  0  0  0
    6.7321   43.0981   49.1537 C   0  0  0  0  0  0  0  0  0  0  0  0
    8.0751   43.1241   49.0710 N   0  0  0  0  0  0  0  0  0  0  0  0
    8.5801   43.8106   50.0935 N   0  0  0  0  0  0  0  0  0  0  0  0
    7.7367   45.0386   52.0828 N   0  0  0  0  0  0  0  0  0  0  0  0
    8.1532   46.3974   51.9494 C   0  0  0  0  0  0  0  0  0  0  0  0
    8.7692   46.6387   50.8661 O   0  0  0  0  0  0  0  0  0  0  0  0
    7.8817   47.3806   52.9727 C   0  0  0  0  0  0  0  0  0  0  0  0
    8.7503   48.3554   53.4653 C   0  0  0  0  0  0  0  0  0  0  0  0
    8.0955   49.0531   54.4036 N   0  0  0  0  0  0  0  0  0  0  0  0
    6.9255   48.5679   54.4969 O   0  0  0  0  0  0  0  0  0  0  0  0
    6.7236   47.5510   53.6599 C   0  0  0  0  0  0  0  0  0  0  0  0
   10.1493   48.6427   53.0861 C   0  0  0  0  0  1  0  0  0  0  0  0
    5.4459   46.8685   53.6222 C   0  0  0  0  0  0  0  0  0  0  0  0
    4.4890   47.3232   52.7029 C   0  0  0  0  0  3  0  0  0  0  0  0
    5.0591   45.8129   54.3940 C   0  0  0  0  0  3  0  0  0  0  0  0
    3.2371   46.7138   52.6113 C   0  0  0  0  0  3  0  0  0  0  0  0
    3.8461   45.1945   54.3311 C   0  0  0  0  0  3  0  0  0  0  0  0
    2.9208   45.6532   53.4246 C   0  0  0  0  0  3  0  0  0  0  0  0
    5.8030   42.4322   48.2020 C   0  0  0  0  0  2  0  0  0  0  0  0
    5.3749   41.0753   48.7080 C   0  0  0  0  0  3  0  0  0  0  0  0
    4.6500   40.3136   47.6274 C   0  0  0  0  0  2  0  0  0  0  0  0
    4.6056   41.1673   49.9841 C   0  0  0  0  0  2  0  0  0  0  0  0
    3.1948   40.7026   47.6632 C   0  0  0  0  0  2  0  0  0  0  0  0
    3.4420   42.1241   49.7311 C   0  0  0  0  0  2  0  0  0  0  0  0
    2.9972   42.0726   48.2869 C   0  0  0  0  0  2  0  0  0  0  0  0
  1  2  2  0
  1  5  1  0
  2  3  1  0
  3  4  2  0
  3 21  1  0
  5  4  1  0
  6  1  1  0
  7  8  2  0
  7  6  1  0
  9 13  2  0
  9  7  1  0
 10  9  1  0
 11 10  2  0
 11 12  1  0
 12 13  1  0
 13 15  1  0
 14 10  1  0
 15 16  2  0
 16 18  1  0
 17 19  2  0
 17 15  1  0
 19 20  1  0
 20 18  2  0
 21 22  1  0
 22 24  1  0
 22 23  1  0
 24 26  1  0
 25 23  1  0
 27 25  1  0
 27 26  1  0
M  RAD  8   2   2  14   2  16   2  17   2  18   2  19   2  20   2  21   3
M  RAD  6  22   2  23   3  24   3  25   3  26   3  27   3
M  END
>  <REMARK>  (1) 
 SMILES Cc1noc(-c2ccccc2)c1C(=O)Nc1cc(CC2CCCCC2)n[nH]1
 SMILES IDX 16 1 17 2 18 3 26 4 27 5 15 7 13 8 14 9 12 11 2 12 3 13 4 14
 SMILES IDX 5 15 1 16 6 17 7 18 11 19 8 20 10 21 9 22 19 23 20 24 21 25
 SMILES IDX 25 26 22 27 24 28 23 29
 H PARENT 27 6 15 10

>  <TORSDO>  (1) 
F 5

$$$$
