/home/pchatterjee/Documents/git/vs_workflow/DiffDock/diffdock_run/pdbqt_scrubbed/Z1665619458.pdbqt
     RDKit          3D

 27 30  0  0  0  0  0  0  0  0999 V2000
    7.9645   43.9499   50.9362 C   0  0  0  0  0  0  0  0  0  0  0  0
    6.7986   43.2808   50.6132 C   0  0  0  0  0  3  0  0  0  0  0  0
    6.9701   42.6334   49.3918 C   0  0  0  0  0  0  0  0  0  0  0  0
    8.2269   42.9253   49.0093 N   0  0  0  0  0  0  0  0  0  0  0  0
    8.8105   43.7007   49.9203 N   0  0  0  0  0  0  0  0  0  0  0  0
    8.2255   44.7413   52.1001 N   0  0  0  0  0  0  0  0  0  0  0  0
    8.2385   46.1610   51.9518 C   0  0  0  0  0  0  0  0  0  0  0  0
    8.4480   46.5483   50.7612 O   0  0  0  0  0  0  0  0  0  0  0  0
    8.0289   47.0454   53.0750 C   0  0  0  0  0  0  0  0  0  0  0  0
    8.9737   47.8568   53.7045 C   0  0  0  0  0  0  0  0  0  0  0  0
    8.3569   48.5110   54.6981 N   0  0  0  0  0  0  0  0  0  0  0  0
    7.1393   48.1497   54.6987 O   0  0  0  0  0  0  0  0  0  0  0  0
    6.8671   47.2627   53.7424 C   0  0  0  0  0  0  0  0  0  0  0  0
   10.4101   48.0302   53.4038 C   0  0  0  0  0  1  0  0  0  0  0  0
    5.5273   46.7331   53.5864 C   0  0  0  0  0  0  0  0  0  0  0  0
    5.2022   45.5616   54.2861 C   0  0  0  0  0  3  0  0  0  0  0  0
    4.5256   47.2538   52.8216 C   0  0  0  0  0  3  0  0  0  0  0  0
    3.9311   44.9952   54.1834 C   0  0  0  0  0  3  0  0  0  0  0  0
    3.2744   46.7273   52.6985 C   0  0  0  0  0  3  0  0  0  0  0  0
    2.9734   45.5793   53.3911 C   0  0  0  0  0  3  0  0  0  0  0  0
    5.9942   41.7940   48.6464 C   0  0  0  0  0  2  0  0  0  0  0  0
    4.6342   42.4478   48.5908 C   0  0  0  0  0  3  0  0  0  0  0  0
    3.9433   42.3436   49.9269 C   0  0  0  0  0  2  0  0  0  0  0  0
    3.8091   41.9354   47.4570 C   0  0  0  0  0  2  0  0  0  0  0  0
    3.2222   41.0222   49.9896 C   0  0  0  0  0  2  0  0  0  0  0  0
    3.7550   40.4156   47.6009 C   0  0  0  0  0  2  0  0  0  0  0  0
    3.8423   40.0014   49.0524 C   0  0  0  0  0  2  0  0  0  0  0  0
  1  2  2  0
  1  5  1  0
  2  3  1  0
  3  4  2  0
  3 21  1  0
  5  4  1  0
  6  1  1  0
  7  8  2  0
  7  6  1  0
  9 13  2  0
  9  7  1  0
 10  9  1  0
 11 10  2  0
 11 12  1  0
 12 13  1  0
 13 15  1  0
 14 10  1  0
 15 16  2  0
 16 18  1  0
 17 19  2  0
 17 15  1  0
 19 20  1  0
 20 18  2  0
 21 22  1  0
 22 24  1  0
 22 23  1  0
 24 26  1  0
 25 23  1  0
 27 25  1  0
 27 26  1  0
M  RAD  8   2   2  14   2  16   2  17   2  18   2  19   2  20   2  21   3
M  RAD  6  22   2  23   3  24   3  25   3  26   3  27   3
M  END
>  <REMARK>  (1) 
 SMILES Cc1noc(-c2ccccc2)c1C(=O)Nc1cc(CC2CCCCC2)n[nH]1
 SMILES IDX 16 1 17 2 18 3 26 4 27 5 15 7 13 8 14 9 12 11 2 12 3 13 4 14
 SMILES IDX 5 15 1 16 6 17 7 18 11 19 8 20 10 21 9 22 19 23 20 24 21 25
 SMILES IDX 25 26 22 27 24 28 23 29
 H PARENT 27 6 15 10

>  <TORSDO>  (1) 
F 5

$$$$
