/home/pchatterjee/Documents/git/vs_workflow/DiffDock/diffdock_run/pdbqt_scrubbed/Z1665619458.pdbqt
     RDKit          3D

 27 30  0  0  0  0  0  0  0  0999 V2000
    7.7799   44.2017   50.8303 C   0  0  0  0  0  0  0  0  0  0  0  0
    6.5660   43.7472   50.3494 C   0  0  0  0  0  3  0  0  0  0  0  0
    6.7687   43.1268   49.1188 C   0  0  0  0  0  0  0  0  0  0  0  0
    8.0911   43.2210   48.8878 N   0  0  0  0  0  0  0  0  0  0  0  0
    8.6846   43.8544   49.8970 N   0  0  0  0  0  0  0  0  0  0  0  0
    8.0309   44.8947   52.0574 N   0  0  0  0  0  0  0  0  0  0  0  0
    8.2694   46.3006   51.9924 C   0  0  0  0  0  0  0  0  0  0  0  0
    8.7698   46.6833   50.8903 O   0  0  0  0  0  0  0  0  0  0  0  0
    7.9580   47.1772   53.0978 C   0  0  0  0  0  0  0  0  0  0  0  0
    8.8107   48.0841   53.7285 C   0  0  0  0  0  0  0  0  0  0  0  0
    8.1179   48.6909   54.7020 N   0  0  0  0  0  0  0  0  0  0  0  0
    6.9404   48.2152   54.6899 O   0  0  0  0  0  0  0  0  0  0  0  0
    6.7698   47.2924   53.7439 C   0  0  0  0  0  0  0  0  0  0  0  0
   10.2289   48.3893   53.4470 C   0  0  0  0  0  1  0  0  0  0  0  0
    5.4892   46.6353   53.5761 C   0  0  0  0  0  0  0  0  0  0  0  0
    4.5878   47.1865   52.6535 C   0  0  0  0  0  3  0  0  0  0  0  0
    5.0509   45.5194   54.2258 C   0  0  0  0  0  3  0  0  0  0  0  0
    3.3366   46.6067   52.4403 C   0  0  0  0  0  3  0  0  0  0  0  0
    3.8370   44.9274   54.0422 C   0  0  0  0  0  3  0  0  0  0  0  0
    2.9665   45.4810   53.1344 C   0  0  0  0  0  3  0  0  0  0  0  0
    5.7616   42.4890   48.2290 C   0  0  0  0  0  2  0  0  0  0  0  0
    5.4622   41.0734   48.6612 C   0  0  0  0  0  3  0  0  0  0  0  0
    4.6873   40.3474   47.5908 C   0  0  0  0  0  2  0  0  0  0  0  0
    4.8090   41.0206   50.0026 C   0  0  0  0  0  2  0  0  0  0  0  0
    3.2213   40.6364   47.7835 C   0  0  0  0  0  2  0  0  0  0  0  0
    3.5729   41.9150   49.9282 C   0  0  0  0  0  2  0  0  0  0  0  0
    3.0014   41.9408   48.5286 C   0  0  0  0  0  2  0  0  0  0  0  0
  1  2  2  0
  1  5  1  0
  2  3  1  0
  3  4  2  0
  3 21  1  0
  5  4  1  0
  6  1  1  0
  7  8  2  0
  7  6  1  0
  9 13  2  0
  9  7  1  0
 10  9  1  0
 11 10  2  0
 11 12  1  0
 12 13  1  0
 13 15  1  0
 14 10  1  0
 15 16  2  0
 16 18  1  0
 17 19  2  0
 17 15  1  0
 19 20  1  0
 20 18  2  0
 21 22  1  0
 22 24  1  0
 22 23  1  0
 24 26  1  0
 25 23  1  0
 27 25  1  0
 27 26  1  0
M  RAD  8   2   2  14   2  16   2  17   2  18   2  19   2  20   2  21   3
M  RAD  6  22   2  23   3  24   3  25   3  26   3  27   3
M  END
>  <REMARK>  (1) 
 SMILES Cc1noc(-c2ccccc2)c1C(=O)Nc1cc(CC2CCCCC2)n[nH]1
 SMILES IDX 16 1 17 2 18 3 26 4 27 5 15 7 13 8 14 9 12 11 2 12 3 13 4 14
 SMILES IDX 5 15 1 16 6 17 7 18 11 19 8 20 10 21 9 22 19 23 20 24 21 25
 SMILES IDX 25 26 22 27 24 28 23 29
 H PARENT 27 6 15 10

>  <TORSDO>  (1) 
F 5

$$$$
