/home/pchatterjee/Documents/git/vs_workflow/DiffDock/diffdock_run/pdbqt_scrubbed/Z1665619458.pdbqt
     RDKit          3D

 27 30  0  0  0  0  0  0  0  0999 V2000
    7.1300   44.2493   50.5144 C   0  0  0  0  0  0  0  0  0  0  0  0
    6.1557   43.5032   49.8778 C   0  0  0  0  0  3  0  0  0  0  0  0
    6.7515   42.7352   48.8799 C   0  0  0  0  0  0  0  0  0  0  0  0
    8.0623   43.0342   48.9377 N   0  0  0  0  0  0  0  0  0  0  0  0
    8.2829   43.9260   49.9009 N   0  0  0  0  0  0  0  0  0  0  0  0
    6.9590   45.1714   51.5959 N   0  0  0  0  0  0  0  0  0  0  0  0
    8.0677   45.9983   51.9487 C   0  0  0  0  0  0  0  0  0  0  0  0
    9.1038   45.7908   51.2452 O   0  0  0  0  0  0  0  0  0  0  0  0
    7.9832   46.9711   53.0136 C   0  0  0  0  0  0  0  0  0  0  0  0
    9.0046   47.7875   53.5008 C   0  0  0  0  0  0  0  0  0  0  0  0
    8.4957   48.5380   54.4875 N   0  0  0  0  0  0  0  0  0  0  0  0
    7.2706   48.2277   54.6138 O   0  0  0  0  0  0  0  0  0  0  0  0
    6.8892   47.2843   53.7536 C   0  0  0  0  0  0  0  0  0  0  0  0
   10.4162   47.8795   53.0731 C   0  0  0  0  0  1  0  0  0  0  0  0
    5.5236   46.7998   53.7471 C   0  0  0  0  0  0  0  0  0  0  0  0
    4.5816   47.5103   52.9884 C   0  0  0  0  0  3  0  0  0  0  0  0
    5.0390   45.7097   54.4078 C   0  0  0  0  0  3  0  0  0  0  0  0
    3.2486   47.1015   52.9359 C   0  0  0  0  0  3  0  0  0  0  0  0
    3.7450   45.2825   54.3787 C   0  0  0  0  0  3  0  0  0  0  0  0
    2.8359   45.9907   53.6302 C   0  0  0  0  0  3  0  0  0  0  0  0
    6.1053   41.7821   47.9385 C   0  0  0  0  0  2  0  0  0  0  0  0
    5.6170   40.5455   48.6546 C   0  0  0  0  0  3  0  0  0  0  0  0
    4.9981   39.5789   47.6768 C   0  0  0  0  0  2  0  0  0  0  0  0
    4.7240   40.8765   49.8043 C   0  0  0  0  0  2  0  0  0  0  0  0
    3.5501   39.9507   47.4896 C   0  0  0  0  0  2  0  0  0  0  0  0
    3.5998   41.7519   49.2534 C   0  0  0  0  0  2  0  0  0  0  0  0
    3.3022   41.4139   47.8101 C   0  0  0  0  0  2  0  0  0  0  0  0
  1  2  2  0
  1  5  1  0
  2  3  1  0
  3  4  2  0
  3 21  1  0
  5  4  1  0
  6  1  1  0
  7  8  2  0
  7  6  1  0
  9 13  2  0
  9  7  1  0
 10  9  1  0
 11 10  2  0
 11 12  1  0
 12 13  1  0
 13 15  1  0
 14 10  1  0
 15 16  2  0
 16 18  1  0
 17 19  2  0
 17 15  1  0
 19 20  1  0
 20 18  2  0
 21 22  1  0
 22 24  1  0
 22 23  1  0
 24 26  1  0
 25 23  1  0
 27 25  1  0
 27 26  1  0
M  RAD  8   2   2  14   2  16   2  17   2  18   2  19   2  20   2  21   3
M  RAD  6  22   2  23   3  24   3  25   3  26   3  27   3
M  END
>  <REMARK>  (1) 
 SMILES Cc1noc(-c2ccccc2)c1C(=O)Nc1cc(CC2CCCCC2)n[nH]1
 SMILES IDX 16 1 17 2 18 3 26 4 27 5 15 7 13 8 14 9 12 11 2 12 3 13 4 14
 SMILES IDX 5 15 1 16 6 17 7 18 11 19 8 20 10 21 9 22 19 23 20 24 21 25
 SMILES IDX 25 26 22 27 24 28 23 29
 H PARENT 27 6 15 10

>  <TORSDO>  (1) 
F 5

$$$$
