/home/pchatterjee/Documents/git/vs_workflow/DiffDock/diffdock_run/pdbqt_scrubbed/Z1480672898.pdbqt
     RDKit          3D

 24 27  0  0  0  0  0  0  0  0999 V2000
    7.6381   48.2086   53.7904 C   0  0  0  0  0  2  0  0  0  0  0  0
    8.4035   49.0968   54.7807 C   0  0  0  0  0  2  0  0  0  0  0  0
    7.6384   50.3949   54.8002 C   0  0  0  0  0  0  0  0  0  0  0  0
    6.5193   50.5028   54.2375 O   0  0  0  0  0  0  0  0  0  0  0  0
    8.2575   51.4734   55.4870 N   0  0  0  0  0  0  0  0  0  0  0  0
    9.4423   51.4904   56.1522 C   0  0  0  0  0  3  0  0  0  0  0  0
    7.7605   52.7175   55.6022 C   0  0  0  0  0  0  0  0  0  0  0  0
    9.7008   52.7240   56.6846 C   0  0  0  0  0  3  0  0  0  0  0  0
    6.5811   53.2341   55.1079 C   0  0  0  0  0  3  0  0  0  0  0  0
    8.6205   53.5045   56.3289 C   0  0  0  0  0  0  0  0  0  0  0  0
    6.3062   54.5632   55.3733 C   0  0  0  0  0  3  0  0  0  0  0  0
    8.3363   54.8279   56.5876 C   0  0  0  0  0  3  0  0  0  0  0  0
    7.1657   55.3671   56.1053 C   0  0  0  0  0  3  0  0  0  0  0  0
    8.3551   46.8865   53.6323 C   0  0  0  0  0  2  0  0  0  0  0  0
    7.5203   46.0859   52.7212 N   0  0  0  0  0  0  0  0  0  0  0  0
    8.1629   45.5228   51.5832 C   0  0  0  0  0  0  0  0  0  0  0  0
    9.4130   45.9134   51.2688 N   0  0  0  0  0  0  0  0  0  0  0  0
    7.4687   44.5863   50.8439 C   0  0  0  0  0  0  0  0  0  0  0  0
   10.0283   45.3687   50.1779 C   0  0  0  0  0  3  0  0  0  0  0  0
    6.2431   44.0621   50.9736 N   0  0  0  0  0  0  0  0  0  0  0  0
    8.1225   44.0570   49.7475 C   0  0  0  0  0  0  0  0  0  0  0  0
    9.3619   44.4564   49.4510 N   0  0  0  0  0  0  0  0  0  0  0  0
    6.1244   43.1906   49.9438 C   0  0  0  0  0  3  0  0  0  0  0  0
    7.2539   43.1846   49.2030 N   0  0  0  0  0  0  0  0  0  0  0  0
  1  2  1  0
  3  5  1  0
  3  2  1  0
  4  3  2  0
  5  6  1  0
  7 10  2  0
  7  5  1  0
  8  6  2  0
  9  7  1  0
 10  8  1  0
 11 13  1  0
 11  9  2  0
 12 10  1  0
 13 12  2  0
 14  1  1  0
 15 14  1  0
 16 17  2  0
 16 15  1  0
 18 16  1  0
 19 17  1  0
 20 18  1  0
 21 22  1  0
 21 18  2  0
 22 19  2  0
 23 24  2  0
 23 20  1  0
 24 21  1  0
M  RAD  8   1   3   2   3   6   2   8   2   9   2  11   2  12   2  13   2
M  RAD  3  14   3  19   2  23   2
M  END
>  <REMARK>  (1) 
 SMILES O=C(CCCNc1ncnc2nc[nH]c12)N1CCc2ccccc21
 SMILES IDX 4 1 3 2 2 3 1 4 16 5 17 6 24 7 18 8 23 9 19 10 22 11 20 12
 SMILES IDX 21 13 5 14 6 15 7 17 8 18 15 19 9 20 14 21 11 22 10 23 13 24
 SMILES IDX 12 25
 H PARENT 6 16 14 26

>  <TORSDO>  (1) 
F 6

$$$$
