/home/pchatterjee/Documents/git/vs_workflow/DiffDock/diffdock_run/pdbqt_scrubbed/Z1480672898.pdbqt
     RDKit          3D

 24 27  0  0  0  0  0  0  0  0999 V2000
    5.5590   41.9664   48.5589 C   0  0  0  0  0  2  0  0  0  0  0  0
    4.5635   40.8465   48.8908 C   0  0  0  0  0  2  0  0  0  0  0  0
    4.0873   40.3488   47.5505 C   0  0  0  0  0  0  0  0  0  0  0  0
    4.7383   40.5768   46.4994 O   0  0  0  0  0  0  0  0  0  0  0  0
    2.8706   39.6154   47.5540 N   0  0  0  0  0  0  0  0  0  0  0  0
    1.9884   39.4355   48.5719 C   0  0  0  0  0  3  0  0  0  0  0  0
    2.3567   38.9451   46.5078 C   0  0  0  0  0  0  0  0  0  0  0  0
    0.9271   38.6635   48.1851 C   0  0  0  0  0  3  0  0  0  0  0  0
    2.8579   38.8064   45.2303 C   0  0  0  0  0  3  0  0  0  0  0  0
    1.1691   38.3530   46.8630 C   0  0  0  0  0  0  0  0  0  0  0  0
    2.1208   38.0539   44.3342 C   0  0  0  0  0  3  0  0  0  0  0  0
    0.4429   37.6050   45.9618 C   0  0  0  0  0  3  0  0  0  0  0  0
    0.9217   37.4516   44.6809 C   0  0  0  0  0  3  0  0  0  0  0  0
    6.1782   42.4923   49.8344 C   0  0  0  0  0  2  0  0  0  0  0  0
    7.1556   43.5101   49.4138 N   0  0  0  0  0  0  0  0  0  0  0  0
    7.4026   44.5811   50.3177 C   0  0  0  0  0  0  0  0  0  0  0  0
    6.3639   45.1883   50.9233 N   0  0  0  0  0  0  0  0  0  0  0  0
    8.7133   44.9532   50.5393 C   0  0  0  0  0  0  0  0  0  0  0  0
    6.6044   46.2137   51.7927 C   0  0  0  0  0  3  0  0  0  0  0  0
    9.8753   44.4963   50.0551 N   0  0  0  0  0  0  0  0  0  0  0  0
    8.9184   45.9941   51.4248 C   0  0  0  0  0  0  0  0  0  0  0  0
    7.8763   46.5842   52.0158 N   0  0  0  0  0  0  0  0  0  0  0  0
   10.8250   45.2610   50.6445 C   0  0  0  0  0  3  0  0  0  0  0  0
   10.2529   46.1642   51.4700 N   0  0  0  0  0  0  0  0  0  0  0  0
  1  2  1  0
  3  5  1  0
  3  2  1  0
  4  3  2  0
  5  6  1  0
  7 10  2  0
  7  5  1  0
  8  6  2  0
  9  7  1  0
 10  8  1  0
 11 13  1  0
 11  9  2  0
 12 10  1  0
 13 12  2  0
 14  1  1  0
 15 14  1  0
 16 17  2  0
 16 15  1  0
 18 16  1  0
 19 17  1  0
 20 18  1  0
 21 22  1  0
 21 18  2  0
 22 19  2  0
 23 24  2  0
 23 20  1  0
 24 21  1  0
M  RAD  8   1   3   2   3   6   2   8   2   9   2  11   2  12   2  13   2
M  RAD  3  14   3  19   2  23   2
M  END
>  <REMARK>  (1) 
 SMILES O=C(CCCNc1ncnc2nc[nH]c12)N1CCc2ccccc21
 SMILES IDX 4 1 3 2 2 3 1 4 16 5 17 6 24 7 18 8 23 9 19 10 22 11 20 12
 SMILES IDX 21 13 5 14 6 15 7 17 8 18 15 19 9 20 14 21 11 22 10 23 13 24
 SMILES IDX 12 25
 H PARENT 6 16 14 26

>  <TORSDO>  (1) 
F 6

$$$$
