/home/pchatterjee/Documents/git/vs_workflow/DiffDock/diffdock_run/pdbqt_scrubbed/Z1480672898.pdbqt
     RDKit          3D

 24 27  0  0  0  0  0  0  0  0999 V2000
    4.5287   45.7136   53.6514 C   0  0  0  0  0  2  0  0  0  0  0  0
    3.1480   46.2509   54.0521 C   0  0  0  0  0  2  0  0  0  0  0  0
    2.2130   45.7316   52.9906 C   0  0  0  0  0  0  0  0  0  0  0  0
    2.4992   45.8154   51.7692 O   0  0  0  0  0  0  0  0  0  0  0  0
    1.0034   45.1494   53.4555 N   0  0  0  0  0  0  0  0  0  0  0  0
    0.5837   44.9671   54.7351 C   0  0  0  0  0  3  0  0  0  0  0  0
    0.0210   44.6586   52.6797 C   0  0  0  0  0  0  0  0  0  0  0  0
   -0.6466   44.3701   54.7791 C   0  0  0  0  0  3  0  0  0  0  0  0
   -0.0552   44.5984   51.3038 C   0  0  0  0  0  3  0  0  0  0  0  0
   -1.0009   44.1753   53.4602 C   0  0  0  0  0  0  0  0  0  0  0  0
   -1.1921   44.0365   50.7520 C   0  0  0  0  0  3  0  0  0  0  0  0
   -2.1293   43.6172   52.8995 C   0  0  0  0  0  3  0  0  0  0  0  0
   -2.2293   43.5454   51.5289 C   0  0  0  0  0  3  0  0  0  0  0  0
    4.7594   45.9514   52.1758 C   0  0  0  0  0  2  0  0  0  0  0  0
    6.1618   46.3834   52.0554 N   0  0  0  0  0  0  0  0  0  0  0  0
    7.0233   45.5693   51.2680 C   0  0  0  0  0  0  0  0  0  0  0  0
    6.4941   44.7618   50.3287 N   0  0  0  0  0  0  0  0  0  0  0  0
    8.3815   45.6464   51.5024 C   0  0  0  0  0  0  0  0  0  0  0  0
    7.3237   43.9840   49.5723 C   0  0  0  0  0  3  0  0  0  0  0  0
    9.1086   46.3659   52.3668 N   0  0  0  0  0  0  0  0  0  0  0  0
    9.1899   44.8455   50.7184 C   0  0  0  0  0  0  0  0  0  0  0  0
    8.6474   44.0511   49.7920 N   0  0  0  0  0  0  0  0  0  0  0  0
   10.3930   46.0121   52.1230 C   0  0  0  0  0  3  0  0  0  0  0  0
   10.4462   45.0968   51.1311 N   0  0  0  0  0  0  0  0  0  0  0  0
  1  2  1  0
  3  5  1  0
  3  2  1  0
  4  3  2  0
  5  6  1  0
  7 10  2  0
  7  5  1  0
  8  6  2  0
  9  7  1  0
 10  8  1  0
 11 13  1  0
 11  9  2  0
 12 10  1  0
 13 12  2  0
 14  1  1  0
 15 14  1  0
 16 17  2  0
 16 15  1  0
 18 16  1  0
 19 17  1  0
 20 18  1  0
 21 22  1  0
 21 18  2  0
 22 19  2  0
 23 24  2  0
 23 20  1  0
 24 21  1  0
M  RAD  8   1   3   2   3   6   2   8   2   9   2  11   2  12   2  13   2
M  RAD  3  14   3  19   2  23   2
M  END
>  <REMARK>  (1) 
 SMILES O=C(CCCNc1ncnc2nc[nH]c12)N1CCc2ccccc21
 SMILES IDX 4 1 3 2 2 3 1 4 16 5 17 6 24 7 18 8 23 9 19 10 22 11 20 12
 SMILES IDX 21 13 5 14 6 15 7 17 8 18 15 19 9 20 14 21 11 22 10 23 13 24
 SMILES IDX 12 25
 H PARENT 6 16 14 26

>  <TORSDO>  (1) 
F 6

$$$$
