/home/pchatterjee/Documents/git/vs_workflow/DiffDock/diffdock_run/pdbqt_scrubbed/Z1480672898.pdbqt
     RDKit          3D

 24 27  0  0  0  0  0  0  0  0999 V2000
    4.0278   44.8422   52.4170 C   0  0  0  0  0  2  0  0  0  0  0  0
    2.8123   45.4216   53.1535 C   0  0  0  0  0  2  0  0  0  0  0  0
    1.6208   44.9131   52.3835 C   0  0  0  0  0  0  0  0  0  0  0  0
    1.6517   44.7982   51.1319 O   0  0  0  0  0  0  0  0  0  0  0  0
    0.4766   44.5773   53.1555 N   0  0  0  0  0  0  0  0  0  0  0  0
    0.3228   44.6049   54.5054 C   0  0  0  0  0  3  0  0  0  0  0  0
   -0.7036   44.1581   52.6660 C   0  0  0  0  0  0  0  0  0  0  0  0
   -0.9341   44.2107   54.8751 C   0  0  0  0  0  3  0  0  0  0  0  0
   -1.0813   43.9571   51.3547 C   0  0  0  0  0  3  0  0  0  0  0  0
   -1.5858   43.9261   53.6930 C   0  0  0  0  0  0  0  0  0  0  0  0
   -2.3716   43.5167   51.1231 C   0  0  0  0  0  3  0  0  0  0  0  0
   -2.8693   43.4871   53.4506 C   0  0  0  0  0  3  0  0  0  0  0  0
   -3.2705   43.2789   52.1508 C   0  0  0  0  0  3  0  0  0  0  0  0
    4.7618   45.9499   51.6951 C   0  0  0  0  0  2  0  0  0  0  0  0
    6.1755   45.8108   52.0824 N   0  0  0  0  0  0  0  0  0  0  0  0
    7.0417   45.1757   51.1489 C   0  0  0  0  0  0  0  0  0  0  0  0
    6.5427   44.2492   50.3081 N   0  0  0  0  0  0  0  0  0  0  0  0
    8.3719   45.5444   51.1440 C   0  0  0  0  0  0  0  0  0  0  0  0
    7.3759   43.6437   49.4111 C   0  0  0  0  0  3  0  0  0  0  0  0
    9.0671   46.4247   51.8757 N   0  0  0  0  0  0  0  0  0  0  0  0
    9.1848   44.9111   50.2233 C   0  0  0  0  0  0  0  0  0  0  0  0
    8.6725   43.9949   49.3976 N   0  0  0  0  0  0  0  0  0  0  0  0
   10.3357   46.3437   51.4084 C   0  0  0  0  0  3  0  0  0  0  0  0
   10.4108   45.4333   50.4134 N   0  0  0  0  0  0  0  0  0  0  0  0
  1  2  1  0
  3  5  1  0
  3  2  1  0
  4  3  2  0
  5  6  1  0
  7 10  2  0
  7  5  1  0
  8  6  2  0
  9  7  1  0
 10  8  1  0
 11 13  1  0
 11  9  2  0
 12 10  1  0
 13 12  2  0
 14  1  1  0
 15 14  1  0
 16 17  2  0
 16 15  1  0
 18 16  1  0
 19 17  1  0
 20 18  1  0
 21 22  1  0
 21 18  2  0
 22 19  2  0
 23 24  2  0
 23 20  1  0
 24 21  1  0
M  RAD  8   1   3   2   3   6   2   8   2   9   2  11   2  12   2  13   2
M  RAD  3  14   3  19   2  23   2
M  END
>  <REMARK>  (1) 
 SMILES O=C(CCCNc1ncnc2nc[nH]c12)N1CCc2ccccc21
 SMILES IDX 4 1 3 2 2 3 1 4 16 5 17 6 24 7 18 8 23 9 19 10 22 11 20 12
 SMILES IDX 21 13 5 14 6 15 7 17 8 18 15 19 9 20 14 21 11 22 10 23 13 24
 SMILES IDX 12 25
 H PARENT 6 16 14 26

>  <TORSDO>  (1) 
F 6

$$$$
