/home/pchatterjee/Documents/git/vs_workflow/DiffDock/diffdock_run/pdbqt_scrubbed/Z1480672898.pdbqt
     RDKit          3D

 24 27  0  0  0  0  0  0  0  0999 V2000
    3.6882   45.5531   52.5043 C   0  0  0  0  0  2  0  0  0  0  0  0
    2.7025   44.6524   53.2611 C   0  0  0  0  0  2  0  0  0  0  0  0
    1.3414   45.0930   52.7879 C   0  0  0  0  0  0  0  0  0  0  0  0
    1.1890   46.1557   52.1335 O   0  0  0  0  0  0  0  0  0  0  0  0
    0.2572   44.2397   53.1262 N   0  0  0  0  0  0  0  0  0  0  0  0
    0.2864   43.0350   53.7541 C   0  0  0  0  0  3  0  0  0  0  0  0
   -1.0410   44.4854   52.8760 C   0  0  0  0  0  0  0  0  0  0  0  0
   -0.9711   42.5171   53.9043 C   0  0  0  0  0  3  0  0  0  0  0  0
   -1.6184   45.5741   52.2567 C   0  0  0  0  0  3  0  0  0  0  0  0
   -1.8159   43.4504   53.3401 C   0  0  0  0  0  0  0  0  0  0  0  0
   -2.9951   45.5772   52.1253 C   0  0  0  0  0  3  0  0  0  0  0  0
   -3.1871   43.4639   53.2035 C   0  0  0  0  0  3  0  0  0  0  0  0
   -3.7873   44.5390   52.5891 C   0  0  0  0  0  3  0  0  0  0  0  0
    4.9090   44.7530   52.1087 C   0  0  0  0  0  2  0  0  0  0  0  0
    5.8764   45.7324   51.5865 N   0  0  0  0  0  0  0  0  0  0  0  0
    7.0137   45.2166   50.9043 C   0  0  0  0  0  0  0  0  0  0  0  0
    6.8372   44.4339   49.8223 N   0  0  0  0  0  0  0  0  0  0  0  0
    8.2642   45.5481   51.3858 C   0  0  0  0  0  0  0  0  0  0  0  0
    7.9308   43.9430   49.1678 C   0  0  0  0  0  3  0  0  0  0  0  0
    8.6628   46.2958   52.4230 N   0  0  0  0  0  0  0  0  0  0  0  0
    9.3470   45.0336   50.6984 C   0  0  0  0  0  0  0  0  0  0  0  0
    9.1527   44.2593   49.6278 N   0  0  0  0  0  0  0  0  0  0  0  0
   10.0159   46.2507   52.3874 C   0  0  0  0  0  3  0  0  0  0  0  0
   10.4319   45.4916   51.3505 N   0  0  0  0  0  0  0  0  0  0  0  0
  1  2  1  0
  3  5  1  0
  3  2  1  0
  4  3  2  0
  5  6  1  0
  7 10  2  0
  7  5  1  0
  8  6  2  0
  9  7  1  0
 10  8  1  0
 11 13  1  0
 11  9  2  0
 12 10  1  0
 13 12  2  0
 14  1  1  0
 15 14  1  0
 16 17  2  0
 16 15  1  0
 18 16  1  0
 19 17  1  0
 20 18  1  0
 21 22  1  0
 21 18  2  0
 22 19  2  0
 23 24  2  0
 23 20  1  0
 24 21  1  0
M  RAD  8   1   3   2   3   6   2   8   2   9   2  11   2  12   2  13   2
M  RAD  3  14   3  19   2  23   2
M  END
>  <REMARK>  (1) 
 SMILES O=C(CCCNc1ncnc2nc[nH]c12)N1CCc2ccccc21
 SMILES IDX 4 1 3 2 2 3 1 4 16 5 17 6 24 7 18 8 23 9 19 10 22 11 20 12
 SMILES IDX 21 13 5 14 6 15 7 17 8 18 15 19 9 20 14 21 11 22 10 23 13 24
 SMILES IDX 12 25
 H PARENT 6 16 14 26

>  <TORSDO>  (1) 
F 6

$$$$
