/home/pchatterjee/Documents/git/vs_workflow/DiffDock/diffdock_run/pdbqt_scrubbed/Z1480672898.pdbqt
     RDKit          3D

 24 27  0  0  0  0  0  0  0  0999 V2000
    4.7029   45.0605   53.2457 C   0  0  0  0  0  2  0  0  0  0  0  0
    3.6623   46.0759   53.7373 C   0  0  0  0  0  2  0  0  0  0  0  0
    4.4666   47.2892   54.1268 C   0  0  0  0  0  0  0  0  0  0  0  0
    5.4121   47.2097   54.9517 O   0  0  0  0  0  0  0  0  0  0  0  0
    4.0902   48.5116   53.5087 N   0  0  0  0  0  0  0  0  0  0  0  0
    3.2770   48.7086   52.4379 C   0  0  0  0  0  3  0  0  0  0  0  0
    4.4869   49.7381   53.8915 C   0  0  0  0  0  0  0  0  0  0  0  0
    3.1542   50.0382   52.1394 C   0  0  0  0  0  3  0  0  0  0  0  0
    5.3199   50.1002   54.9294 C   0  0  0  0  0  3  0  0  0  0  0  0
    3.9311   50.6914   53.0735 C   0  0  0  0  0  0  0  0  0  0  0  0
    5.5678   51.4490   55.1075 C   0  0  0  0  0  3  0  0  0  0  0  0
    4.1851   52.0330   53.2600 C   0  0  0  0  0  3  0  0  0  0  0  0
    5.0132   52.4200   54.2887 C   0  0  0  0  0  3  0  0  0  0  0  0
    5.1287   45.4087   51.8370 C   0  0  0  0  0  2  0  0  0  0  0  0
    6.5558   45.7597   51.9263 N   0  0  0  0  0  0  0  0  0  0  0  0
    7.4519   45.0405   51.0868 C   0  0  0  0  0  0  0  0  0  0  0  0
    6.9810   44.0339   50.3256 N   0  0  0  0  0  0  0  0  0  0  0  0
    8.7810   45.4131   51.0872 C   0  0  0  0  0  0  0  0  0  0  0  0
    7.8429   43.3477   49.5184 C   0  0  0  0  0  3  0  0  0  0  0  0
    9.4515   46.3640   51.7505 N   0  0  0  0  0  0  0  0  0  0  0  0
    9.6234   44.6967   50.2585 C   0  0  0  0  0  0  0  0  0  0  0  0
    9.1388   43.7019   49.5109 N   0  0  0  0  0  0  0  0  0  0  0  0
   10.7342   46.2436   51.3331 C   0  0  0  0  0  3  0  0  0  0  0  0
   10.8420   45.2407   50.4347 N   0  0  0  0  0  0  0  0  0  0  0  0
  1  2  1  0
  3  5  1  0
  3  2  1  0
  4  3  2  0
  5  6  1  0
  7 10  2  0
  7  5  1  0
  8  6  2  0
  9  7  1  0
 10  8  1  0
 11 13  1  0
 11  9  2  0
 12 10  1  0
 13 12  2  0
 14  1  1  0
 15 14  1  0
 16 17  2  0
 16 15  1  0
 18 16  1  0
 19 17  1  0
 20 18  1  0
 21 22  1  0
 21 18  2  0
 22 19  2  0
 23 24  2  0
 23 20  1  0
 24 21  1  0
M  RAD  8   1   3   2   3   6   2   8   2   9   2  11   2  12   2  13   2
M  RAD  3  14   3  19   2  23   2
M  END
>  <REMARK>  (1) 
 SMILES O=C(CCCNc1ncnc2nc[nH]c12)N1CCc2ccccc21
 SMILES IDX 4 1 3 2 2 3 1 4 16 5 17 6 24 7 18 8 23 9 19 10 22 11 20 12
 SMILES IDX 21 13 5 14 6 15 7 17 8 18 15 19 9 20 14 21 11 22 10 23 13 24
 SMILES IDX 12 25
 H PARENT 6 16 14 26

>  <TORSDO>  (1) 
F 6

$$$$
