/home/pchatterjee/Documents/git/vs_workflow/DiffDock/diffdock_run/pdbqt_scrubbed/Z1480672898.pdbqt
     RDKit          3D

 24 27  0  0  0  0  0  0  0  0999 V2000
    3.9276   44.8592   52.6010 C   0  0  0  0  0  2  0  0  0  0  0  0
    3.1017   45.4441   53.7547 C   0  0  0  0  0  2  0  0  0  0  0  0
    1.7360   45.6833   53.1643 C   0  0  0  0  0  0  0  0  0  0  0  0
    1.5900   46.3245   52.0928 O   0  0  0  0  0  0  0  0  0  0  0  0
    0.6400   45.1436   53.8893 N   0  0  0  0  0  0  0  0  0  0  0  0
    0.6528   44.4369   55.0500 C   0  0  0  0  0  3  0  0  0  0  0  0
   -0.6550   45.2431   53.5412 C   0  0  0  0  0  0  0  0  0  0  0  0
   -0.6119   44.0896   55.4396 C   0  0  0  0  0  3  0  0  0  0  0  0
   -1.2177   45.8629   52.4450 C   0  0  0  0  0  3  0  0  0  0  0  0
   -1.4441   44.6086   54.4695 C   0  0  0  0  0  0  0  0  0  0  0  0
   -2.5945   45.8174   52.3235 C   0  0  0  0  0  3  0  0  0  0  0  0
   -2.8153   44.5693   54.3383 C   0  0  0  0  0  3  0  0  0  0  0  0
   -3.4010   45.1802   53.2532 C   0  0  0  0  0  3  0  0  0  0  0  0
    4.5067   45.9813   51.7688 C   0  0  0  0  0  2  0  0  0  0  0  0
    5.9521   45.9814   52.0489 N   0  0  0  0  0  0  0  0  0  0  0  0
    6.7911   45.3097   51.1162 C   0  0  0  0  0  0  0  0  0  0  0  0
    6.2485   44.4290   50.2534 N   0  0  0  0  0  0  0  0  0  0  0  0
    8.1412   45.5965   51.1348 C   0  0  0  0  0  0  0  0  0  0  0  0
    7.0558   43.7884   49.3572 C   0  0  0  0  0  3  0  0  0  0  0  0
    8.8783   46.4209   51.8903 N   0  0  0  0  0  0  0  0  0  0  0  0
    8.9269   44.9297   50.2142 C   0  0  0  0  0  0  0  0  0  0  0  0
    8.3715   44.0599   49.3665 N   0  0  0  0  0  0  0  0  0  0  0  0
   10.1461   46.2701   51.4383 C   0  0  0  0  0  3  0  0  0  0  0  0
   10.1796   45.3730   50.4291 N   0  0  0  0  0  0  0  0  0  0  0  0
  1  2  1  0
  3  5  1  0
  3  2  1  0
  4  3  2  0
  5  6  1  0
  7 10  2  0
  7  5  1  0
  8  6  2  0
  9  7  1  0
 10  8  1  0
 11 13  1  0
 11  9  2  0
 12 10  1  0
 13 12  2  0
 14  1  1  0
 15 14  1  0
 16 17  2  0
 16 15  1  0
 18 16  1  0
 19 17  1  0
 20 18  1  0
 21 22  1  0
 21 18  2  0
 22 19  2  0
 23 24  2  0
 23 20  1  0
 24 21  1  0
M  RAD  8   1   3   2   3   6   2   8   2   9   2  11   2  12   2  13   2
M  RAD  3  14   3  19   2  23   2
M  END
>  <REMARK>  (1) 
 SMILES O=C(CCCNc1ncnc2nc[nH]c12)N1CCc2ccccc21
 SMILES IDX 4 1 3 2 2 3 1 4 16 5 17 6 24 7 18 8 23 9 19 10 22 11 20 12
 SMILES IDX 21 13 5 14 6 15 7 17 8 18 15 19 9 20 14 21 11 22 10 23 13 24
 SMILES IDX 12 25
 H PARENT 6 16 14 26

>  <TORSDO>  (1) 
F 6

$$$$
