/home/pchatterjee/Documents/git/vs_workflow/DiffDock/diffdock_run/pdbqt_scrubbed/Z1480672898.pdbqt
     RDKit          3D

 24 27  0  0  0  0  0  0  0  0999 V2000
    4.0555   44.7993   52.5328 C   0  0  0  0  0  2  0  0  0  0  0  0
    2.5749   44.5874   52.1886 C   0  0  0  0  0  2  0  0  0  0  0  0
    2.5362   43.2663   51.4646 C   0  0  0  0  0  0  0  0  0  0  0  0
    3.5627   42.5480   51.3593 O   0  0  0  0  0  0  0  0  0  0  0  0
    1.2801   42.8921   50.9166 N   0  0  0  0  0  0  0  0  0  0  0  0
    0.1413   43.6272   50.8192 C   0  0  0  0  0  3  0  0  0  0  0  0
    0.9862   41.6972   50.3744 C   0  0  0  0  0  0  0  0  0  0  0  0
   -0.8652   42.9162   50.2246 C   0  0  0  0  0  3  0  0  0  0  0  0
    1.7911   40.5875   50.2226 C   0  0  0  0  0  3  0  0  0  0  0  0
   -0.3177   41.6819   49.9426 C   0  0  0  0  0  0  0  0  0  0  0  0
    1.2336   39.4724   49.6238 C   0  0  0  0  0  3  0  0  0  0  0  0
   -0.8630   40.5650   49.3473 C   0  0  0  0  0  3  0  0  0  0  0  0
   -0.0805   39.4448   49.1844 C   0  0  0  0  0  3  0  0  0  0  0  0
    4.6766   45.7586   51.5422 C   0  0  0  0  0  2  0  0  0  0  0  0
    6.0823   45.9044   51.9552 N   0  0  0  0  0  0  0  0  0  0  0  0
    7.0682   45.3269   51.1069 C   0  0  0  0  0  0  0  0  0  0  0  0
    6.6814   44.5475   50.0786 N   0  0  0  0  0  0  0  0  0  0  0  0
    8.3946   45.5971   51.3768 C   0  0  0  0  0  0  0  0  0  0  0  0
    7.6298   43.9972   49.2643 C   0  0  0  0  0  3  0  0  0  0  0  0
    8.9914   46.3299   52.3257 N   0  0  0  0  0  0  0  0  0  0  0  0
    9.3259   45.0236   50.5322 C   0  0  0  0  0  0  0  0  0  0  0  0
    8.9239   44.2535   49.5178 N   0  0  0  0  0  0  0  0  0  0  0  0
   10.3172   46.2155   52.0743 C   0  0  0  0  0  3  0  0  0  0  0  0
   10.5229   45.4296   50.9952 N   0  0  0  0  0  0  0  0  0  0  0  0
  1  2  1  0
  3  5  1  0
  3  2  1  0
  4  3  2  0
  5  6  1  0
  7 10  2  0
  7  5  1  0
  8  6  2  0
  9  7  1  0
 10  8  1  0
 11 13  1  0
 11  9  2  0
 12 10  1  0
 13 12  2  0
 14  1  1  0
 15 14  1  0
 16 17  2  0
 16 15  1  0
 18 16  1  0
 19 17  1  0
 20 18  1  0
 21 22  1  0
 21 18  2  0
 22 19  2  0
 23 24  2  0
 23 20  1  0
 24 21  1  0
M  RAD  8   1   3   2   3   6   2   8   2   9   2  11   2  12   2  13   2
M  RAD  3  14   3  19   2  23   2
M  END
>  <REMARK>  (1) 
 SMILES O=C(CCCNc1ncnc2nc[nH]c12)N1CCc2ccccc21
 SMILES IDX 4 1 3 2 2 3 1 4 16 5 17 6 24 7 18 8 23 9 19 10 22 11 20 12
 SMILES IDX 21 13 5 14 6 15 7 17 8 18 15 19 9 20 14 21 11 22 10 23 13 24
 SMILES IDX 12 25
 H PARENT 6 16 14 26

>  <TORSDO>  (1) 
F 6

$$$$
