/home/pchatterjee/Documents/git/vs_workflow/DiffDock/diffdock_run/pdbqt_scrubbed/Z1480672898.pdbqt
     RDKit          3D

 24 27  0  0  0  0  0  0  0  0999 V2000
    5.8595   41.5790   48.9259 C   0  0  0  0  0  2  0  0  0  0  0  0
    4.4564   41.0304   48.6326 C   0  0  0  0  0  2  0  0  0  0  0  0
    4.4628   40.7351   47.1549 C   0  0  0  0  0  0  0  0  0  0  0  0
    5.4456   41.0380   46.4317 O   0  0  0  0  0  0  0  0  0  0  0  0
    3.3002   40.1009   46.6407 N   0  0  0  0  0  0  0  0  0  0  0  0
    2.1037   39.8937   47.2507 C   0  0  0  0  0  3  0  0  0  0  0  0
    3.1740   39.5749   45.4097 C   0  0  0  0  0  0  0  0  0  0  0  0
    1.2254   39.2463   46.4252 C   0  0  0  0  0  3  0  0  0  0  0  0
    4.0973   39.5201   44.3865 C   0  0  0  0  0  3  0  0  0  0  0  0
    1.9168   39.0452   45.2486 C   0  0  0  0  0  0  0  0  0  0  0  0
    3.7058   38.9154   43.2059 C   0  0  0  0  0  3  0  0  0  0  0  0
    1.5375   38.4447   44.0677 C   0  0  0  0  0  3  0  0  0  0  0  0
    2.4406   38.3773   43.0316 C   0  0  0  0  0  3  0  0  0  0  0  0
    5.7803   43.0661   49.1894 C   0  0  0  0  0  2  0  0  0  0  0  0
    7.1387   43.4746   49.5842 N   0  0  0  0  0  0  0  0  0  0  0  0
    7.2457   44.5048   50.5600 C   0  0  0  0  0  0  0  0  0  0  0  0
    6.1322   44.9593   51.1666 N   0  0  0  0  0  0  0  0  0  0  0  0
    8.5027   44.9972   50.8479 C   0  0  0  0  0  0  0  0  0  0  0  0
    6.2384   45.9459   52.1051 C   0  0  0  0  0  3  0  0  0  0  0  0
    9.7194   44.6969   50.3758 N   0  0  0  0  0  0  0  0  0  0  0  0
    8.5716   45.9943   51.8021 C   0  0  0  0  0  0  0  0  0  0  0  0
    7.4570   46.4325   52.3931 N   0  0  0  0  0  0  0  0  0  0  0  0
   10.5659   45.5172   51.0427 C   0  0  0  0  0  3  0  0  0  0  0  0
    9.8786   46.3001   51.9025 N   0  0  0  0  0  0  0  0  0  0  0  0
  1  2  1  0
  3  5  1  0
  3  2  1  0
  4  3  2  0
  5  6  1  0
  7 10  2  0
  7  5  1  0
  8  6  2  0
  9  7  1  0
 10  8  1  0
 11 13  1  0
 11  9  2  0
 12 10  1  0
 13 12  2  0
 14  1  1  0
 15 14  1  0
 16 17  2  0
 16 15  1  0
 18 16  1  0
 19 17  1  0
 20 18  1  0
 21 22  1  0
 21 18  2  0
 22 19  2  0
 23 24  2  0
 23 20  1  0
 24 21  1  0
M  RAD  8   1   3   2   3   6   2   8   2   9   2  11   2  12   2  13   2
M  RAD  3  14   3  19   2  23   2
M  END
>  <REMARK>  (1) 
 SMILES O=C(CCCNc1ncnc2nc[nH]c12)N1CCc2ccccc21
 SMILES IDX 4 1 3 2 2 3 1 4 16 5 17 6 24 7 18 8 23 9 19 10 22 11 20 12
 SMILES IDX 21 13 5 14 6 15 7 17 8 18 15 19 9 20 14 21 11 22 10 23 13 24
 SMILES IDX 12 25
 H PARENT 6 16 14 26

>  <TORSDO>  (1) 
F 6

$$$$
