/home/pchatterjee/Documents/git/vs_workflow/DiffDock/diffdock_run/pdbqt_scrubbed/Z1480672898.pdbqt
     RDKit          3D

 24 27  0  0  0  0  0  0  0  0999 V2000
    5.8316   41.3977   48.4406 C   0  0  0  0  0  2  0  0  0  0  0  0
    4.4428   40.7930   48.1934 C   0  0  0  0  0  2  0  0  0  0  0  0
    4.1501   41.0874   46.7448 C   0  0  0  0  0  0  0  0  0  0  0  0
    5.0724   41.1645   45.8939 O   0  0  0  0  0  0  0  0  0  0  0  0
    2.7816   41.2698   46.4098 N   0  0  0  0  0  0  0  0  0  0  0  0
    1.7011   41.3030   47.2332 C   0  0  0  0  0  3  0  0  0  0  0  0
    2.2960   41.4509   45.1690 C   0  0  0  0  0  0  0  0  0  0  0  0
    0.5428   41.5022   46.5328 C   0  0  0  0  0  3  0  0  0  0  0  0
    2.9714   41.5012   43.9675 C   0  0  0  0  0  3  0  0  0  0  0  0
    0.9307   41.5960   45.2123 C   0  0  0  0  0  0  0  0  0  0  0  0
    2.2221   41.7016   42.8226 C   0  0  0  0  0  3  0  0  0  0  0  0
    0.1939   41.7950   44.0649 C   0  0  0  0  0  3  0  0  0  0  0  0
    0.8444   41.8490   42.8535 C   0  0  0  0  0  3  0  0  0  0  0  0
    5.7244   42.5297   49.4377 C   0  0  0  0  0  2  0  0  0  0  0  0
    7.1053   42.9771   49.6841 N   0  0  0  0  0  0  0  0  0  0  0  0
    7.2760   44.1171   50.5184 C   0  0  0  0  0  0  0  0  0  0  0  0
    6.2246   44.5905   51.2147 N   0  0  0  0  0  0  0  0  0  0  0  0
    8.5289   44.6932   50.5808 C   0  0  0  0  0  0  0  0  0  0  0  0
    6.3923   45.6828   52.0171 C   0  0  0  0  0  3  0  0  0  0  0  0
    9.6909   44.3929   49.9864 N   0  0  0  0  0  0  0  0  0  0  0  0
    8.6611   45.7963   51.4026 C   0  0  0  0  0  0  0  0  0  0  0  0
    7.6075   46.2516   52.0853 N   0  0  0  0  0  0  0  0  0  0  0  0
   10.5665   45.3207   50.4409 C   0  0  0  0  0  3  0  0  0  0  0  0
    9.9504   46.1676   51.2939 N   0  0  0  0  0  0  0  0  0  0  0  0
  1  2  1  0
  3  5  1  0
  3  2  1  0
  4  3  2  0
  5  6  1  0
  7 10  2  0
  7  5  1  0
  8  6  2  0
  9  7  1  0
 10  8  1  0
 11 13  1  0
 11  9  2  0
 12 10  1  0
 13 12  2  0
 14  1  1  0
 15 14  1  0
 16 17  2  0
 16 15  1  0
 18 16  1  0
 19 17  1  0
 20 18  1  0
 21 22  1  0
 21 18  2  0
 22 19  2  0
 23 24  2  0
 23 20  1  0
 24 21  1  0
M  RAD  8   1   3   2   3   6   2   8   2   9   2  11   2  12   2  13   2
M  RAD  3  14   3  19   2  23   2
M  END
>  <REMARK>  (1) 
 SMILES O=C(CCCNc1ncnc2nc[nH]c12)N1CCc2ccccc21
 SMILES IDX 4 1 3 2 2 3 1 4 16 5 17 6 24 7 18 8 23 9 19 10 22 11 20 12
 SMILES IDX 21 13 5 14 6 15 7 17 8 18 15 19 9 20 14 21 11 22 10 23 13 24
 SMILES IDX 12 25
 H PARENT 6 16 14 26

>  <TORSDO>  (1) 
F 6

$$$$
