/home/pchatterjee/Documents/git/vs_workflow/DiffDock/diffdock_run/pdbqt_scrubbed/Z3071631534.pdbqt
     RDKit          3D

 22 24  0  0  1  0  0  0  0  0999 V2000
    4.1890   42.6405   50.2886 N   0  0  0  0  0  0  0  0  0  0  0  0
    5.5272   43.0610   50.1242 C   0  0  0  0  0  0  0  0  0  0  0  0
    8.0558   45.4347   51.3668 C   0  0  0  0  0  0  0  0  0  0  0  0
    9.3560   45.7304   51.0961 N   0  0  0  0  0  0  0  0  0  0  0  0
    7.4203   44.4240   50.6471 C   0  0  0  0  0  0  0  0  0  0  0  0
   10.0642   45.0875   50.1579 C   0  0  0  0  0  3  0  0  0  0  0  0
    6.1015   44.0800   50.8783 C   0  0  0  0  0  3  0  0  0  0  0  0
    8.1846   43.7853   49.6890 C   0  0  0  0  0  0  0  0  0  0  0  0
    9.4656   44.1015   49.4467 N   0  0  0  0  0  0  0  0  0  0  0  0
    7.6064   42.7770   48.9469 C   0  0  0  0  0  3  0  0  0  0  0  0
    6.2985   42.4267   49.1672 C   0  0  0  0  0  3  0  0  0  0  0  0
    7.4265   46.0650   52.2585 O   0  0  0  0  0  0  0  0  0  0  0  0
    3.5949   41.1542   49.6271 S   0  0  2  0  0  0  0  0  0  0  0  0
    4.1470   40.0137   50.4262 O   0  0  0  0  0  0  0  0  0  0  0  0
    4.1295   41.0306   48.2171 O   0  0  0  0  0  0  0  0  0  0  0  0
    1.8402   41.1952   49.6753 C   0  0  0  0  0  2  0  0  0  0  0  0
    1.2126   41.9324   48.5419 C   0  0  0  0  0  3  0  0  0  0  0  0
   -0.1003   42.5356   48.7673 C   0  0  0  0  0  2  0  0  0  0  0  0
    1.6515   41.6803   47.2985 O   0  0  0  0  0  0  0  0  0  0  0  0
   -1.1229   42.3413   47.6984 C   0  0  0  0  0  2  0  0  0  0  0  0
    0.7112   41.6561   46.2939 C   0  0  0  0  0  2  0  0  0  0  0  0
   -0.6609   41.2526   46.7639 C   0  0  0  0  0  2  0  0  0  0  0  0
  1 13  1  0
  2  1  1  0
  3 12  2  0
  3  5  1  0
  4  3  1  0
  5  7  2  0
  6  4  1  0
  6  9  2  0
  7  2  1  0
  8  5  1  0
  8 10  2  0
  9  8  1  0
 10 11  1  0
 11  2  2  0
 13 15  2  0
 13 16  1  6
 14 13  2  0
 17 16  1  0
 17 18  1  0
 19 17  1  0
 20 18  1  0
 21 22  1  0
 21 19  1  0
 22 20  1  0
M  RAD  8   6   2   7   2  10   2  11   2  16   3  17   2  18   3  20   3
M  RAD  2  21   3  22   3
M  END
>  <REMARK>  (1) 
 SMILES O=c1[nH]cnc2ccc(NS(=O)(=O)CC3CCCCO3)cc12
 SMILES IDX 10 1 9 3 2 4 3 5 22 6 4 7 21 8 6 9 5 10 7 11 8 12 1 13 11 15
 SMILES IDX 12 16 13 17 14 18 15 19 16 20 20 21 17 22 19 23 18 24
 H PARENT 10 2 3 14

>  <TORSDO>  (1) 
F 4

$$$$
