/home/pchatterjee/Documents/git/vs_workflow/DiffDock/diffdock_run/pdbqt_scrubbed/Z3071631534.pdbqt
     RDKit          3D

 22 24  0  0  1  0  0  0  0  0999 V2000
    4.2387   45.6921   52.0050 N   0  0  0  0  0  0  0  0  0  0  0  0
    5.5192   45.3002   51.5565 C   0  0  0  0  0  0  0  0  0  0  0  0
    9.1126   46.0633   51.8349 C   0  0  0  0  0  0  0  0  0  0  0  0
   10.2729   45.5752   51.3186 N   0  0  0  0  0  0  0  0  0  0  0  0
    7.9017   45.4772   51.4696 C   0  0  0  0  0  0  0  0  0  0  0  0
   10.3074   44.5438   50.4641 C   0  0  0  0  0  3  0  0  0  0  0  0
    6.6920   45.9304   51.9618 C   0  0  0  0  0  3  0  0  0  0  0  0
    7.9798   44.4167   50.5868 C   0  0  0  0  0  0  0  0  0  0  0  0
    9.1416   43.9594   50.0958 N   0  0  0  0  0  0  0  0  0  0  0  0
    6.8122   43.7990   50.1911 C   0  0  0  0  0  3  0  0  0  0  0  0
    5.6057   44.2397   50.6728 C   0  0  0  0  0  3  0  0  0  0  0  0
    9.1259   47.0360   52.6362 O   0  0  0  0  0  0  0  0  0  0  0  0
    3.6129   45.2241   53.5508 S   0  0  2  0  0  0  0  0  0  0  0  0
    3.2306   46.4565   54.3116 O   0  0  0  0  0  0  0  0  0  0  0  0
    4.7275   44.5398   54.3115 O   0  0  0  0  0  0  0  0  0  0  0  0
    2.2362   44.1666   53.2877 C   0  0  0  0  0  2  0  0  0  0  0  0
    0.9238   44.7619   53.6686 C   0  0  0  0  0  3  0  0  0  0  0  0
    0.2378   44.2058   54.8341 C   0  0  0  0  0  2  0  0  0  0  0  0
    0.2519   45.4651   52.7432 O   0  0  0  0  0  0  0  0  0  0  0  0
   -1.2244   43.9448   54.6935 C   0  0  0  0  0  2  0  0  0  0  0  0
   -1.1177   45.3311   52.7255 C   0  0  0  0  0  2  0  0  0  0  0  0
   -1.5984   43.9983   53.2343 C   0  0  0  0  0  2  0  0  0  0  0  0
  1 13  1  0
  2  1  1  0
  3 12  2  0
  3  5  1  0
  4  3  1  0
  5  7  2  0
  6  4  1  0
  6  9  2  0
  7  2  1  0
  8  5  1  0
  8 10  2  0
  9  8  1  0
 10 11  1  0
 11  2  2  0
 13 15  2  0
 13 16  1  6
 14 13  2  0
 17 16  1  0
 17 18  1  0
 19 17  1  0
 20 18  1  0
 21 22  1  0
 21 19  1  0
 22 20  1  0
M  RAD  8   6   2   7   2  10   2  11   2  16   3  17   2  18   3  20   3
M  RAD  2  21   3  22   3
M  END
>  <REMARK>  (1) 
 SMILES O=c1[nH]cnc2ccc(NS(=O)(=O)CC3CCCCO3)cc12
 SMILES IDX 10 1 9 3 2 4 3 5 22 6 4 7 21 8 6 9 5 10 7 11 8 12 1 13 11 15
 SMILES IDX 12 16 13 17 14 18 15 19 16 20 20 21 17 22 19 23 18 24
 H PARENT 10 2 3 14

>  <TORSDO>  (1) 
F 4

$$$$
