/home/pchatterjee/Documents/git/vs_workflow/DiffDock/diffdock_run/pdbqt_scrubbed/Z3071631534.pdbqt
     RDKit          3D

 22 24  0  0  1  0  0  0  0  0999 V2000
    3.9397   43.9346   51.4051 N   0  0  0  0  0  0  0  0  0  0  0  0
    5.2853   44.1447   51.0313 C   0  0  0  0  0  0  0  0  0  0  0  0
    8.2470   46.2341   51.6911 C   0  0  0  0  0  0  0  0  0  0  0  0
    9.5245   46.3172   51.2303 N   0  0  0  0  0  0  0  0  0  0  0  0
    7.3928   45.2651   51.1669 C   0  0  0  0  0  0  0  0  0  0  0  0
   10.0070   45.5008   50.2838 C   0  0  0  0  0  3  0  0  0  0  0  0
    6.0854   45.1335   51.5962 C   0  0  0  0  0  3  0  0  0  0  0  0
    7.9281   44.4432   50.1933 C   0  0  0  0  0  0  0  0  0  0  0  0
    9.1934   44.5518   49.7608 N   0  0  0  0  0  0  0  0  0  0  0  0
    7.1274   43.4665   49.6396 C   0  0  0  0  0  3  0  0  0  0  0  0
    5.8283   43.3262   50.0574 C   0  0  0  0  0  3  0  0  0  0  0  0
    7.8339   47.0227   52.5831 O   0  0  0  0  0  0  0  0  0  0  0  0
    3.3812   42.4304   52.0572 S   0  0  2  0  0  0  0  0  0  0  0  0
    4.2457   42.0569   53.2221 O   0  0  0  0  0  0  0  0  0  0  0  0
    3.5603   41.3710   50.9918 O   0  0  0  0  0  0  0  0  0  0  0  0
    1.7012   42.6270   52.5282 C   0  0  0  0  0  2  0  0  0  0  0  0
    0.9565   43.6448   51.7336 C   0  0  0  0  0  3  0  0  0  0  0  0
    0.6034   44.8995   52.3965 C   0  0  0  0  0  2  0  0  0  0  0  0
    0.3047   43.2394   50.6322 O   0  0  0  0  0  0  0  0  0  0  0  0
   -0.7862   45.4019   52.1903 C   0  0  0  0  0  2  0  0  0  0  0  0
   -0.9125   43.8263   50.3716 C   0  0  0  0  0  2  0  0  0  0  0  0
   -1.6304   44.2971   51.6082 C   0  0  0  0  0  2  0  0  0  0  0  0
  1 13  1  0
  2  1  1  0
  3 12  2  0
  3  5  1  0
  4  3  1  0
  5  7  2  0
  6  4  1  0
  6  9  2  0
  7  2  1  0
  8  5  1  0
  8 10  2  0
  9  8  1  0
 10 11  1  0
 11  2  2  0
 13 15  2  0
 13 16  1  1
 14 13  2  0
 17 16  1  0
 17 18  1  0
 19 17  1  0
 20 18  1  0
 21 22  1  0
 21 19  1  0
 22 20  1  0
M  RAD  8   6   2   7   2  10   2  11   2  16   3  17   2  18   3  20   3
M  RAD  2  21   3  22   3
M  END
>  <REMARK>  (1) 
 SMILES O=c1[nH]cnc2ccc(NS(=O)(=O)CC3CCCCO3)cc12
 SMILES IDX 10 1 9 3 2 4 3 5 22 6 4 7 21 8 6 9 5 10 7 11 8 12 1 13 11 15
 SMILES IDX 12 16 13 17 14 18 15 19 16 20 20 21 17 22 19 23 18 24
 H PARENT 10 2 3 14

>  <TORSDO>  (1) 
F 4

$$$$
