/home/pchatterjee/Documents/git/vs_workflow/DiffDock/diffdock_run/pdbqt_scrubbed/Z3071631534.pdbqt
     RDKit          3D

 22 24  0  0  1  0  0  0  0  0999 V2000
    5.3486   46.7999   52.5472 N   0  0  0  0  0  0  0  0  0  0  0  0
    5.3185   45.6548   51.7212 C   0  0  0  0  0  0  0  0  0  0  0  0
    7.3908   43.5179   49.5505 C   0  0  0  0  0  0  0  0  0  0  0  0
    7.2094   42.4033   48.7915 N   0  0  0  0  0  0  0  0  0  0  0  0
    6.3115   44.0479   50.2560 C   0  0  0  0  0  0  0  0  0  0  0  0
    6.0265   41.7826   48.6886 C   0  0  0  0  0  3  0  0  0  0  0  0
    6.4361   45.1776   51.0429 C   0  0  0  0  0  3  0  0  0  0  0  0
    5.1094   43.3789   50.1236 C   0  0  0  0  0  0  0  0  0  0  0  0
    4.9642   42.2812   49.3661 N   0  0  0  0  0  0  0  0  0  0  0  0
    4.0079   43.8596   50.7997 C   0  0  0  0  0  3  0  0  0  0  0  0
    4.1191   44.9798   51.5836 C   0  0  0  0  0  3  0  0  0  0  0  0
    8.5214   44.0705   49.6193 O   0  0  0  0  0  0  0  0  0  0  0  0
    6.0742   46.7915   54.1199 S   0  0  2  0  0  0  0  0  0  0  0  0
    5.3455   45.8086   54.9840 O   0  0  0  0  0  0  0  0  0  0  0  0
    5.8836   48.1659   54.7231 O   0  0  0  0  0  0  0  0  0  0  0  0
    7.7693   46.3702   53.9394 C   0  0  0  0  0  2  0  0  0  0  0  0
    8.6981   47.5355   53.9758 C   0  0  0  0  0  3  0  0  0  0  0  0
   10.0718   47.3242   53.5214 C   0  0  0  0  0  2  0  0  0  0  0  0
    8.3855   48.5734   54.7679 O   0  0  0  0  0  0  0  0  0  0  0  0
   11.1570   47.9002   54.3680 C   0  0  0  0  0  2  0  0  0  0  0  0
    9.4220   49.1948   55.4263 C   0  0  0  0  0  2  0  0  0  0  0  0
   10.5868   48.2841   55.7095 C   0  0  0  0  0  2  0  0  0  0  0  0
  1 13  1  0
  2  1  1  0
  3 12  2  0
  3  5  1  0
  4  3  1  0
  5  7  2  0
  6  4  1  0
  6  9  2  0
  7  2  1  0
  8  5  1  0
  8 10  2  0
  9  8  1  0
 10 11  1  0
 11  2  2  0
 13 15  2  0
 13 16  1  6
 14 13  2  0
 17 16  1  0
 17 18  1  0
 19 17  1  0
 20 18  1  0
 21 22  1  0
 21 19  1  0
 22 20  1  0
M  RAD  8   6   2   7   2  10   2  11   2  16   3  17   2  18   3  20   3
M  RAD  2  21   3  22   3
M  END
>  <REMARK>  (1) 
 SMILES O=c1[nH]cnc2ccc(NS(=O)(=O)CC3CCCCO3)cc12
 SMILES IDX 10 1 9 3 2 4 3 5 22 6 4 7 21 8 6 9 5 10 7 11 8 12 1 13 11 15
 SMILES IDX 12 16 13 17 14 18 15 19 16 20 20 21 17 22 19 23 18 24
 H PARENT 10 2 3 14

>  <TORSDO>  (1) 
F 4

$$$$
