/home/pchatterjee/Documents/git/vs_workflow/DiffDock/diffdock_run/pdbqt_scrubbed/Z3071631534.pdbqt
     RDKit          3D

 22 24  0  0  1  0  0  0  0  0999 V2000
    4.2472   43.5531   50.6008 N   0  0  0  0  0  0  0  0  0  0  0  0
    5.6133   43.8755   50.4456 C   0  0  0  0  0  0  0  0  0  0  0  0
    8.3108   46.0254   51.7397 C   0  0  0  0  0  0  0  0  0  0  0  0
    9.6299   46.2285   51.4755 N   0  0  0  0  0  0  0  0  0  0  0  0
    7.6025   45.0810   50.9982 C   0  0  0  0  0  0  0  0  0  0  0  0
   10.2895   45.5547   50.5236 C   0  0  0  0  0  3  0  0  0  0  0  0
    6.2613   44.8319   51.2218 C   0  0  0  0  0  3  0  0  0  0  0  0
    8.3183   44.4077   50.0264 C   0  0  0  0  0  0  0  0  0  0  0  0
    9.6199   44.6321   49.7911 N   0  0  0  0  0  0  0  0  0  0  0  0
    7.6674   43.4619   49.2626 C   0  0  0  0  0  3  0  0  0  0  0  0
    6.3366   43.2060   49.4751 C   0  0  0  0  0  3  0  0  0  0  0  0
    7.7290   46.6817   52.6448 O   0  0  0  0  0  0  0  0  0  0  0  0
    3.2079   44.4126   51.6875 S   0  0  2  0  0  0  0  0  0  0  0  0
    2.1385   43.4823   52.1721 O   0  0  0  0  0  0  0  0  0  0  0  0
    2.5363   45.5195   50.9047 O   0  0  0  0  0  0  0  0  0  0  0  0
    4.1857   45.0277   53.0099 C   0  0  0  0  0  2  0  0  0  0  0  0
    3.4697   45.9713   53.9148 C   0  0  0  0  0  3  0  0  0  0  0  0
    3.2924   47.3489   53.4577 C   0  0  0  0  0  2  0  0  0  0  0  0
    3.3830   45.6604   55.2179 O   0  0  0  0  0  0  0  0  0  0  0  0
    3.5774   48.4285   54.4472 C   0  0  0  0  0  2  0  0  0  0  0  0
    3.4952   46.6948   56.1187 C   0  0  0  0  0  2  0  0  0  0  0  0
    4.3287   47.8430   55.6154 C   0  0  0  0  0  2  0  0  0  0  0  0
  1 13  1  0
  2  1  1  0
  3 12  2  0
  3  5  1  0
  4  3  1  0
  5  7  2  0
  6  4  1  0
  6  9  2  0
  7  2  1  0
  8  5  1  0
  8 10  2  0
  9  8  1  0
 10 11  1  0
 11  2  2  0
 13 15  2  0
 13 16  1  1
 14 13  2  0
 17 16  1  0
 17 18  1  0
 19 17  1  0
 20 18  1  0
 21 22  1  0
 21 19  1  0
 22 20  1  0
M  RAD  8   6   2   7   2  10   2  11   2  16   3  17   2  18   3  20   3
M  RAD  2  21   3  22   3
M  END
>  <REMARK>  (1) 
 SMILES O=c1[nH]cnc2ccc(NS(=O)(=O)CC3CCCCO3)cc12
 SMILES IDX 10 1 9 3 2 4 3 5 22 6 4 7 21 8 6 9 5 10 7 11 8 12 1 13 11 15
 SMILES IDX 12 16 13 17 14 18 15 19 16 20 20 21 17 22 19 23 18 24
 H PARENT 10 2 3 14

>  <TORSDO>  (1) 
F 4

$$$$
