/home/pchatterjee/Documents/git/vs_workflow/DiffDock/diffdock_run/pdbqt_scrubbed/Z3071631534.pdbqt
     RDKit          3D

 22 24  0  0  1  0  0  0  0  0999 V2000
    5.4111   47.1117   53.2228 N   0  0  0  0  0  0  0  0  0  0  0  0
    6.2852   46.3270   52.4389 C   0  0  0  0  0  0  0  0  0  0  0  0
    9.8409   45.6573   51.7453 C   0  0  0  0  0  0  0  0  0  0  0  0
   10.5543   44.8367   50.9273 N   0  0  0  0  0  0  0  0  0  0  0  0
    8.4480   45.6123   51.7130 C   0  0  0  0  0  0  0  0  0  0  0  0
    9.9735   43.9757   50.0808 C   0  0  0  0  0  3  0  0  0  0  0  0
    7.6713   46.4219   52.5206 C   0  0  0  0  0  3  0  0  0  0  0  0
    7.8878   44.7116   50.8270 C   0  0  0  0  0  0  0  0  0  0  0  0
    8.6206   43.9159   50.0335 N   0  0  0  0  0  0  0  0  0  0  0  0
    6.5135   44.6250   50.7533 C   0  0  0  0  0  3  0  0  0  0  0  0
    5.7322   45.4232   51.5497 C   0  0  0  0  0  3  0  0  0  0  0  0
   10.4281   46.4526   52.5269 O   0  0  0  0  0  0  0  0  0  0  0  0
    4.8793   46.6190   54.7958 S   0  0  2  0  0  0  0  0  0  0  0  0
    3.9477   47.6584   55.3395 O   0  0  0  0  0  0  0  0  0  0  0  0
    6.0927   46.5699   55.6983 O   0  0  0  0  0  0  0  0  0  0  0  0
    4.0952   45.0552   54.6446 C   0  0  0  0  0  2  0  0  0  0  0  0
    2.6467   45.1261   54.3003 C   0  0  0  0  0  3  0  0  0  0  0  0
    1.8844   43.8783   54.3078 C   0  0  0  0  0  2  0  0  0  0  0  0
    2.2049   46.2002   53.6270 O   0  0  0  0  0  0  0  0  0  0  0  0
    0.9663   43.6433   53.1555 C   0  0  0  0  0  2  0  0  0  0  0  0
    1.2414   45.9870   52.6677 C   0  0  0  0  0  2  0  0  0  0  0  0
    1.2992   44.6146   52.0518 C   0  0  0  0  0  2  0  0  0  0  0  0
  1 13  1  0
  2  1  1  0
  3 12  2  0
  3  5  1  0
  4  3  1  0
  5  7  2  0
  6  4  1  0
  6  9  2  0
  7  2  1  0
  8  5  1  0
  8 10  2  0
  9  8  1  0
 10 11  1  0
 11  2  2  0
 13 15  2  0
 13 16  1  6
 14 13  2  0
 17 16  1  0
 17 18  1  0
 19 17  1  0
 20 18  1  0
 21 22  1  0
 21 19  1  0
 22 20  1  0
M  RAD  8   6   2   7   2  10   2  11   2  16   3  17   2  18   3  20   3
M  RAD  2  21   3  22   3
M  END
>  <REMARK>  (1) 
 SMILES O=c1[nH]cnc2ccc(NS(=O)(=O)CC3CCCCO3)cc12
 SMILES IDX 10 1 9 3 2 4 3 5 22 6 4 7 21 8 6 9 5 10 7 11 8 12 1 13 11 15
 SMILES IDX 12 16 13 17 14 18 15 19 16 20 20 21 17 22 19 23 18 24
 H PARENT 10 2 3 14

>  <TORSDO>  (1) 
F 4

$$$$
