/home/pchatterjee/Documents/git/vs_workflow/DiffDock/diffdock_run/pdbqt_scrubbed/Z3071631534.pdbqt
     RDKit          3D

 22 24  0  0  1  0  0  0  0  0999 V2000
    7.3849   47.6063   52.5843 N   0  0  0  0  0  0  0  0  0  0  0  0
    7.0930   46.4568   51.8176 C   0  0  0  0  0  0  0  0  0  0  0  0
    8.5786   43.9453   49.5687 C   0  0  0  0  0  0  0  0  0  0  0  0
    8.1493   42.8526   48.8808 N   0  0  0  0  0  0  0  0  0  0  0  0
    7.6709   44.6655   50.3437 C   0  0  0  0  0  0  0  0  0  0  0  0
    6.8782   42.4303   48.9135 C   0  0  0  0  0  3  0  0  0  0  0  0
    8.0494   45.7832   51.0637 C   0  0  0  0  0  3  0  0  0  0  0  0
    6.3703   44.1979   50.3510 C   0  0  0  0  0  0  0  0  0  0  0  0
    5.9795   43.1160   49.6607 N   0  0  0  0  0  0  0  0  0  0  0  0
    5.4300   44.8722   51.1011 C   0  0  0  0  0  3  0  0  0  0  0  0
    5.7936   45.9827   51.8198 C   0  0  0  0  0  3  0  0  0  0  0  0
    9.7842   44.3079   49.5097 O   0  0  0  0  0  0  0  0  0  0  0  0
    7.1734   47.6545   54.3027 S   0  0  2  0  0  0  0  0  0  0  0  0
    7.9641   48.8003   54.8558 O   0  0  0  0  0  0  0  0  0  0  0  0
    7.7501   46.3778   54.8743 O   0  0  0  0  0  0  0  0  0  0  0  0
    5.4584   47.8226   54.6396 C   0  0  0  0  0  2  0  0  0  0  0  0
    4.6107   46.7423   54.0599 C   0  0  0  0  0  3  0  0  0  0  0  0
    3.7487   47.0870   52.9301 C   0  0  0  0  0  2  0  0  0  0  0  0
    4.3640   45.6562   54.8095 O   0  0  0  0  0  0  0  0  0  0  0  0
    2.3458   46.5810   52.9747 C   0  0  0  0  0  2  0  0  0  0  0  0
    3.1051   45.1068   54.7230 C   0  0  0  0  0  2  0  0  0  0  0  0
    2.0355   46.1060   54.3712 C   0  0  0  0  0  2  0  0  0  0  0  0
  1 13  1  0
  2  1  1  0
  3 12  2  0
  3  5  1  0
  4  3  1  0
  5  7  2  0
  6  4  1  0
  6  9  2  0
  7  2  1  0
  8  5  1  0
  8 10  2  0
  9  8  1  0
 10 11  1  0
 11  2  2  0
 13 15  2  0
 13 16  1  6
 14 13  2  0
 17 16  1  0
 17 18  1  0
 19 17  1  0
 20 18  1  0
 21 22  1  0
 21 19  1  0
 22 20  1  0
M  RAD  8   6   2   7   2  10   2  11   2  16   3  17   2  18   3  20   3
M  RAD  2  21   3  22   3
M  END
>  <REMARK>  (1) 
 SMILES O=c1[nH]cnc2ccc(NS(=O)(=O)CC3CCCCO3)cc12
 SMILES IDX 10 1 9 3 2 4 3 5 22 6 4 7 21 8 6 9 5 10 7 11 8 12 1 13 11 15
 SMILES IDX 12 16 13 17 14 18 15 19 16 20 20 21 17 22 19 23 18 24
 H PARENT 10 2 3 14

>  <TORSDO>  (1) 
F 4

$$$$
