/home/pchatterjee/Documents/git/vs_workflow/DiffDock/diffdock_run/pdbqt_scrubbed/Z3071631534.pdbqt
     RDKit          3D

 22 24  0  0  1  0  0  0  0  0999 V2000
    4.6360   45.3637   53.5850 N   0  0  0  0  0  0  0  0  0  0  0  0
    4.7665   44.5509   52.4376 C   0  0  0  0  0  0  0  0  0  0  0  0
    7.1288   43.4899   49.8172 C   0  0  0  0  0  0  0  0  0  0  0  0
    7.1044   42.6661   48.7346 N   0  0  0  0  0  0  0  0  0  0  0  0
    5.9802   43.6319   50.5943 C   0  0  0  0  0  0  0  0  0  0  0  0
    6.0140   41.9755   48.3751 C   0  0  0  0  0  3  0  0  0  0  0  0
    5.9459   44.4542   51.7050 C   0  0  0  0  0  3  0  0  0  0  0  0
    4.8774   42.9033   50.1906 C   0  0  0  0  0  0  0  0  0  0  0  0
    4.8867   42.0991   49.1168 N   0  0  0  0  0  0  0  0  0  0  0  0
    3.7135   43.0058   50.9231 C   0  0  0  0  0  3  0  0  0  0  0  0
    3.6672   43.8185   52.0272 C   0  0  0  0  0  3  0  0  0  0  0  0
    8.1767   44.1213   50.1197 O   0  0  0  0  0  0  0  0  0  0  0  0
    5.5511   46.8182   53.8015 S   0  0  2  0  0  0  0  0  0  0  0  0
    5.0039   47.5636   54.9800 O   0  0  0  0  0  0  0  0  0  0  0  0
    5.3450   47.6796   52.5748 O   0  0  0  0  0  0  0  0  0  0  0  0
    7.2349   46.3773   54.0331 C   0  0  0  0  0  2  0  0  0  0  0  0
    8.2053   47.4471   53.6649 C   0  0  0  0  0  3  0  0  0  0  0  0
    9.4861   47.0353   53.0921 C   0  0  0  0  0  2  0  0  0  0  0  0
    8.0569   48.6596   54.2219 O   0  0  0  0  0  0  0  0  0  0  0  0
   10.7080   47.7078   53.6220 C   0  0  0  0  0  2  0  0  0  0  0  0
    9.2044   49.3365   54.5668 C   0  0  0  0  0  2  0  0  0  0  0  0
   10.3605   48.4310   54.8981 C   0  0  0  0  0  2  0  0  0  0  0  0
  1 13  1  0
  2  1  1  0
  3 12  2  0
  3  5  1  0
  4  3  1  0
  5  7  2  0
  6  4  1  0
  6  9  2  0
  7  2  1  0
  8  5  1  0
  8 10  2  0
  9  8  1  0
 10 11  1  0
 11  2  2  0
 13 15  2  0
 13 16  1  1
 14 13  2  0
 17 16  1  0
 17 18  1  0
 19 17  1  0
 20 18  1  0
 21 22  1  0
 21 19  1  0
 22 20  1  0
M  RAD  8   6   2   7   2  10   2  11   2  16   3  17   2  18   3  20   3
M  RAD  2  21   3  22   3
M  END
>  <REMARK>  (1) 
 SMILES O=c1[nH]cnc2ccc(NS(=O)(=O)CC3CCCCO3)cc12
 SMILES IDX 10 1 9 3 2 4 3 5 22 6 4 7 21 8 6 9 5 10 7 11 8 12 1 13 11 15
 SMILES IDX 12 16 13 17 14 18 15 19 16 20 20 21 17 22 19 23 18 24
 H PARENT 10 2 3 14

>  <TORSDO>  (1) 
F 4

$$$$
