/home/pchatterjee/Documents/git/vs_workflow/DiffDock/diffdock_run/pdbqt_scrubbed/Z3071631534.pdbqt
     RDKit          3D

 22 24  0  0  1  0  0  0  0  0999 V2000
    4.6412   46.8494   52.7494 N   0  0  0  0  0  0  0  0  0  0  0  0
    5.7471   46.2345   52.1224 C   0  0  0  0  0  0  0  0  0  0  0  0
    9.4223   46.3036   51.8744 C   0  0  0  0  0  0  0  0  0  0  0  0
   10.3836   45.6180   51.1983 N   0  0  0  0  0  0  0  0  0  0  0  0
    8.0829   45.9633   51.6910 C   0  0  0  0  0  0  0  0  0  0  0  0
   10.1001   44.6178   50.3531 C   0  0  0  0  0  3  0  0  0  0  0  0
    7.0636   46.6242   52.3506 C   0  0  0  0  0  3  0  0  0  0  0  0
    7.8323   44.9269   50.8116 C   0  0  0  0  0  0  0  0  0  0  0  0
    8.8045   44.2709   50.1602 N   0  0  0  0  0  0  0  0  0  0  0  0
    6.5247   44.5482   50.5922 C   0  0  0  0  0  3  0  0  0  0  0  0
    5.5046   45.1965   51.2409 C   0  0  0  0  0  3  0  0  0  0  0  0
    9.7333   47.2383   52.6604 O   0  0  0  0  0  0  0  0  0  0  0  0
    4.0820   46.3760   54.3188 S   0  0  2  0  0  0  0  0  0  0  0  0
    4.0413   47.5844   55.2031 O   0  0  0  0  0  0  0  0  0  0  0  0
    5.0958   45.4142   54.8988 O   0  0  0  0  0  0  0  0  0  0  0  0
    2.4953   45.6460   54.1383 C   0  0  0  0  0  2  0  0  0  0  0  0
    2.4029   44.6432   53.0394 C   0  0  0  0  0  3  0  0  0  0  0  0
    1.5968   44.9891   51.8695 C   0  0  0  0  0  2  0  0  0  0  0  0
    2.6990   43.3640   53.3193 O   0  0  0  0  0  0  0  0  0  0  0  0
    0.6752   43.9362   51.3517 C   0  0  0  0  0  2  0  0  0  0  0  0
    1.9339   42.3952   52.7109 C   0  0  0  0  0  2  0  0  0  0  0  0
    0.5357   42.8488   52.3862 C   0  0  0  0  0  2  0  0  0  0  0  0
  1 13  1  0
  2  1  1  0
  3 12  2  0
  3  5  1  0
  4  3  1  0
  5  7  2  0
  6  4  1  0
  6  9  2  0
  7  2  1  0
  8  5  1  0
  8 10  2  0
  9  8  1  0
 10 11  1  0
 11  2  2  0
 13 15  2  0
 13 16  1  6
 14 13  2  0
 17 16  1  0
 17 18  1  0
 19 17  1  0
 20 18  1  0
 21 22  1  0
 21 19  1  0
 22 20  1  0
M  RAD  8   6   2   7   2  10   2  11   2  16   3  17   2  18   3  20   3
M  RAD  2  21   3  22   3
M  END
>  <REMARK>  (1) 
 SMILES O=c1[nH]cnc2ccc(NS(=O)(=O)CC3CCCCO3)cc12
 SMILES IDX 10 1 9 3 2 4 3 5 22 6 4 7 21 8 6 9 5 10 7 11 8 12 1 13 11 15
 SMILES IDX 12 16 13 17 14 18 15 19 16 20 20 21 17 22 19 23 18 24
 H PARENT 10 2 3 14

>  <TORSDO>  (1) 
F 4

$$$$
