/home/pchatterjee/Documents/git/vs_workflow/DiffDock/diffdock_run/pdbqt_scrubbed/Z3071631534.pdbqt
     RDKit          3D

 22 24  0  0  1  0  0  0  0  0999 V2000
    4.2094   46.0426   51.8157 N   0  0  0  0  0  0  0  0  0  0  0  0
    5.4918   45.6613   51.3635 C   0  0  0  0  0  0  0  0  0  0  0  0
    9.0935   46.3036   51.7976 C   0  0  0  0  0  0  0  0  0  0  0  0
   10.2553   45.8357   51.2662 N   0  0  0  0  0  0  0  0  0  0  0  0
    7.8792   45.7847   51.3505 C   0  0  0  0  0  0  0  0  0  0  0  0
   10.2882   44.8870   50.3206 C   0  0  0  0  0  3  0  0  0  0  0  0
    6.6679   46.2212   51.8536 C   0  0  0  0  0  3  0  0  0  0  0  0
    7.9559   44.8086   50.3752 C   0  0  0  0  0  0  0  0  0  0  0  0
    9.1192   44.3690   49.8718 N   0  0  0  0  0  0  0  0  0  0  0  0
    6.7850   44.2599   49.8960 C   0  0  0  0  0  3  0  0  0  0  0  0
    5.5769   44.6850   50.3874 C   0  0  0  0  0  3  0  0  0  0  0  0
    9.1082   47.1974   52.6859 O   0  0  0  0  0  0  0  0  0  0  0  0
    3.8234   46.1883   53.4978 S   0  0  2  0  0  0  0  0  0  0  0  0
    4.0375   47.6088   53.9224 O   0  0  0  0  0  0  0  0  0  0  0  0
    4.7959   45.3244   54.2706 O   0  0  0  0  0  0  0  0  0  0  0  0
    2.1566   45.6842   53.7235 C   0  0  0  0  0  2  0  0  0  0  0  0
    1.7235   44.5773   52.8241 C   0  0  0  0  0  3  0  0  0  0  0  0
    0.7022   44.8765   51.8212 C   0  0  0  0  0  2  0  0  0  0  0  0
    1.9615   43.3138   53.2104 O   0  0  0  0  0  0  0  0  0  0  0  0
   -0.4040   43.8867   51.6708 C   0  0  0  0  0  2  0  0  0  0  0  0
    0.9934   42.3778   52.9264 C   0  0  0  0  0  2  0  0  0  0  0  0
   -0.3961   42.9525   52.8537 C   0  0  0  0  0  2  0  0  0  0  0  0
  1 13  1  0
  2  1  1  0
  3 12  2  0
  3  5  1  0
  4  3  1  0
  5  7  2  0
  6  4  1  0
  6  9  2  0
  7  2  1  0
  8  5  1  0
  8 10  2  0
  9  8  1  0
 10 11  1  0
 11  2  2  0
 13 15  2  0
 13 16  1  6
 14 13  2  0
 17 16  1  0
 17 18  1  0
 19 17  1  0
 20 18  1  0
 21 22  1  0
 21 19  1  0
 22 20  1  0
M  RAD  8   6   2   7   2  10   2  11   2  16   3  17   2  18   3  20   3
M  RAD  2  21   3  22   3
M  END
>  <REMARK>  (1) 
 SMILES O=c1[nH]cnc2ccc(NS(=O)(=O)CC3CCCCO3)cc12
 SMILES IDX 10 1 9 3 2 4 3 5 22 6 4 7 21 8 6 9 5 10 7 11 8 12 1 13 11 15
 SMILES IDX 12 16 13 17 14 18 15 19 16 20 20 21 17 22 19 23 18 24
 H PARENT 10 2 3 14

>  <TORSDO>  (1) 
F 4

$$$$
