/home/pchatterjee/Documents/git/vs_workflow/DiffDock/diffdock_run/pdbqt_scrubbed/Z996015122.pdbqt
     RDKit          3D

 24 26  0  0  0  0  0  0  0  0999 V2000
    3.2793   44.8978   52.2185 C   0  0  0  0  0  0  0  0  0  0  0  0
    2.5050   45.7371   53.0124 C   0  0  0  0  0  3  0  0  0  0  0  0
    1.1271   45.6437   53.0142 C   0  0  0  0  0  3  0  0  0  0  0  0
    0.4700   44.7194   52.2329 C   0  0  0  0  0  3  0  0  0  0  0  0
    1.2367   43.8832   51.4422 C   0  0  0  0  0  3  0  0  0  0  0  0
    2.6302   43.9678   51.4316 C   0  0  0  0  0  0  0  0  0  0  0  0
    4.7415   44.9819   52.2032 C   0  0  0  0  0  0  0  0  0  0  0  0
    5.3680   46.1559   52.6989 N   0  0  0  0  0  0  0  0  0  0  0  0
    5.4134   44.0052   51.7480 O   0  0  0  0  0  0  0  0  0  0  0  0
    6.7808   46.3341   52.7191 C   0  0  0  0  0  0  0  0  0  0  0  0
    8.9488   45.8510   51.7359 C   0  0  0  0  0  0  0  0  0  0  0  0
    7.5757   45.7063   51.7544 C   0  0  0  0  0  3  0  0  0  0  0  0
    9.5451   46.6391   52.7001 C   0  0  0  0  0  0  0  0  0  0  0  0
    8.7980   47.2768   53.6706 C   0  0  0  0  0  3  0  0  0  0  0  0
    7.4077   47.1278   53.6861 C   0  0  0  0  0  3  0  0  0  0  0  0
   10.8915   46.7929   52.6979 F   0  0  0  0  0  0  0  0  0  0  0  0
    9.6866   45.1627   50.6991 C   0  0  0  0  0  0  0  0  0  0  0  0
   11.1054   45.0948   50.6585 N   0  0  0  0  0  0  0  0  0  0  0  0
    9.0288   44.5975   49.7898 O   0  0  0  0  0  0  0  0  0  0  0  0
    3.3053   43.0972   50.6160 O   0  0  0  0  0  0  0  0  0  0  0  0
    2.8155   42.4947   49.4616 C   0  0  0  0  0  2  0  0  0  0  0  0
    3.8324   41.6396   48.7482 C   0  0  0  0  0  3  0  0  0  0  0  0
    3.9996   40.2457   49.3849 C   0  0  0  0  0  2  0  0  0  0  0  0
    5.0330   41.3104   49.6625 C   0  0  0  0  0  2  0  0  0  0  0  0
  1  2  2  0
  2  3  1  0
  4  3  2  0
  5  4  1  0
  6  5  2  0
  6  1  1  0
  7  1  1  0
  7  9  2  0
  8  7  1  0
 10  8  1  0
 10 15  1  0
 11 13  2  0
 11 12  1  0
 12 10  2  0
 13 14  1  0
 14 15  2  0
 16 13  1  0
 17 11  1  0
 18 17  1  0
 19 17  2  0
 20  6  1  0
 21 20  1  0
 22 21  1  0
 23 22  1  0
 24 23  1  0
 24 22  1  0
M  RAD  8   2   2   3   2   4   2   5   2  12   2  14   2  15   2  21   3
M  RAD  3  22   2  23   3  24   3
M  END
>  <REMARK>  (1) 
 SMILES NC(=O)c1cc(NC(=O)c2ccccc2OCC2CC2)ccc1F
 SMILES IDX 10 1 11 2 12 3 13 4 14 5 15 6 8 7 7 8 9 10 6 11 4 12 5 13
 SMILES IDX 23 14 22 15 21 16 24 17 2 18 1 19 3 22 16 23 17 24 18 25
 SMILES IDX 19 26 20 27
 H PARENT 7 9 1 20 1 21

>  <TORSDO>  (1) 
F 6

$$$$
