/home/pchatterjee/Documents/git/vs_workflow/DiffDock/diffdock_run/pdbqt_scrubbed/Z996015122.pdbqt
     RDKit          3D

 24 26  0  0  0  0  0  0  0  0999 V2000
   10.8899   83.7548   71.3174 C   0  0  0  0  0  0  0  0  0  0  0  0
   11.9297   82.8323   71.2756 C   0  0  0  0  0  3  0  0  0  0  0  0
   13.1215   83.1312   70.6451 C   0  0  0  0  0  3  0  0  0  0  0  0
   13.3248   84.3496   70.0360 C   0  0  0  0  0  3  0  0  0  0  0  0
   12.2929   85.2693   70.0756 C   0  0  0  0  0  3  0  0  0  0  0  0
   11.0835   84.9791   70.7099 C   0  0  0  0  0  0  0  0  0  0  0  0
    9.6189   83.4560   71.9813 C   0  0  0  0  0  0  0  0  0  0  0  0
    9.6235   83.1437   73.3666 N   0  0  0  0  0  0  0  0  0  0  0  0
    8.5450   83.4831   71.3043 O   0  0  0  0  0  0  0  0  0  0  0  0
    8.5404   82.4893   74.0198 C   0  0  0  0  0  0  0  0  0  0  0  0
    7.7796   80.8445   75.6372 C   0  0  0  0  0  0  0  0  0  0  0  0
    8.7984   81.5047   74.9792 C   0  0  0  0  0  3  0  0  0  0  0  0
    6.4731   81.1717   75.3333 C   0  0  0  0  0  0  0  0  0  0  0  0
    6.1738   82.1374   74.3928 C   0  0  0  0  0  3  0  0  0  0  0  0
    7.2083   82.8038   73.7285 C   0  0  0  0  0  3  0  0  0  0  0  0
    5.4600   80.5344   75.9688 F   0  0  0  0  0  0  0  0  0  0  0  0
    8.1447   79.8412   76.6136 C   0  0  0  0  0  0  0  0  0  0  0  0
    7.1984   79.0379   77.3053 N   0  0  0  0  0  0  0  0  0  0  0  0
    9.3669   79.6787   76.8564 O   0  0  0  0  0  0  0  0  0  0  0  0
   10.1192   85.9532   70.6977 O   0  0  0  0  0  0  0  0  0  0  0  0
   10.2475   87.2393   70.1830 C   0  0  0  0  0  2  0  0  0  0  0  0
    8.9902   88.0642   70.2973 C   0  0  0  0  0  3  0  0  0  0  0  0
    8.2248   88.1827   68.9644 C   0  0  0  0  0  2  0  0  0  0  0  0
    9.0729   89.3407   69.4316 C   0  0  0  0  0  2  0  0  0  0  0  0
  1  2  2  0
  2  3  1  0
  4  3  2  0
  5  4  1  0
  6  5  2  0
  6  1  1  0
  7  1  1  0
  7  9  2  0
  8  7  1  0
 10  8  1  0
 10 15  1  0
 11 13  2  0
 11 12  1  0
 12 10  2  0
 13 14  1  0
 14 15  2  0
 16 13  1  0
 17 11  1  0
 18 17  1  0
 19 17  2  0
 20  6  1  0
 21 20  1  0
 22 21  1  0
 23 22  1  0
 24 23  1  0
 24 22  1  0
M  RAD  8   2   2   3   2   4   2   5   2  12   2  14   2  15   2  21   3
M  RAD  3  22   2  23   3  24   3
M  END
>  <REMARK>  (1) 
 SMILES NC(=O)c1cc(NC(=O)c2ccccc2OCC2CC2)ccc1F
 SMILES IDX 10 1 11 2 12 3 13 4 14 5 15 6 8 7 7 8 9 10 6 11 4 12 5 13
 SMILES IDX 23 14 22 15 21 16 24 17 2 18 1 19 3 22 16 23 17 24 18 25
 SMILES IDX 19 26 20 27
 H PARENT 7 9 1 20 1 21

>  <TORSDO>  (1) 
F 6

$$$$
