/home/pchatterjee/Documents/git/vs_workflow/DiffDock/diffdock_run/pdbqt_scrubbed/Z996015122.pdbqt
     RDKit          3D

 24 26  0  0  0  0  0  0  0  0999 V2000
    5.6908   46.5086   53.4516 C   0  0  0  0  0  0  0  0  0  0  0  0
    4.3134   46.3351   53.3705 C   0  0  0  0  0  3  0  0  0  0  0  0
    3.4649   46.9442   54.2740 C   0  0  0  0  0  3  0  0  0  0  0  0
    3.9488   47.7434   55.2859 C   0  0  0  0  0  3  0  0  0  0  0  0
    5.3180   47.9181   55.3695 C   0  0  0  0  0  3  0  0  0  0  0  0
    6.1861   47.3079   54.4622 C   0  0  0  0  0  0  0  0  0  0  0  0
    6.6065   45.8710   52.5027 C   0  0  0  0  0  0  0  0  0  0  0  0
    6.2494   44.6175   51.9389 N   0  0  0  0  0  0  0  0  0  0  0  0
    7.6959   46.4525   52.2068 O   0  0  0  0  0  0  0  0  0  0  0  0
    6.8003   44.1275   50.7206 C   0  0  0  0  0  0  0  0  0  0  0  0
    6.5766   42.7044   48.7648 C   0  0  0  0  0  0  0  0  0  0  0  0
    6.0814   43.2059   49.9522 C   0  0  0  0  0  3  0  0  0  0  0  0
    7.8165   43.1301   48.3316 C   0  0  0  0  0  0  0  0  0  0  0  0
    8.5596   44.0385   49.0591 C   0  0  0  0  0  3  0  0  0  0  0  0
    8.0547   44.5441   50.2612 C   0  0  0  0  0  3  0  0  0  0  0  0
    8.3189   42.6489   47.1686 F   0  0  0  0  0  0  0  0  0  0  0  0
    5.7602   41.7554   48.0396 C   0  0  0  0  0  0  0  0  0  0  0  0
    6.2308   41.0006   46.9314 N   0  0  0  0  0  0  0  0  0  0  0  0
    4.5723   41.5967   48.4174 O   0  0  0  0  0  0  0  0  0  0  0  0
    7.5273   47.5394   54.6246 O   0  0  0  0  0  0  0  0  0  0  0  0
    8.1088   48.6437   55.2393 C   0  0  0  0  0  2  0  0  0  0  0  0
    9.5539   48.4342   55.6162 C   0  0  0  0  0  3  0  0  0  0  0  0
   10.5353   48.9136   54.5283 C   0  0  0  0  0  2  0  0  0  0  0  0
   10.2469   47.4379   54.6607 C   0  0  0  0  0  2  0  0  0  0  0  0
  1  2  2  0
  2  3  1  0
  4  3  2  0
  5  4  1  0
  6  5  2  0
  6  1  1  0
  7  1  1  0
  7  9  2  0
  8  7  1  0
 10  8  1  0
 10 15  1  0
 11 13  2  0
 11 12  1  0
 12 10  2  0
 13 14  1  0
 14 15  2  0
 16 13  1  0
 17 11  1  0
 18 17  1  0
 19 17  2  0
 20  6  1  0
 21 20  1  0
 22 21  1  0
 23 22  1  0
 24 23  1  0
 24 22  1  0
M  RAD  8   2   2   3   2   4   2   5   2  12   2  14   2  15   2  21   3
M  RAD  3  22   2  23   3  24   3
M  END
>  <REMARK>  (1) 
 SMILES NC(=O)c1cc(NC(=O)c2ccccc2OCC2CC2)ccc1F
 SMILES IDX 10 1 11 2 12 3 13 4 14 5 15 6 8 7 7 8 9 10 6 11 4 12 5 13
 SMILES IDX 23 14 22 15 21 16 24 17 2 18 1 19 3 22 16 23 17 24 18 25
 SMILES IDX 19 26 20 27
 H PARENT 7 9 1 20 1 21

>  <TORSDO>  (1) 
F 6

$$$$
