/home/pchatterjee/Documents/git/vs_workflow/DiffDock/diffdock_run/pdbqt_scrubbed/Z996015122.pdbqt
     RDKit          3D

 24 26  0  0  0  0  0  0  0  0999 V2000
   10.2397   64.8292   82.7809 C   0  0  0  0  0  0  0  0  0  0  0  0
    9.1322   64.0621   83.1256 C   0  0  0  0  0  3  0  0  0  0  0  0
    7.8569   64.5894   83.0733 C   0  0  0  0  0  3  0  0  0  0  0  0
    7.6343   65.8901   82.6792 C   0  0  0  0  0  3  0  0  0  0  0  0
    8.7333   66.6559   82.3356 C   0  0  0  0  0  3  0  0  0  0  0  0
   10.0275   66.1343   82.3844 C   0  0  0  0  0  0  0  0  0  0  0  0
   11.5997   64.2876   82.8301 C   0  0  0  0  0  0  0  0  0  0  0  0
   11.7787   62.8991   83.0681 N   0  0  0  0  0  0  0  0  0  0  0  0
   12.5849   65.0704   82.6593 O   0  0  0  0  0  0  0  0  0  0  0  0
   13.0599   62.2913   83.1987 C   0  0  0  0  0  0  0  0  0  0  0  0
   14.5239   60.7705   84.4005 C   0  0  0  0  0  0  0  0  0  0  0  0
   13.2975   61.3834   84.2359 C   0  0  0  0  0  3  0  0  0  0  0  0
   15.5379   61.0681   83.5120 C   0  0  0  0  0  0  0  0  0  0  0  0
   15.3463   61.9584   82.4741 C   0  0  0  0  0  3  0  0  0  0  0  0
   14.1029   62.5770   82.3106 C   0  0  0  0  0  3  0  0  0  0  0  0
   16.7484   60.4763   83.6577 F   0  0  0  0  0  0  0  0  0  0  0  0
   14.6744   59.8458   85.5030 C   0  0  0  0  0  0  0  0  0  0  0  0
   15.8547   59.0904   85.7384 N   0  0  0  0  0  0  0  0  0  0  0  0
   13.7037   59.7100   86.2893 O   0  0  0  0  0  0  0  0  0  0  0  0
   11.0540   66.9688   82.0256 O   0  0  0  0  0  0  0  0  0  0  0  0
   10.9340   68.2561   81.5117 C   0  0  0  0  0  2  0  0  0  0  0  0
   12.2584   68.9261   81.2451 C   0  0  0  0  0  3  0  0  0  0  0  0
   12.2411   69.8134   79.9845 C   0  0  0  0  0  2  0  0  0  0  0  0
   12.8752   68.4455   79.9131 C   0  0  0  0  0  2  0  0  0  0  0  0
  1  2  2  0
  2  3  1  0
  4  3  2  0
  5  4  1  0
  6  5  2  0
  6  1  1  0
  7  1  1  0
  7  9  2  0
  8  7  1  0
 10  8  1  0
 10 15  1  0
 11 13  2  0
 11 12  1  0
 12 10  2  0
 13 14  1  0
 14 15  2  0
 16 13  1  0
 17 11  1  0
 18 17  1  0
 19 17  2  0
 20  6  1  0
 21 20  1  0
 22 21  1  0
 23 22  1  0
 24 23  1  0
 24 22  1  0
M  RAD  8   2   2   3   2   4   2   5   2  12   2  14   2  15   2  21   3
M  RAD  3  22   2  23   3  24   3
M  END
>  <REMARK>  (1) 
 SMILES NC(=O)c1cc(NC(=O)c2ccccc2OCC2CC2)ccc1F
 SMILES IDX 10 1 11 2 12 3 13 4 14 5 15 6 8 7 7 8 9 10 6 11 4 12 5 13
 SMILES IDX 23 14 22 15 21 16 24 17 2 18 1 19 3 22 16 23 17 24 18 25
 SMILES IDX 19 26 20 27
 H PARENT 7 9 1 20 1 21

>  <TORSDO>  (1) 
F 6

$$$$
