/home/pchatterjee/Documents/git/vs_workflow/DiffDock/diffdock_run/pdbqt_scrubbed/Z996015122.pdbqt
     RDKit          3D

 24 26  0  0  0  0  0  0  0  0999 V2000
   -1.1787   73.6738   79.6906 C   0  0  0  0  0  0  0  0  0  0  0  0
   -2.5089   73.4942   80.0543 C   0  0  0  0  0  3  0  0  0  0  0  0
   -3.5142   74.2357   79.4654 C   0  0  0  0  0  3  0  0  0  0  0  0
   -3.2387   75.1777   78.4993 C   0  0  0  0  0  3  0  0  0  0  0  0
   -1.9170   75.3590   78.1351 C   0  0  0  0  0  3  0  0  0  0  0  0
   -0.8918   74.6156   78.7230 C   0  0  0  0  0  0  0  0  0  0  0  0
   -0.0990   72.8969   80.3037 C   0  0  0  0  0  0  0  0  0  0  0  0
   -0.4170   71.9683   81.3299 N   0  0  0  0  0  0  0  0  0  0  0  0
    1.0938   73.0714   79.9044 O   0  0  0  0  0  0  0  0  0  0  0  0
    0.5683   71.2162   82.0308 C   0  0  0  0  0  0  0  0  0  0  0  0
    2.8691   70.9950   82.7777 C   0  0  0  0  0  0  0  0  0  0  0  0
    1.8818   71.6910   82.1088 C   0  0  0  0  0  3  0  0  0  0  0  0
    2.5419   69.7982   83.3833 C   0  0  0  0  0  0  0  0  0  0  0  0
    1.2579   69.2931   83.3308 C   0  0  0  0  0  3  0  0  0  0  0  0
    0.2606   70.0008   82.6525 C   0  0  0  0  0  3  0  0  0  0  0  0
    3.4978   69.1011   84.0444 F   0  0  0  0  0  0  0  0  0  0  0  0
    4.1982   71.5659   82.8042 C   0  0  0  0  0  0  0  0  0  0  0  0
    4.5438   72.7809   82.1534 N   0  0  0  0  0  0  0  0  0  0  0  0
    5.0883   70.9468   83.4394 O   0  0  0  0  0  0  0  0  0  0  0  0
    0.3871   74.8651   78.2977 O   0  0  0  0  0  0  0  0  0  0  0  0
    0.8365   76.0127   77.6524 C   0  0  0  0  0  2  0  0  0  0  0  0
    2.3302   76.0451   77.4473 C   0  0  0  0  0  3  0  0  0  0  0  0
    2.7344   76.5362   76.0430 C   0  0  0  0  0  2  0  0  0  0  0  0
    2.7692   75.0574   76.3439 C   0  0  0  0  0  2  0  0  0  0  0  0
  1  2  2  0
  2  3  1  0
  4  3  2  0
  5  4  1  0
  6  5  2  0
  6  1  1  0
  7  1  1  0
  7  9  2  0
  8  7  1  0
 10  8  1  0
 10 15  1  0
 11 13  2  0
 11 12  1  0
 12 10  2  0
 13 14  1  0
 14 15  2  0
 16 13  1  0
 17 11  1  0
 18 17  1  0
 19 17  2  0
 20  6  1  0
 21 20  1  0
 22 21  1  0
 23 22  1  0
 24 23  1  0
 24 22  1  0
M  RAD  8   2   2   3   2   4   2   5   2  12   2  14   2  15   2  21   3
M  RAD  3  22   2  23   3  24   3
M  END
>  <REMARK>  (1) 
 SMILES NC(=O)c1cc(NC(=O)c2ccccc2OCC2CC2)ccc1F
 SMILES IDX 10 1 11 2 12 3 13 4 14 5 15 6 8 7 7 8 9 10 6 11 4 12 5 13
 SMILES IDX 23 14 22 15 21 16 24 17 2 18 1 19 3 22 16 23 17 24 18 25
 SMILES IDX 19 26 20 27
 H PARENT 7 9 1 20 1 21

>  <TORSDO>  (1) 
F 6

$$$$
