/home/pchatterjee/Documents/git/vs_workflow/DiffDock/diffdock_run/pdbqt_scrubbed/Z996015122.pdbqt
     RDKit          3D

 24 26  0  0  0  0  0  0  0  0999 V2000
    9.7724   64.9142   82.6223 C   0  0  0  0  0  0  0  0  0  0  0  0
    8.6085   64.2267   82.9484 C   0  0  0  0  0  3  0  0  0  0  0  0
    7.3740   64.8412   82.8736 C   0  0  0  0  0  3  0  0  0  0  0  0
    7.2492   66.1535   82.4748 C   0  0  0  0  0  3  0  0  0  0  0  0
    8.4045   66.8404   82.1498 C   0  0  0  0  0  3  0  0  0  0  0  0
    9.6583   66.2301   82.2213 C   0  0  0  0  0  0  0  0  0  0  0  0
   11.0904   64.2795   82.6954 C   0  0  0  0  0  0  0  0  0  0  0  0
   11.1865   62.9482   83.1803 N   0  0  0  0  0  0  0  0  0  0  0  0
   12.1142   64.9327   82.3244 O   0  0  0  0  0  0  0  0  0  0  0  0
   12.3866   62.1838   83.1214 C   0  0  0  0  0  0  0  0  0  0  0  0
   13.4739   60.0143   83.2270 C   0  0  0  0  0  0  0  0  0  0  0  0
   12.3358   60.7946   83.2768 C   0  0  0  0  0  3  0  0  0  0  0  0
   14.6914   60.6308   83.0175 C   0  0  0  0  0  0  0  0  0  0  0  0
   14.7867   61.9991   82.8590 C   0  0  0  0  0  3  0  0  0  0  0  0
   13.6319   62.7861   82.9101 C   0  0  0  0  0  3  0  0  0  0  0  0
   15.8192   59.8812   82.9655 F   0  0  0  0  0  0  0  0  0  0  0  0
   13.3215   58.5859   83.3986 C   0  0  0  0  0  0  0  0  0  0  0  0
   14.4124   57.6753   83.4060 N   0  0  0  0  0  0  0  0  0  0  0  0
   12.1581   58.1354   83.5486 O   0  0  0  0  0  0  0  0  0  0  0  0
   10.7464   66.9906   81.8797 O   0  0  0  0  0  0  0  0  0  0  0  0
   10.7242   68.2605   81.3119 C   0  0  0  0  0  2  0  0  0  0  0  0
   12.0960   68.8349   81.0625 C   0  0  0  0  0  3  0  0  0  0  0  0
   12.3200   69.2419   79.5926 C   0  0  0  0  0  2  0  0  0  0  0  0
   12.9115   67.9477   80.0963 C   0  0  0  0  0  2  0  0  0  0  0  0
  1  2  2  0
  2  3  1  0
  4  3  2  0
  5  4  1  0
  6  5  2  0
  6  1  1  0
  7  1  1  0
  7  9  2  0
  8  7  1  0
 10  8  1  0
 10 15  1  0
 11 13  2  0
 11 12  1  0
 12 10  2  0
 13 14  1  0
 14 15  2  0
 16 13  1  0
 17 11  1  0
 18 17  1  0
 19 17  2  0
 20  6  1  0
 21 20  1  0
 22 21  1  0
 23 22  1  0
 24 23  1  0
 24 22  1  0
M  RAD  8   2   2   3   2   4   2   5   2  12   2  14   2  15   2  21   3
M  RAD  3  22   2  23   3  24   3
M  END
>  <REMARK>  (1) 
 SMILES NC(=O)c1cc(NC(=O)c2ccccc2OCC2CC2)ccc1F
 SMILES IDX 10 1 11 2 12 3 13 4 14 5 15 6 8 7 7 8 9 10 6 11 4 12 5 13
 SMILES IDX 23 14 22 15 21 16 24 17 2 18 1 19 3 22 16 23 17 24 18 25
 SMILES IDX 19 26 20 27
 H PARENT 7 9 1 20 1 21

>  <TORSDO>  (1) 
F 6

$$$$
