/home/pchatterjee/Documents/git/vs_workflow/DiffDock/diffdock_run/pdbqt_scrubbed/Z996015122.pdbqt
     RDKit          3D

 24 26  0  0  0  0  0  0  0  0999 V2000
   12.1495   86.1117   69.5115 C   0  0  0  0  0  0  0  0  0  0  0  0
   12.3460   87.1387   68.5947 C   0  0  0  0  0  3  0  0  0  0  0  0
   11.3281   88.0182   68.2819 C   0  0  0  0  0  3  0  0  0  0  0  0
   10.0845   87.9118   68.8639 C   0  0  0  0  0  3  0  0  0  0  0  0
    9.8855   86.8917   69.7760 C   0  0  0  0  0  3  0  0  0  0  0  0
   10.9065   85.9964   70.1005 C   0  0  0  0  0  0  0  0  0  0  0  0
   13.2167   85.1694   69.8558 C   0  0  0  0  0  0  0  0  0  0  0  0
   14.5283   85.6669   70.0772 N   0  0  0  0  0  0  0  0  0  0  0  0
   12.9451   83.9324   69.9483 O   0  0  0  0  0  0  0  0  0  0  0  0
   15.6554   84.8220   70.2863 C   0  0  0  0  0  0  0  0  0  0  0  0
   18.0691   84.5653   70.3794 C   0  0  0  0  0  0  0  0  0  0  0  0
   16.9478   85.3474   70.1847 C   0  0  0  0  0  3  0  0  0  0  0  0
   17.9004   83.2289   70.6824 C   0  0  0  0  0  0  0  0  0  0  0  0
   16.6427   82.6696   70.7923 C   0  0  0  0  0  3  0  0  0  0  0  0
   15.5096   83.4648   70.5944 C   0  0  0  0  0  3  0  0  0  0  0  0
   18.9891   82.4457   70.8769 F   0  0  0  0  0  0  0  0  0  0  0  0
   19.3641   85.1979   70.2533 C   0  0  0  0  0  0  0  0  0  0  0  0
   20.5929   84.5254   70.4922 N   0  0  0  0  0  0  0  0  0  0  0  0
   19.3938   86.4074   69.9138 O   0  0  0  0  0  0  0  0  0  0  0  0
   10.6154   85.0179   71.0153 O   0  0  0  0  0  0  0  0  0  0  0  0
    9.4707   84.9328   71.8013 C   0  0  0  0  0  2  0  0  0  0  0  0
    9.3577   83.6380   72.5661 C   0  0  0  0  0  3  0  0  0  0  0  0
    9.5616   83.8157   74.0838 C   0  0  0  0  0  2  0  0  0  0  0  0
   10.6932   83.2680   73.2484 C   0  0  0  0  0  2  0  0  0  0  0  0
  1  2  2  0
  2  3  1  0
  4  3  2  0
  5  4  1  0
  6  5  2  0
  6  1  1  0
  7  1  1  0
  7  9  2  0
  8  7  1  0
 10  8  1  0
 10 15  1  0
 11 13  2  0
 11 12  1  0
 12 10  2  0
 13 14  1  0
 14 15  2  0
 16 13  1  0
 17 11  1  0
 18 17  1  0
 19 17  2  0
 20  6  1  0
 21 20  1  0
 22 21  1  0
 23 22  1  0
 24 23  1  0
 24 22  1  0
M  RAD  8   2   2   3   2   4   2   5   2  12   2  14   2  15   2  21   3
M  RAD  3  22   2  23   3  24   3
M  END
>  <REMARK>  (1) 
 SMILES NC(=O)c1cc(NC(=O)c2ccccc2OCC2CC2)ccc1F
 SMILES IDX 10 1 11 2 12 3 13 4 14 5 15 6 8 7 7 8 9 10 6 11 4 12 5 13
 SMILES IDX 23 14 22 15 21 16 24 17 2 18 1 19 3 22 16 23 17 24 18 25
 SMILES IDX 19 26 20 27
 H PARENT 7 9 1 20 1 21

>  <TORSDO>  (1) 
F 6

$$$$
