/home/pchatterjee/Documents/git/vs_workflow/DiffDock/diffdock_run/pdbqt_scrubbed/Z996015122.pdbqt
     RDKit          3D

 24 26  0  0  0  0  0  0  0  0999 V2000
   11.5314   64.3983   82.8799 C   0  0  0  0  0  0  0  0  0  0  0  0
   10.8864   65.2682   82.0074 C   0  0  0  0  0  3  0  0  0  0  0  0
    9.8525   66.0746   82.4411 C   0  0  0  0  0  3  0  0  0  0  0  0
    9.4225   66.0479   83.7492 C   0  0  0  0  0  3  0  0  0  0  0  0
   10.0615   65.1840   84.6196 C   0  0  0  0  0  3  0  0  0  0  0  0
   11.1079   64.3639   84.1933 C   0  0  0  0  0  0  0  0  0  0  0  0
   12.6296   63.5355   82.4385 C   0  0  0  0  0  0  0  0  0  0  0  0
   12.3267   62.3571   81.7063 N   0  0  0  0  0  0  0  0  0  0  0  0
   13.8244   63.8605   82.7202 O   0  0  0  0  0  0  0  0  0  0  0  0
   13.2686   61.3106   81.4926 C   0  0  0  0  0  0  0  0  0  0  0  0
   13.7460   58.9301   81.4174 C   0  0  0  0  0  0  0  0  0  0  0  0
   12.8669   59.9763   81.6156 C   0  0  0  0  0  3  0  0  0  0  0  0
   15.0557   59.2182   81.0891 C   0  0  0  0  0  0  0  0  0  0  0  0
   15.4943   60.5209   80.9576 C   0  0  0  0  0  3  0  0  0  0  0  0
   14.6011   61.5778   81.1591 C   0  0  0  0  0  3  0  0  0  0  0  0
   15.9330   58.2044   80.8908 F   0  0  0  0  0  0  0  0  0  0  0  0
   13.2382   57.5836   81.5668 C   0  0  0  0  0  0  0  0  0  0  0  0
   13.9885   56.4212   81.2428 N   0  0  0  0  0  0  0  0  0  0  0  0
   12.0696   57.4446   82.0075 O   0  0  0  0  0  0  0  0  0  0  0  0
   11.6802   63.5405   85.1278 O   0  0  0  0  0  0  0  0  0  0  0  0
   11.6272   63.6930   86.5096 C   0  0  0  0  0  2  0  0  0  0  0  0
   12.4035   62.6428   87.2638 C   0  0  0  0  0  3  0  0  0  0  0  0
   13.0022   63.1687   88.5834 C   0  0  0  0  0  2  0  0  0  0  0  0
   13.8973   63.0190   87.3772 C   0  0  0  0  0  2  0  0  0  0  0  0
  1  2  2  0
  2  3  1  0
  4  3  2  0
  5  4  1  0
  6  5  2  0
  6  1  1  0
  7  1  1  0
  7  9  2  0
  8  7  1  0
 10  8  1  0
 10 15  1  0
 11 13  2  0
 11 12  1  0
 12 10  2  0
 13 14  1  0
 14 15  2  0
 16 13  1  0
 17 11  1  0
 18 17  1  0
 19 17  2  0
 20  6  1  0
 21 20  1  0
 22 21  1  0
 23 22  1  0
 24 23  1  0
 24 22  1  0
M  RAD  8   2   2   3   2   4   2   5   2  12   2  14   2  15   2  21   3
M  RAD  3  22   2  23   3  24   3
M  END
>  <REMARK>  (1) 
 SMILES NC(=O)c1cc(NC(=O)c2ccccc2OCC2CC2)ccc1F
 SMILES IDX 10 1 11 2 12 3 13 4 14 5 15 6 8 7 7 8 9 10 6 11 4 12 5 13
 SMILES IDX 23 14 22 15 21 16 24 17 2 18 1 19 3 22 16 23 17 24 18 25
 SMILES IDX 19 26 20 27
 H PARENT 7 9 1 20 1 21

>  <TORSDO>  (1) 
F 6

$$$$
