/home/pchatterjee/Documents/git/vs_workflow/DiffDock/diffdock_run/pdbqt_scrubbed/Z996015122.pdbqt
     RDKit          3D

 24 26  0  0  0  0  0  0  0  0999 V2000
    6.0385   46.4566   54.0353 C   0  0  0  0  0  0  0  0  0  0  0  0
    4.8377   45.7820   54.2277 C   0  0  0  0  0  3  0  0  0  0  0  0
    3.9102   46.2282   55.1485 C   0  0  0  0  0  3  0  0  0  0  0  0
    4.1383   47.3540   55.9084 C   0  0  0  0  0  3  0  0  0  0  0  0
    5.3313   48.0274   55.7197 C   0  0  0  0  0  3  0  0  0  0  0  0
    6.2769   47.5863   54.7920 C   0  0  0  0  0  0  0  0  0  0  0  0
    7.0343   45.9988   53.0637 C   0  0  0  0  0  0  0  0  0  0  0  0
    6.9926   44.6505   52.6198 N   0  0  0  0  0  0  0  0  0  0  0  0
    7.9096   46.8161   52.6416 O   0  0  0  0  0  0  0  0  0  0  0  0
    7.3495   44.2551   51.2991 C   0  0  0  0  0  0  0  0  0  0  0  0
    6.7891   43.0378   49.2732 C   0  0  0  0  0  0  0  0  0  0  0  0
    6.4839   43.4450   50.5568 C   0  0  0  0  0  3  0  0  0  0  0  0
    7.9839   43.4464   48.7149 C   0  0  0  0  0  0  0  0  0  0  0  0
    8.8673   44.2462   49.4124 C   0  0  0  0  0  3  0  0  0  0  0  0
    8.5547   44.6566   50.7121 C   0  0  0  0  0  3  0  0  0  0  0  0
    8.3006   43.0567   47.4561 F   0  0  0  0  0  0  0  0  0  0  0  0
    5.8311   42.2007   48.5843 C   0  0  0  0  0  0  0  0  0  0  0  0
    6.1387   41.4540   47.4151 N   0  0  0  0  0  0  0  0  0  0  0  0
    4.6668   42.1367   49.0526 O   0  0  0  0  0  0  0  0  0  0  0  0
    7.4296   48.3186   54.6748 O   0  0  0  0  0  0  0  0  0  0  0  0
    8.0533   49.0484   55.6817 C   0  0  0  0  0  2  0  0  0  0  0  0
    9.4369   49.5235   55.3153 C   0  0  0  0  0  3  0  0  0  0  0  0
   10.1446   48.5958   54.3078 C   0  0  0  0  0  2  0  0  0  0  0  0
   10.5170   48.5166   55.7685 C   0  0  0  0  0  2  0  0  0  0  0  0
  1  2  2  0
  2  3  1  0
  4  3  2  0
  5  4  1  0
  6  5  2  0
  6  1  1  0
  7  1  1  0
  7  9  2  0
  8  7  1  0
 10  8  1  0
 10 15  1  0
 11 13  2  0
 11 12  1  0
 12 10  2  0
 13 14  1  0
 14 15  2  0
 16 13  1  0
 17 11  1  0
 18 17  1  0
 19 17  2  0
 20  6  1  0
 21 20  1  0
 22 21  1  0
 23 22  1  0
 24 23  1  0
 24 22  1  0
M  RAD  8   2   2   3   2   4   2   5   2  12   2  14   2  15   2  21   3
M  RAD  3  22   2  23   3  24   3
M  END
>  <REMARK>  (1) 
 SMILES NC(=O)c1cc(NC(=O)c2ccccc2OCC2CC2)ccc1F
 SMILES IDX 10 1 11 2 12 3 13 4 14 5 15 6 8 7 7 8 9 10 6 11 4 12 5 13
 SMILES IDX 23 14 22 15 21 16 24 17 2 18 1 19 3 22 16 23 17 24 18 25
 SMILES IDX 19 26 20 27
 H PARENT 7 9 1 20 1 21

>  <TORSDO>  (1) 
F 6

$$$$
