/home/pchatterjee/Documents/git/vs_workflow/DiffDock/diffdock_run/pdbqt_scrubbed/Z996015122.pdbqt
     RDKit          3D

 24 26  0  0  0  0  0  0  0  0999 V2000
    3.9581   42.2126   50.1068 C   0  0  0  0  0  0  0  0  0  0  0  0
    4.6588   41.2864   49.3420 C   0  0  0  0  0  3  0  0  0  0  0  0
    4.0041   40.2579   48.6933 C   0  0  0  0  0  3  0  0  0  0  0  0
    2.6374   40.1110   48.7789 C   0  0  0  0  0  3  0  0  0  0  0  0
    1.9373   41.0302   49.5386 C   0  0  0  0  0  3  0  0  0  0  0  0
    2.5877   42.0743   50.1991 C   0  0  0  0  0  0  0  0  0  0  0  0
    4.6348   43.3099   50.8020 C   0  0  0  0  0  0  0  0  0  0  0  0
    5.6453   44.0373   50.1189 N   0  0  0  0  0  0  0  0  0  0  0  0
    4.3031   43.5848   51.9965 O   0  0  0  0  0  0  0  0  0  0  0  0
    6.5214   44.9510   50.7713 C   0  0  0  0  0  0  0  0  0  0  0  0
    8.7603   45.8576   51.0273 C   0  0  0  0  0  0  0  0  0  0  0  0
    7.8752   44.9881   50.4213 C   0  0  0  0  0  3  0  0  0  0  0  0
    8.2873   46.7103   52.0047 C   0  0  0  0  0  0  0  0  0  0  0  0
    6.9586   46.7068   52.3806 C   0  0  0  0  0  3  0  0  0  0  0  0
    6.0652   45.8248   51.7646 C   0  0  0  0  0  3  0  0  0  0  0  0
    9.1412   47.5707   52.6106 F   0  0  0  0  0  0  0  0  0  0  0  0
   10.1417   45.8228   50.5986 C   0  0  0  0  0  0  0  0  0  0  0  0
   11.1804   46.5528   51.2370 N   0  0  0  0  0  0  0  0  0  0  0  0
   10.4288   45.1058   49.6074 O   0  0  0  0  0  0  0  0  0  0  0  0
    1.8102   42.9361   50.9283 O   0  0  0  0  0  0  0  0  0  0  0  0
    0.6801   42.6066   51.6698 C   0  0  0  0  0  2  0  0  0  0  0  0
    0.0297   43.7915   52.3387 C   0  0  0  0  0  3  0  0  0  0  0  0
    0.9053   45.0597   52.3005 C   0  0  0  0  0  2  0  0  0  0  0  0
    0.8339   44.2528   53.5742 C   0  0  0  0  0  2  0  0  0  0  0  0
  1  2  2  0
  2  3  1  0
  4  3  2  0
  5  4  1  0
  6  5  2  0
  6  1  1  0
  7  1  1  0
  7  9  2  0
  8  7  1  0
 10  8  1  0
 10 15  1  0
 11 13  2  0
 11 12  1  0
 12 10  2  0
 13 14  1  0
 14 15  2  0
 16 13  1  0
 17 11  1  0
 18 17  1  0
 19 17  2  0
 20  6  1  0
 21 20  1  0
 22 21  1  0
 23 22  1  0
 24 23  1  0
 24 22  1  0
M  RAD  8   2   2   3   2   4   2   5   2  12   2  14   2  15   2  21   3
M  RAD  3  22   2  23   3  24   3
M  END
>  <REMARK>  (1) 
 SMILES NC(=O)c1cc(NC(=O)c2ccccc2OCC2CC2)ccc1F
 SMILES IDX 10 1 11 2 12 3 13 4 14 5 15 6 8 7 7 8 9 10 6 11 4 12 5 13
 SMILES IDX 23 14 22 15 21 16 24 17 2 18 1 19 3 22 16 23 17 24 18 25
 SMILES IDX 19 26 20 27
 H PARENT 7 9 1 20 1 21

>  <TORSDO>  (1) 
F 6

$$$$
