/home/pchatterjee/Documents/git/vs_workflow/DiffDock/diffdock_run/pdbqt_scrubbed/Z48852930.pdbqt
     RDKit          3D

 22 24  0  0  1  0  0  0  0  0999 V2000
   10.9576   45.4331   50.2615 C   0  0  0  0  0  1  0  0  0  0  0  0
    9.5578   44.9043   50.4810 C   0  0  0  0  0  0  0  0  0  0  0  0
    9.0570   43.9145   49.7729 N   0  0  0  0  0  0  0  0  0  0  0  0
    8.0437   43.4068   49.8091 C   0  0  0  0  0  0  0  0  0  0  0  0
    7.1956   44.3724   51.2058 S   0  0  0  0  0  0  0  0  0  0  0  0
    8.7304   45.4115   51.4163 C   0  0  0  0  0  0  0  0  0  0  0  0
    8.8262   46.4576   52.3937 C   0  0  0  0  0  0  0  0  0  0  0  0
    7.7553   46.6888   53.3014 N   0  0  0  0  0  0  0  0  0  0  0  0
    9.8879   47.1541   52.4123 O   0  0  0  0  0  0  0  0  0  0  0  0
    7.8335   47.7049   54.3219 C   0  0  0  0  0  0  0  0  0  0  0  0
    6.7350   48.5268   54.4305 C   0  0  0  0  0  3  0  0  0  0  0  0
    8.9525   47.8185   55.1212 C   0  0  0  0  0  3  0  0  0  0  0  0
    6.7858   49.5065   55.3993 C   0  0  0  0  0  3  0  0  0  0  0  0
    8.9528   48.8153   56.0752 C   0  0  0  0  0  3  0  0  0  0  0  0
    7.8795   49.6645   56.2255 C   0  0  0  0  0  3  0  0  0  0  0  0
    7.2732   42.3732   49.2003 N   0  0  0  0  0  0  0  0  0  0  0  0
    5.9983   42.0716   49.7617 C   0  0  0  0  0  2  0  0  0  0  0  0
    4.8983   42.4572   48.7930 C   0  0  0  0  0  3  0  0  0  0  0  0
    3.5537   42.4112   49.5160 C   0  0  0  0  0  2  0  0  0  0  0  0
    4.7267   41.4871   47.8072 O   0  0  0  0  0  0  0  0  0  0  0  0
    3.2820   40.9095   49.5591 C   0  0  0  0  0  2  0  0  0  0  0  0
    4.2040   40.3851   48.4790 C   0  0  0  0  0  2  0  0  0  0  0  0
  1  2  1  0
  2  3  1  0
  3  4  2  0
  4 16  1  0
  5  4  1  0
  6  2  2  0
  6  5  1  0
  7  9  2  0
  7  6  1  0
  8  7  1  0
 10 12  1  0
 10  8  1  0
 11 10  2  0
 13 15  2  0
 13 11  1  0
 14 12  2  0
 15 14  1  0
 16 17  1  0
 18 17  1  0
 18 19  1  0
 18 20  1  0
 19 21  1  0
 20 22  1  0
 21 22  1  0
M  RAD  8   1   2  11   2  12   2  13   2  14   2  15   2  17   3  18   2
M  RAD  3  19   3  21   3  22   3
M  END
>  <REMARK>  (1) 
 SMILES Cc1nc(NCC2CCCO2)sc1C(=O)Nc1ccccc1
 SMILES IDX 1 1 2 2 3 3 4 4 12 5 13 6 14 7 16 8 15 9 17 11 18 12 22 13
 SMILES IDX 19 14 21 15 20 16 5 17 6 19 7 20 8 21 11 22 9 23 10 24
 H PARENT 16 10 5 18

>  <TORSDO>  (1) 
F 5

$$$$
