/home/pchatterjee/Documents/git/vs_workflow/DiffDock/diffdock_run/pdbqt_scrubbed/Z48852930.pdbqt
     RDKit          3D

 22 24  0  0  1  0  0  0  0  0999 V2000
   10.8070   45.3645   50.6742 C   0  0  0  0  0  1  0  0  0  0  0  0
    9.3717   44.8981   50.5759 C   0  0  0  0  0  0  0  0  0  0  0  0
    8.9940   43.9412   49.7551 N   0  0  0  0  0  0  0  0  0  0  0  0
    7.9762   43.4804   49.5615 C   0  0  0  0  0  0  0  0  0  0  0  0
    6.8884   44.4669   50.7638 S   0  0  0  0  0  0  0  0  0  0  0  0
    8.3842   45.4314   51.3223 C   0  0  0  0  0  0  0  0  0  0  0  0
    8.3111   46.4600   52.3200 C   0  0  0  0  0  0  0  0  0  0  0  0
    7.0683   46.7673   52.9408 N   0  0  0  0  0  0  0  0  0  0  0  0
    9.3832   47.0715   52.6186 O   0  0  0  0  0  0  0  0  0  0  0  0
    6.9623   47.7788   53.9634 C   0  0  0  0  0  0  0  0  0  0  0  0
    5.7123   47.9386   54.5167 C   0  0  0  0  0  3  0  0  0  0  0  0
    8.0629   48.5210   54.3396 C   0  0  0  0  0  3  0  0  0  0  0  0
    5.5854   48.8999   55.4969 C   0  0  0  0  0  3  0  0  0  0  0  0
    7.8823   49.4699   55.3248 C   0  0  0  0  0  3  0  0  0  0  0  0
    6.6527   49.6701   55.9110 C   0  0  0  0  0  3  0  0  0  0  0  0
    7.3122   42.4909   48.7786 N   0  0  0  0  0  0  0  0  0  0  0  0
    5.9145   42.3031   48.9853 C   0  0  0  0  0  2  0  0  0  0  0  0
    5.5159   40.8927   48.5990 C   0  0  0  0  0  3  0  0  0  0  0  0
    5.8113   40.6757   47.1164 C   0  0  0  0  0  2  0  0  0  0  0  0
    4.1329   40.7260   48.6429 O   0  0  0  0  0  0  0  0  0  0  0  0
    4.6454   41.4129   46.4622 C   0  0  0  0  0  2  0  0  0  0  0  0
    3.6468   41.5051   47.5962 C   0  0  0  0  0  2  0  0  0  0  0  0
  1  2  1  0
  2  3  1  0
  3  4  2  0
  4 16  1  0
  5  4  1  0
  6  2  2  0
  6  5  1  0
  7  9  2  0
  7  6  1  0
  8  7  1  0
 10 12  1  0
 10  8  1  0
 11 10  2  0
 13 15  2  0
 13 11  1  0
 14 12  2  0
 15 14  1  0
 16 17  1  0
 18 17  1  0
 18 19  1  0
 18 20  1  0
 19 21  1  0
 20 22  1  0
 21 22  1  0
M  RAD  8   1   2  11   2  12   2  13   2  14   2  15   2  17   3  18   2
M  RAD  3  19   3  21   3  22   3
M  END
>  <REMARK>  (1) 
 SMILES Cc1nc(NCC2CCCO2)sc1C(=O)Nc1ccccc1
 SMILES IDX 1 1 2 2 3 3 4 4 12 5 13 6 14 7 16 8 15 9 17 11 18 12 22 13
 SMILES IDX 19 14 21 15 20 16 5 17 6 19 7 20 8 21 11 22 9 23 10 24
 H PARENT 16 10 5 18

>  <TORSDO>  (1) 
F 5

$$$$
