/home/pchatterjee/Documents/git/vs_workflow/DiffDock/diffdock_run/pdbqt_scrubbed/Z48852930.pdbqt
     RDKit          3D

 22 24  0  0  1  0  0  0  0  0999 V2000
   10.5499   45.3807   51.0117 C   0  0  0  0  0  1  0  0  0  0  0  0
    9.1280   44.8791   50.8938 C   0  0  0  0  0  0  0  0  0  0  0  0
    8.7946   43.8774   50.1081 N   0  0  0  0  0  0  0  0  0  0  0  0
    7.7927   43.3861   49.9068 C   0  0  0  0  0  0  0  0  0  0  0  0
    6.6495   44.4029   51.0299 S   0  0  0  0  0  0  0  0  0  0  0  0
    8.1079   45.4245   51.5857 C   0  0  0  0  0  0  0  0  0  0  0  0
    7.9840   46.4961   52.5319 C   0  0  0  0  0  0  0  0  0  0  0  0
    6.6977   46.9221   52.9657 N   0  0  0  0  0  0  0  0  0  0  0  0
    9.0518   47.0367   52.9563 O   0  0  0  0  0  0  0  0  0  0  0  0
    6.5374   47.9018   54.0119 C   0  0  0  0  0  0  0  0  0  0  0  0
    5.5115   47.6653   54.8982 C   0  0  0  0  0  3  0  0  0  0  0  0
    7.3760   48.9948   54.0905 C   0  0  0  0  0  3  0  0  0  0  0  0
    5.3379   48.5882   55.9078 C   0  0  0  0  0  3  0  0  0  0  0  0
    7.1597   49.8882   55.1195 C   0  0  0  0  0  3  0  0  0  0  0  0
    6.1474   49.6986   56.0331 C   0  0  0  0  0  3  0  0  0  0  0  0
    7.1728   42.3473   49.1522 N   0  0  0  0  0  0  0  0  0  0  0  0
    5.7638   42.4192   48.9490 C   0  0  0  0  0  2  0  0  0  0  0  0
    5.3814   41.6758   47.6847 C   0  0  0  0  0  3  0  0  0  0  0  0
    3.9022   41.9152   47.3894 C   0  0  0  0  0  2  0  0  0  0  0  0
    5.4153   40.2959   47.8772 O   0  0  0  0  0  0  0  0  0  0  0  0
    3.2353   40.9805   48.3955 C   0  0  0  0  0  2  0  0  0  0  0  0
    4.3610   40.0316   48.7475 C   0  0  0  0  0  2  0  0  0  0  0  0
  1  2  1  0
  2  3  1  0
  3  4  2  0
  4 16  1  0
  5  4  1  0
  6  2  2  0
  6  5  1  0
  7  9  2  0
  7  6  1  0
  8  7  1  0
 10 12  1  0
 10  8  1  0
 11 10  2  0
 13 15  2  0
 13 11  1  0
 14 12  2  0
 15 14  1  0
 16 17  1  0
 18 17  1  0
 18 19  1  0
 18 20  1  0
 19 21  1  0
 20 22  1  0
 21 22  1  0
M  RAD  8   1   2  11   2  12   2  13   2  14   2  15   2  17   3  18   2
M  RAD  3  19   3  21   3  22   3
M  END
>  <REMARK>  (1) 
 SMILES Cc1nc(NCC2CCCO2)sc1C(=O)Nc1ccccc1
 SMILES IDX 1 1 2 2 3 3 4 4 12 5 13 6 14 7 16 8 15 9 17 11 18 12 22 13
 SMILES IDX 19 14 21 15 20 16 5 17 6 19 7 20 8 21 11 22 9 23 10 24
 H PARENT 16 10 5 18

>  <TORSDO>  (1) 
F 5

$$$$
