/home/pchatterjee/Documents/git/vs_workflow/DiffDock/diffdock_run/pdbqt_scrubbed/Z48852930.pdbqt
     RDKit          3D

 22 24  0  0  1  0  0  0  0  0999 V2000
   10.5469   45.6096   50.6807 C   0  0  0  0  0  1  0  0  0  0  0  0
    9.1536   45.0251   50.6152 C   0  0  0  0  0  0  0  0  0  0  0  0
    8.8444   44.0220   49.8215 N   0  0  0  0  0  0  0  0  0  0  0  0
    7.8653   43.4751   49.6540 C   0  0  0  0  0  0  0  0  0  0  0  0
    6.7169   44.3966   50.8516 S   0  0  0  0  0  0  0  0  0  0  0  0
    8.1360   45.4928   51.3653 C   0  0  0  0  0  0  0  0  0  0  0  0
    7.9925   46.5346   52.3415 C   0  0  0  0  0  0  0  0  0  0  0  0
    6.6974   46.9506   52.7585 N   0  0  0  0  0  0  0  0  0  0  0  0
    9.0513   47.0583   52.8074 O   0  0  0  0  0  0  0  0  0  0  0  0
    6.5132   47.8615   53.8614 C   0  0  0  0  0  0  0  0  0  0  0  0
    7.3034   48.9881   53.8427 C   0  0  0  0  0  3  0  0  0  0  0  0
    5.5951   47.5908   54.8553 C   0  0  0  0  0  3  0  0  0  0  0  0
    7.1457   49.8747   54.8868 C   0  0  0  0  0  3  0  0  0  0  0  0
    5.4762   48.5101   55.8773 C   0  0  0  0  0  3  0  0  0  0  0  0
    6.2427   49.6534   55.9064 C   0  0  0  0  0  3  0  0  0  0  0  0
    7.2740   42.4168   48.9034 N   0  0  0  0  0  0  0  0  0  0  0  0
    5.9648   41.9887   49.2698 C   0  0  0  0  0  2  0  0  0  0  0  0
    4.9817   42.3142   48.1632 C   0  0  0  0  0  3  0  0  0  0  0  0
    3.5592   42.2174   48.7107 C   0  0  0  0  0  2  0  0  0  0  0  0
    4.9781   41.3260   47.1803 O   0  0  0  0  0  0  0  0  0  0  0  0
    3.3479   40.7058   48.7449 C   0  0  0  0  0  2  0  0  0  0  0  0
    4.4211   40.2100   47.7994 C   0  0  0  0  0  2  0  0  0  0  0  0
  1  2  1  0
  2  3  1  0
  3  4  2  0
  4 16  1  0
  5  4  1  0
  6  2  2  0
  6  5  1  0
  7  9  2  0
  7  6  1  0
  8  7  1  0
 10 12  1  0
 10  8  1  0
 11 10  2  0
 13 15  2  0
 13 11  1  0
 14 12  2  0
 15 14  1  0
 16 17  1  0
 18 17  1  0
 18 19  1  0
 18 20  1  0
 19 21  1  0
 20 22  1  0
 21 22  1  0
M  RAD  8   1   2  11   2  12   2  13   2  14   2  15   2  17   3  18   2
M  RAD  3  19   3  21   3  22   3
M  END
>  <REMARK>  (1) 
 SMILES Cc1nc(NCC2CCCO2)sc1C(=O)Nc1ccccc1
 SMILES IDX 1 1 2 2 3 3 4 4 12 5 13 6 14 7 16 8 15 9 17 11 18 12 22 13
 SMILES IDX 19 14 21 15 20 16 5 17 6 19 7 20 8 21 11 22 9 23 10 24
 H PARENT 16 10 5 18

>  <TORSDO>  (1) 
F 5

$$$$
