/home/pchatterjee/Documents/git/vs_workflow/DiffDock/diffdock_run/pdbqt_scrubbed/Z48852930.pdbqt
     RDKit          3D

 22 24  0  0  1  0  0  0  0  0999 V2000
   10.5300   45.6782   50.9520 C   0  0  0  0  0  1  0  0  0  0  0  0
    9.1832   45.0185   50.7570 C   0  0  0  0  0  0  0  0  0  0  0  0
    8.9896   44.0507   49.8866 N   0  0  0  0  0  0  0  0  0  0  0  0
    8.0596   43.4589   49.6206 C   0  0  0  0  0  0  0  0  0  0  0  0
    6.7806   44.2347   50.7887 S   0  0  0  0  0  0  0  0  0  0  0  0
    8.0919   45.3778   51.4617 C   0  0  0  0  0  0  0  0  0  0  0  0
    7.8205   46.3462   52.4852 C   0  0  0  0  0  0  0  0  0  0  0  0
    6.4812   46.5995   52.8931 N   0  0  0  0  0  0  0  0  0  0  0  0
    8.8087   46.9548   53.0005 O   0  0  0  0  0  0  0  0  0  0  0  0
    6.1770   47.5066   53.9723 C   0  0  0  0  0  0  0  0  0  0  0  0
    5.2709   47.0466   54.9004 C   0  0  0  0  0  3  0  0  0  0  0  0
    6.7737   48.7489   54.0403 C   0  0  0  0  0  3  0  0  0  0  0  0
    4.9636   47.8960   55.9422 C   0  0  0  0  0  3  0  0  0  0  0  0
    6.4319   49.5602   55.1027 C   0  0  0  0  0  3  0  0  0  0  0  0
    5.5307   49.1484   56.0587 C   0  0  0  0  0  3  0  0  0  0  0  0
    7.5856   42.4170   48.7705 N   0  0  0  0  0  0  0  0  0  0  0  0
    6.3750   41.7579   49.1332 C   0  0  0  0  0  2  0  0  0  0  0  0
    5.2360   42.2425   48.2585 C   0  0  0  0  0  3  0  0  0  0  0  0
    4.0180   42.5303   49.1339 C   0  0  0  0  0  2  0  0  0  0  0  0
    4.7614   41.2249   47.4329 O   0  0  0  0  0  0  0  0  0  0  0  0
    3.4955   41.1210   49.4019 C   0  0  0  0  0  2  0  0  0  0  0  0
    4.1518   40.3197   48.2978 C   0  0  0  0  0  2  0  0  0  0  0  0
  1  2  1  0
  2  3  1  0
  3  4  2  0
  4 16  1  0
  5  4  1  0
  6  2  2  0
  6  5  1  0
  7  9  2  0
  7  6  1  0
  8  7  1  0
 10 12  1  0
 10  8  1  0
 11 10  2  0
 13 15  2  0
 13 11  1  0
 14 12  2  0
 15 14  1  0
 16 17  1  0
 18 17  1  0
 18 19  1  0
 18 20  1  0
 19 21  1  0
 20 22  1  0
 21 22  1  0
M  RAD  8   1   2  11   2  12   2  13   2  14   2  15   2  17   3  18   2
M  RAD  3  19   3  21   3  22   3
M  END
>  <REMARK>  (1) 
 SMILES Cc1nc(NCC2CCCO2)sc1C(=O)Nc1ccccc1
 SMILES IDX 1 1 2 2 3 3 4 4 12 5 13 6 14 7 16 8 15 9 17 11 18 12 22 13
 SMILES IDX 19 14 21 15 20 16 5 17 6 19 7 20 8 21 11 22 9 23 10 24
 H PARENT 16 10 5 18

>  <TORSDO>  (1) 
F 5

$$$$
