/home/pchatterjee/Documents/git/vs_workflow/DiffDock/diffdock_run/pdbqt_scrubbed/Z48852930.pdbqt
     RDKit          3D

 22 24  0  0  1  0  0  0  0  0999 V2000
   10.5257   45.6547   50.9132 C   0  0  0  0  0  1  0  0  0  0  0  0
    9.1537   45.0362   50.7643 C   0  0  0  0  0  0  0  0  0  0  0  0
    8.9273   43.9963   49.9902 N   0  0  0  0  0  0  0  0  0  0  0  0
    7.9753   43.4209   49.7700 C   0  0  0  0  0  0  0  0  0  0  0  0
    6.7191   44.3612   50.8376 S   0  0  0  0  0  0  0  0  0  0  0  0
    8.0717   45.5089   51.4144 C   0  0  0  0  0  0  0  0  0  0  0  0
    7.8319   46.5840   52.3339 C   0  0  0  0  0  0  0  0  0  0  0  0
    6.5202   46.8201   52.8320 N   0  0  0  0  0  0  0  0  0  0  0  0
    8.8223   47.3010   52.6767 O   0  0  0  0  0  0  0  0  0  0  0  0
    6.2646   47.8026   53.8564 C   0  0  0  0  0  0  0  0  0  0  0  0
    5.2749   47.4813   54.7571 C   0  0  0  0  0  3  0  0  0  0  0  0
    6.9842   48.9790   53.9021 C   0  0  0  0  0  3  0  0  0  0  0  0
    5.0119   48.4050   55.7464 C   0  0  0  0  0  3  0  0  0  0  0  0
    6.6819   49.8694   54.9118 C   0  0  0  0  0  3  0  0  0  0  0  0
    5.7010   49.5968   55.8387 C   0  0  0  0  0  3  0  0  0  0  0  0
    7.4655   42.3211   49.0194 N   0  0  0  0  0  0  0  0  0  0  0  0
    6.2293   41.7453   49.4341 C   0  0  0  0  0  2  0  0  0  0  0  0
    5.1035   42.2322   48.5438 C   0  0  0  0  0  3  0  0  0  0  0  0
    3.8850   42.5549   49.4062 C   0  0  0  0  0  2  0  0  0  0  0  0
    4.6176   41.2075   47.7336 O   0  0  0  0  0  0  0  0  0  0  0  0
    3.3384   41.1592   49.6961 C   0  0  0  0  0  2  0  0  0  0  0  0
    3.9884   40.3279   48.6107 C   0  0  0  0  0  2  0  0  0  0  0  0
  1  2  1  0
  2  3  1  0
  3  4  2  0
  4 16  1  0
  5  4  1  0
  6  2  2  0
  6  5  1  0
  7  9  2  0
  7  6  1  0
  8  7  1  0
 10 12  1  0
 10  8  1  0
 11 10  2  0
 13 15  2  0
 13 11  1  0
 14 12  2  0
 15 14  1  0
 16 17  1  0
 18 17  1  0
 18 19  1  0
 18 20  1  0
 19 21  1  0
 20 22  1  0
 21 22  1  0
M  RAD  8   1   2  11   2  12   2  13   2  14   2  15   2  17   3  18   2
M  RAD  3  19   3  21   3  22   3
M  END
>  <REMARK>  (1) 
 SMILES Cc1nc(NCC2CCCO2)sc1C(=O)Nc1ccccc1
 SMILES IDX 1 1 2 2 3 3 4 4 12 5 13 6 14 7 16 8 15 9 17 11 18 12 22 13
 SMILES IDX 19 14 21 15 20 16 5 17 6 19 7 20 8 21 11 22 9 23 10 24
 H PARENT 16 10 5 18

>  <TORSDO>  (1) 
F 5

$$$$
