/home/pchatterjee/Documents/git/vs_workflow/DiffDock/diffdock_run/pdbqt_scrubbed/Z48852930.pdbqt
     RDKit          3D

 22 24  0  0  1  0  0  0  0  0999 V2000
   10.5499   45.1542   51.1161 C   0  0  0  0  0  1  0  0  0  0  0  0
    9.1313   44.6587   50.9459 C   0  0  0  0  0  0  0  0  0  0  0  0
    8.8276   43.6345   50.1773 N   0  0  0  0  0  0  0  0  0  0  0  0
    7.8324   43.1438   49.9437 C   0  0  0  0  0  0  0  0  0  0  0  0
    6.6452   44.2040   50.9775 S   0  0  0  0  0  0  0  0  0  0  0  0
    8.0837   45.2331   51.5700 C   0  0  0  0  0  0  0  0  0  0  0  0
    7.9235   46.3354   52.4745 C   0  0  0  0  0  0  0  0  0  0  0  0
    6.6252   46.8402   52.7640 N   0  0  0  0  0  0  0  0  0  0  0  0
    8.9708   46.8306   52.9947 O   0  0  0  0  0  0  0  0  0  0  0  0
    6.4036   47.8010   53.8165 C   0  0  0  0  0  0  0  0  0  0  0  0
    5.4320   47.4684   54.7327 C   0  0  0  0  0  3  0  0  0  0  0  0
    7.1361   48.9691   53.8723 C   0  0  0  0  0  3  0  0  0  0  0  0
    5.2016   48.3713   55.7489 C   0  0  0  0  0  3  0  0  0  0  0  0
    6.8665   49.8386   54.9092 C   0  0  0  0  0  3  0  0  0  0  0  0
    5.9047   49.5539   55.8523 C   0  0  0  0  0  3  0  0  0  0  0  0
    7.2408   42.0854   49.1936 N   0  0  0  0  0  0  0  0  0  0  0  0
    6.2643   42.4267   48.2130 C   0  0  0  0  0  2  0  0  0  0  0  0
    4.8954   42.5303   48.8552 C   0  0  0  0  0  3  0  0  0  0  0  0
    4.7670   41.4615   49.9387 C   0  0  0  0  0  2  0  0  0  0  0  0
    3.8881   42.1593   47.9663 O   0  0  0  0  0  0  0  0  0  0  0  0
    4.5155   40.2089   49.1030 C   0  0  0  0  0  2  0  0  0  0  0  0
    4.0633   40.7905   47.7806 C   0  0  0  0  0  2  0  0  0  0  0  0
  1  2  1  0
  2  3  1  0
  3  4  2  0
  4 16  1  0
  5  4  1  0
  6  2  2  0
  6  5  1  0
  7  9  2  0
  7  6  1  0
  8  7  1  0
 10 12  1  0
 10  8  1  0
 11 10  2  0
 13 15  2  0
 13 11  1  0
 14 12  2  0
 15 14  1  0
 16 17  1  0
 18 17  1  0
 18 19  1  0
 18 20  1  0
 19 21  1  0
 20 22  1  0
 21 22  1  0
M  RAD  8   1   2  11   2  12   2  13   2  14   2  15   2  17   3  18   2
M  RAD  3  19   3  21   3  22   3
M  END
>  <REMARK>  (1) 
 SMILES Cc1nc(NCC2CCCO2)sc1C(=O)Nc1ccccc1
 SMILES IDX 1 1 2 2 3 3 4 4 12 5 13 6 14 7 16 8 15 9 17 11 18 12 22 13
 SMILES IDX 19 14 21 15 20 16 5 17 6 19 7 20 8 21 11 22 9 23 10 24
 H PARENT 16 10 5 18

>  <TORSDO>  (1) 
F 5

$$$$
