/home/pchatterjee/Documents/git/vs_workflow/DiffDock/diffdock_run/pdbqt_scrubbed/Z48852930.pdbqt
     RDKit          3D

 22 24  0  0  1  0  0  0  0  0999 V2000
   10.7316   45.4657   50.3108 C   0  0  0  0  0  1  0  0  0  0  0  0
    9.3278   44.9801   50.5948 C   0  0  0  0  0  0  0  0  0  0  0  0
    8.7901   43.9610   49.9590 N   0  0  0  0  0  0  0  0  0  0  0  0
    7.7684   43.4777   50.0496 C   0  0  0  0  0  0  0  0  0  0  0  0
    6.9747   44.5415   51.4063 S   0  0  0  0  0  0  0  0  0  0  0  0
    8.5341   45.5588   51.5179 C   0  0  0  0  0  0  0  0  0  0  0  0
    8.6748   46.6586   52.4287 C   0  0  0  0  0  0  0  0  0  0  0  0
    7.6787   46.9025   53.4148 N   0  0  0  0  0  0  0  0  0  0  0  0
    9.7071   47.3898   52.3180 O   0  0  0  0  0  0  0  0  0  0  0  0
    7.8406   47.9263   54.4177 C   0  0  0  0  0  0  0  0  0  0  0  0
    6.8255   48.8525   54.4936 C   0  0  0  0  0  3  0  0  0  0  0  0
    8.9539   47.9470   55.2326 C   0  0  0  0  0  3  0  0  0  0  0  0
    6.9574   49.8417   55.4451 C   0  0  0  0  0  3  0  0  0  0  0  0
    9.0374   48.9578   56.1680 C   0  0  0  0  0  3  0  0  0  0  0  0
    8.0495   49.9096   56.2856 C   0  0  0  0  0  3  0  0  0  0  0  0
    6.9629   42.4262   49.5219 N   0  0  0  0  0  0  0  0  0  0  0  0
    5.5482   42.5994   49.5320 C   0  0  0  0  0  2  0  0  0  0  0  0
    4.9504   42.0772   48.2409 C   0  0  0  0  0  3  0  0  0  0  0  0
    3.4552   42.3880   48.2179 C   0  0  0  0  0  2  0  0  0  0  0  0
    4.9537   40.6839   48.2068 O   0  0  0  0  0  0  0  0  0  0  0  0
    2.9064   41.3153   49.1554 C   0  0  0  0  0  2  0  0  0  0  0  0
    4.0306   40.3016   49.1766 C   0  0  0  0  0  2  0  0  0  0  0  0
  1  2  1  0
  2  3  1  0
  3  4  2  0
  4 16  1  0
  5  4  1  0
  6  2  2  0
  6  5  1  0
  7  9  2  0
  7  6  1  0
  8  7  1  0
 10 12  1  0
 10  8  1  0
 11 10  2  0
 13 15  2  0
 13 11  1  0
 14 12  2  0
 15 14  1  0
 16 17  1  0
 18 17  1  0
 18 19  1  0
 18 20  1  0
 19 21  1  0
 20 22  1  0
 21 22  1  0
M  RAD  8   1   2  11   2  12   2  13   2  14   2  15   2  17   3  18   2
M  RAD  3  19   3  21   3  22   3
M  END
>  <REMARK>  (1) 
 SMILES Cc1nc(NCC2CCCO2)sc1C(=O)Nc1ccccc1
 SMILES IDX 1 1 2 2 3 3 4 4 12 5 13 6 14 7 16 8 15 9 17 11 18 12 22 13
 SMILES IDX 19 14 21 15 20 16 5 17 6 19 7 20 8 21 11 22 9 23 10 24
 H PARENT 16 10 5 18

>  <TORSDO>  (1) 
F 5

$$$$
