/home/pchatterjee/Documents/git/vs_workflow/DiffDock/diffdock_run/pdbqt_scrubbed/Z48852930.pdbqt
     RDKit          3D

 22 24  0  0  1  0  0  0  0  0999 V2000
   10.6573   45.5755   50.8117 C   0  0  0  0  0  1  0  0  0  0  0  0
    9.2381   45.0538   50.7846 C   0  0  0  0  0  0  0  0  0  0  0  0
    8.8531   44.0938   49.9710 N   0  0  0  0  0  0  0  0  0  0  0  0
    7.8449   43.5956   49.8260 C   0  0  0  0  0  0  0  0  0  0  0  0
    6.7876   44.5219   51.1012 S   0  0  0  0  0  0  0  0  0  0  0  0
    8.2732   45.5374   51.5921 C   0  0  0  0  0  0  0  0  0  0  0  0
    8.2153   46.5488   52.6083 C   0  0  0  0  0  0  0  0  0  0  0  0
    6.9779   46.8607   53.2373 N   0  0  0  0  0  0  0  0  0  0  0  0
    9.2957   47.1413   52.9152 O   0  0  0  0  0  0  0  0  0  0  0  0
    6.8721   47.9090   54.2222 C   0  0  0  0  0  0  0  0  0  0  0  0
    5.7410   47.8791   55.0057 C   0  0  0  0  0  3  0  0  0  0  0  0
    7.8593   48.8652   54.3448 C   0  0  0  0  0  3  0  0  0  0  0  0
    5.6169   48.8713   55.9551 C   0  0  0  0  0  3  0  0  0  0  0  0
    7.6868   49.8358   55.3102 C   0  0  0  0  0  3  0  0  0  0  0  0
    6.5737   49.8516   56.1205 C   0  0  0  0  0  3  0  0  0  0  0  0
    7.1777   42.5911   49.0653 N   0  0  0  0  0  0  0  0  0  0  0  0
    5.7543   42.5441   49.1241 C   0  0  0  0  0  2  0  0  0  0  0  0
    5.1860   42.2459   47.7510 C   0  0  0  0  0  3  0  0  0  0  0  0
    3.6606   42.2723   47.8225 C   0  0  0  0  0  2  0  0  0  0  0  0
    5.4324   40.9267   47.3750 O   0  0  0  0  0  0  0  0  0  0  0  0
    3.3626   40.9238   48.4732 C   0  0  0  0  0  2  0  0  0  0  0  0
    4.6468   40.1596   48.2314 C   0  0  0  0  0  2  0  0  0  0  0  0
  1  2  1  0
  2  3  1  0
  3  4  2  0
  4 16  1  0
  5  4  1  0
  6  2  2  0
  6  5  1  0
  7  9  2  0
  7  6  1  0
  8  7  1  0
 10 12  1  0
 10  8  1  0
 11 10  2  0
 13 15  2  0
 13 11  1  0
 14 12  2  0
 15 14  1  0
 16 17  1  0
 18 17  1  0
 18 19  1  0
 18 20  1  0
 19 21  1  0
 20 22  1  0
 21 22  1  0
M  RAD  8   1   2  11   2  12   2  13   2  14   2  15   2  17   3  18   2
M  RAD  3  19   3  21   3  22   3
M  END
>  <REMARK>  (1) 
 SMILES Cc1nc(NCC2CCCO2)sc1C(=O)Nc1ccccc1
 SMILES IDX 1 1 2 2 3 3 4 4 12 5 13 6 14 7 16 8 15 9 17 11 18 12 22 13
 SMILES IDX 19 14 21 15 20 16 5 17 6 19 7 20 8 21 11 22 9 23 10 24
 H PARENT 16 10 5 18

>  <TORSDO>  (1) 
F 5

$$$$
