/home/pchatterjee/Documents/git/vs_workflow/DiffDock/diffdock_run/pdbqt_scrubbed/Z48852930.pdbqt
     RDKit          3D

 22 24  0  0  1  0  0  0  0  0999 V2000
   10.4916   45.6147   50.7060 C   0  0  0  0  0  1  0  0  0  0  0  0
    9.1373   44.9484   50.6103 C   0  0  0  0  0  0  0  0  0  0  0  0
    8.8886   43.9707   49.7652 N   0  0  0  0  0  0  0  0  0  0  0  0
    7.9451   43.3731   49.5694 C   0  0  0  0  0  0  0  0  0  0  0  0
    6.7456   44.1569   50.8140 S   0  0  0  0  0  0  0  0  0  0  0  0
    8.0951   45.3115   51.3841 C   0  0  0  0  0  0  0  0  0  0  0  0
    7.8902   46.2898   52.4137 C   0  0  0  0  0  0  0  0  0  0  0  0
    6.5768   46.5686   52.8842 N   0  0  0  0  0  0  0  0  0  0  0  0
    8.9125   46.8837   52.8770 O   0  0  0  0  0  0  0  0  0  0  0  0
    6.3339   47.5449   53.9175 C   0  0  0  0  0  0  0  0  0  0  0  0
    5.4403   47.1694   54.8946 C   0  0  0  0  0  3  0  0  0  0  0  0
    6.9730   48.7677   53.8983 C   0  0  0  0  0  3  0  0  0  0  0  0
    5.1914   48.0861   55.8940 C   0  0  0  0  0  3  0  0  0  0  0  0
    6.6889   49.6488   54.9214 C   0  0  0  0  0  3  0  0  0  0  0  0
    5.8027   49.3228   55.9233 C   0  0  0  0  0  3  0  0  0  0  0  0
    7.4185   42.3206   48.7645 N   0  0  0  0  0  0  0  0  0  0  0  0
    6.2157   41.6886   49.1950 C   0  0  0  0  0  2  0  0  0  0  0  0
    5.0243   42.2950   48.4808 C   0  0  0  0  0  3  0  0  0  0  0  0
    3.7507   41.9576   49.2532 C   0  0  0  0  0  2  0  0  0  0  0  0
    4.7922   41.6679   47.2579 O   0  0  0  0  0  0  0  0  0  0  0  0
    3.5242   40.5034   48.8473 C   0  0  0  0  0  2  0  0  0  0  0  0
    4.3607   40.3866   47.5909 C   0  0  0  0  0  2  0  0  0  0  0  0
  1  2  1  0
  2  3  1  0
  3  4  2  0
  4 16  1  0
  5  4  1  0
  6  2  2  0
  6  5  1  0
  7  9  2  0
  7  6  1  0
  8  7  1  0
 10 12  1  0
 10  8  1  0
 11 10  2  0
 13 15  2  0
 13 11  1  0
 14 12  2  0
 15 14  1  0
 16 17  1  0
 18 17  1  0
 18 19  1  0
 18 20  1  0
 19 21  1  0
 20 22  1  0
 21 22  1  0
M  RAD  8   1   2  11   2  12   2  13   2  14   2  15   2  17   3  18   2
M  RAD  3  19   3  21   3  22   3
M  END
>  <REMARK>  (1) 
 SMILES Cc1nc(NCC2CCCO2)sc1C(=O)Nc1ccccc1
 SMILES IDX 1 1 2 2 3 3 4 4 12 5 13 6 14 7 16 8 15 9 17 11 18 12 22 13
 SMILES IDX 19 14 21 15 20 16 5 17 6 19 7 20 8 21 11 22 9 23 10 24
 H PARENT 16 10 5 18

>  <TORSDO>  (1) 
F 5

$$$$
