/home/pchatterjee/Documents/git/vs_workflow/DiffDock/diffdock_run/pdbqt_scrubbed/Z3000762692.pdbqt
     RDKit          3D

 24 27  0  0  1  0  0  0  0  0999 V2000
    5.3218   45.9202   52.7191 C   0  0  0  0  0  0  0  0  0  0  0  0
    4.1223   45.3391   52.2921 C   0  0  0  0  0  3  0  0  0  0  0  0
    2.9434   45.6413   52.9803 C   0  0  0  0  0  3  0  0  0  0  0  0
    2.9540   46.4917   54.0564 C   0  0  0  0  0  3  0  0  0  0  0  0
    4.1382   47.0441   54.4509 C   0  0  0  0  0  3  0  0  0  0  0  0
    5.3178   46.7770   53.8071 C   0  0  0  0  0  0  0  0  0  0  0  0
    6.5797   45.6345   52.0311 C   0  0  0  0  0  0  0  0  0  0  0  0
    7.0156   44.2710   51.9524 N   0  0  0  0  0  0  0  0  0  0  0  0
    7.2919   46.5384   51.5071 O   0  0  0  0  0  0  0  0  0  0  0  0
    7.9544   43.8435   50.9363 C   0  0  0  0  0  3  0  0  0  0  0  0
    7.2697   43.1328   49.8251 C   0  0  0  0  0  0  0  0  0  0  0  0
    5.9407   42.8954   49.8212 N   0  0  0  0  0  0  0  0  0  0  0  0
    8.0308   42.7130   48.7795 N   0  0  0  0  0  0  0  0  0  0  0  0
    5.3418   42.2447   48.7942 C   0  0  0  0  0  3  0  0  0  0  0  0
    7.4529   42.0580   47.7373 C   0  0  0  0  0  3  0  0  0  0  0  0
    6.0926   41.8106   47.7251 C   0  0  0  0  0  3  0  0  0  0  0  0
    8.7784   45.0067   50.4440 C   0  0  0  0  0  3  0  0  0  0  0  0
    9.3303   45.8904   51.5831 C   0  0  0  0  0  2  0  0  0  0  0  0
   10.2203   45.0285   50.7238 C   0  0  0  0  0  2  0  0  0  0  0  0
    6.4684   47.3827   54.2779 O   0  0  0  0  0  0  0  0  0  0  0  0
    6.4414   48.4033   55.2576 C   0  0  0  0  0  2  0  0  0  0  0  0
    7.8319   48.8390   55.6634 C   0  0  0  0  0  3  0  0  0  0  0  0
    8.9333   48.8585   54.6867 C   0  0  0  0  0  2  0  0  0  0  0  0
    8.3809   50.1376   55.2189 C   0  0  0  0  0  2  0  0  0  0  0  0
  1  6  1  0
  1  2  2  0
  2  3  1  0
  3  4  2  0
  5  4  1  0
  6  5  2  0
  7  1  1  0
  8  7  1  0
  9  7  2  0
 10  8  1  0
 11 12  2  0
 11 10  1  0
 13 11  1  0
 14 12  1  0
 15 16  1  0
 15 13  2  0
 16 14  2  0
 17 10  1  0
 17 18  1  0
 19 17  1  0
 19 18  1  0
 20 21  1  0
 20  6  1  0
 22 23  1  0
 22 21  1  0
 24 22  1  0
 24 23  1  0
M  RAD  8   2   2   3   2   4   2   5   2  10   2  14   2  15   2  16   2
M  RAD  7  17   2  18   3  19   3  21   3  22   2  23   3  24   3
M  END
>  <REMARK>  (1) 
 SMILES O=C(NC(c1ncccn1)C1CC1)c1ccccc1OCC1CC1
 SMILES IDX 14 1 15 2 16 3 17 4 18 5 19 6 2 7 3 8 1 9 4 11 5 12 6 13
 SMILES IDX 10 14 7 15 9 16 8 17 11 18 12 19 13 20 20 21 21 22 22 23
 SMILES IDX 23 24 24 25
 H PARENT 3 10

>  <TORSDO>  (1) 
F 7

$$$$
