/home/pchatterjee/Documents/git/vs_workflow/DiffDock/diffdock_run/pdbqt_scrubbed/Z3000762692.pdbqt
     RDKit          3D

 24 27  0  0  1  0  0  0  0  0999 V2000
    4.2079   45.4651   52.4495 C   0  0  0  0  0  0  0  0  0  0  0  0
    2.8949   44.9909   52.3497 C   0  0  0  0  0  3  0  0  0  0  0  0
    1.8588   45.7521   52.8990 C   0  0  0  0  0  3  0  0  0  0  0  0
    2.1165   46.9441   53.5266 C   0  0  0  0  0  3  0  0  0  0  0  0
    3.4066   47.3824   53.6094 C   0  0  0  0  0  3  0  0  0  0  0  0
    4.4536   46.6703   53.0859 C   0  0  0  0  0  0  0  0  0  0  0  0
    5.3242   44.7044   51.8905 C   0  0  0  0  0  0  0  0  0  0  0  0
    5.3575   44.4907   50.4733 N   0  0  0  0  0  0  0  0  0  0  0  0
    6.2540   44.2316   52.6051 O   0  0  0  0  0  0  0  0  0  0  0  0
    6.4257   43.7326   49.8562 C   0  0  0  0  0  3  0  0  0  0  0  0
    7.7607   44.1997   50.3125 C   0  0  0  0  0  0  0  0  0  0  0  0
    7.9277   44.9693   51.4091 N   0  0  0  0  0  0  0  0  0  0  0  0
    8.8448   43.8257   49.5820 N   0  0  0  0  0  0  0  0  0  0  0  0
    9.1574   45.3814   51.8029 C   0  0  0  0  0  3  0  0  0  0  0  0
   10.0889   44.2265   49.9569 C   0  0  0  0  0  3  0  0  0  0  0  0
   10.2692   45.0148   51.0785 C   0  0  0  0  0  3  0  0  0  0  0  0
    6.2337   42.2539   50.0824 C   0  0  0  0  0  3  0  0  0  0  0  0
    4.9384   41.7018   49.4498 C   0  0  0  0  0  2  0  0  0  0  0  0
    6.3084   41.3410   48.9338 C   0  0  0  0  0  2  0  0  0  0  0  0
    5.7271   47.1930   53.2175 O   0  0  0  0  0  0  0  0  0  0  0  0
    6.0858   48.0574   54.2787 C   0  0  0  0  0  2  0  0  0  0  0  0
    7.5512   48.4306   54.2376 C   0  0  0  0  0  3  0  0  0  0  0  0
    8.5224   47.7801   55.1325 C   0  0  0  0  0  2  0  0  0  0  0  0
    8.5544   47.5072   53.6665 C   0  0  0  0  0  2  0  0  0  0  0  0
  1  6  1  0
  1  2  2  0
  2  3  1  0
  3  4  2  0
  5  4  1  0
  6  5  2  0
  7  1  1  0
  8  7  1  0
  9  7  2  0
 10  8  1  0
 11 12  2  0
 11 10  1  0
 13 11  1  0
 14 12  1  0
 15 16  1  0
 15 13  2  0
 16 14  2  0
 17 10  1  0
 17 18  1  0
 19 17  1  0
 19 18  1  0
 20 21  1  0
 20  6  1  0
 22 23  1  0
 22 21  1  0
 24 22  1  0
 24 23  1  0
M  RAD  8   2   2   3   2   4   2   5   2  10   2  14   2  15   2  16   2
M  RAD  7  17   2  18   3  19   3  21   3  22   2  23   3  24   3
M  END
>  <REMARK>  (1) 
 SMILES O=C(NC(c1ncccn1)C1CC1)c1ccccc1OCC1CC1
 SMILES IDX 14 1 15 2 16 3 17 4 18 5 19 6 2 7 3 8 1 9 4 11 5 12 6 13
 SMILES IDX 10 14 7 15 9 16 8 17 11 18 12 19 13 20 20 21 21 22 22 23
 SMILES IDX 23 24 24 25
 H PARENT 3 10

>  <TORSDO>  (1) 
F 7

$$$$
