/home/pchatterjee/Documents/git/vs_workflow/DiffDock/diffdock_run/pdbqt_scrubbed/Z3000762692.pdbqt
     RDKit          3D

 24 27  0  0  1  0  0  0  0  0999 V2000
    4.2296   45.4596   52.2188 C   0  0  0  0  0  0  0  0  0  0  0  0
    2.9325   45.0590   51.8780 C   0  0  0  0  0  3  0  0  0  0  0  0
    1.8472   45.7533   52.4209 C   0  0  0  0  0  3  0  0  0  0  0  0
    2.0419   46.8098   53.2736 C   0  0  0  0  0  3  0  0  0  0  0  0
    3.3178   47.1787   53.5887 C   0  0  0  0  0  3  0  0  0  0  0  0
    4.4114   46.5280   53.0809 C   0  0  0  0  0  0  0  0  0  0  0  0
    5.3956   44.7644   51.6763 C   0  0  0  0  0  0  0  0  0  0  0  0
    5.4254   44.4842   50.2707 N   0  0  0  0  0  0  0  0  0  0  0  0
    6.3712   44.4040   52.3954 O   0  0  0  0  0  0  0  0  0  0  0  0
    6.5406   43.7812   49.6717 C   0  0  0  0  0  3  0  0  0  0  0  0
    7.8412   44.2748   50.1945 C   0  0  0  0  0  0  0  0  0  0  0  0
    7.9455   44.9788   51.3418 N   0  0  0  0  0  0  0  0  0  0  0  0
    8.9593   43.9954   49.4730 N   0  0  0  0  0  0  0  0  0  0  0  0
    9.1450   45.4170   51.7957 C   0  0  0  0  0  3  0  0  0  0  0  0
   10.1743   44.4243   49.9078 C   0  0  0  0  0  3  0  0  0  0  0  0
   10.2903   45.1458   51.0816 C   0  0  0  0  0  3  0  0  0  0  0  0
    6.3889   42.2905   49.8427 C   0  0  0  0  0  3  0  0  0  0  0  0
    4.9184   41.8208   49.8350 C   0  0  0  0  0  2  0  0  0  0  0  0
    5.8787   41.4921   48.7201 C   0  0  0  0  0  2  0  0  0  0  0  0
    5.6660   46.9723   53.4564 O   0  0  0  0  0  0  0  0  0  0  0  0
    5.8698   48.2209   54.0900 C   0  0  0  0  0  2  0  0  0  0  0  0
    7.3135   48.4257   54.4922 C   0  0  0  0  0  3  0  0  0  0  0  0
    8.4035   47.7541   53.7654 C   0  0  0  0  0  2  0  0  0  0  0  0
    8.2281   49.2311   53.6555 C   0  0  0  0  0  2  0  0  0  0  0  0
  1  6  1  0
  1  2  2  0
  2  3  1  0
  3  4  2  0
  5  4  1  0
  6  5  2  0
  7  1  1  0
  8  7  1  0
  9  7  2  0
 10  8  1  0
 11 12  2  0
 11 10  1  0
 13 11  1  0
 14 12  1  0
 15 16  1  0
 15 13  2  0
 16 14  2  0
 17 10  1  0
 17 18  1  0
 19 17  1  0
 19 18  1  0
 20 21  1  0
 20  6  1  0
 22 23  1  0
 22 21  1  0
 24 22  1  0
 24 23  1  0
M  RAD  8   2   2   3   2   4   2   5   2  10   2  14   2  15   2  16   2
M  RAD  7  17   2  18   3  19   3  21   3  22   2  23   3  24   3
M  END
>  <REMARK>  (1) 
 SMILES O=C(NC(c1ncccn1)C1CC1)c1ccccc1OCC1CC1
 SMILES IDX 14 1 15 2 16 3 17 4 18 5 19 6 2 7 3 8 1 9 4 11 5 12 6 13
 SMILES IDX 10 14 7 15 9 16 8 17 11 18 12 19 13 20 20 21 21 22 22 23
 SMILES IDX 23 24 24 25
 H PARENT 3 10

>  <TORSDO>  (1) 
F 7

$$$$
