/home/pchatterjee/Documents/git/vs_workflow/DiffDock/diffdock_run/pdbqt_scrubbed/Z3000762692.pdbqt
     RDKit          3D

 24 27  0  0  1  0  0  0  0  0999 V2000
    4.3569   45.2856   52.2295 C   0  0  0  0  0  0  0  0  0  0  0  0
    3.0505   44.8726   51.9436 C   0  0  0  0  0  3  0  0  0  0  0  0
    1.9829   45.5488   52.5416 C   0  0  0  0  0  3  0  0  0  0  0  0
    2.2037   46.5997   53.3949 C   0  0  0  0  0  3  0  0  0  0  0  0
    3.4881   46.9811   53.6557 C   0  0  0  0  0  3  0  0  0  0  0  0
    4.5652   46.3482   53.0928 C   0  0  0  0  0  0  0  0  0  0  0  0
    5.5053   44.6096   51.6282 C   0  0  0  0  0  0  0  0  0  0  0  0
    5.4858   44.3654   50.2156 N   0  0  0  0  0  0  0  0  0  0  0  0
    6.5071   44.2351   52.3026 O   0  0  0  0  0  0  0  0  0  0  0  0
    6.5999   43.7204   49.5528 C   0  0  0  0  0  3  0  0  0  0  0  0
    7.9027   44.2028   50.0807 C   0  0  0  0  0  0  0  0  0  0  0  0
    9.0849   43.8657   49.5226 N   0  0  0  0  0  0  0  0  0  0  0  0
    7.8810   45.0153   51.1707 N   0  0  0  0  0  0  0  0  0  0  0  0
   10.2588   44.3202   50.0248 C   0  0  0  0  0  3  0  0  0  0  0  0
    9.0457   45.4841   51.6929 C   0  0  0  0  0  3  0  0  0  0  0  0
   10.2609   45.1441   51.1277 C   0  0  0  0  0  3  0  0  0  0  0  0
    6.4755   42.2195   49.6329 C   0  0  0  0  0  3  0  0  0  0  0  0
    5.1961   41.7500   50.3580 C   0  0  0  0  0  2  0  0  0  0  0  0
    5.4067   41.5512   48.8784 C   0  0  0  0  0  2  0  0  0  0  0  0
    5.8302   46.8041   53.4155 O   0  0  0  0  0  0  0  0  0  0  0  0
    6.0437   48.0133   54.1187 C   0  0  0  0  0  2  0  0  0  0  0  0
    7.4924   48.1923   54.5154 C   0  0  0  0  0  3  0  0  0  0  0  0
    8.5325   47.2801   54.0119 C   0  0  0  0  0  2  0  0  0  0  0  0
    8.4885   48.6964   53.5464 C   0  0  0  0  0  2  0  0  0  0  0  0
  1  6  1  0
  1  2  2  0
  2  3  1  0
  3  4  2  0
  5  4  1  0
  6  5  2  0
  7  1  1  0
  8  7  1  0
  9  7  2  0
 10  8  1  0
 11 12  2  0
 11 10  1  0
 13 11  1  0
 14 12  1  0
 15 16  1  0
 15 13  2  0
 16 14  2  0
 17 10  1  0
 17 18  1  0
 19 17  1  0
 19 18  1  0
 20 21  1  0
 20  6  1  0
 22 23  1  0
 22 21  1  0
 24 22  1  0
 24 23  1  0
M  RAD  8   2   2   3   2   4   2   5   2  10   2  14   2  15   2  16   2
M  RAD  7  17   2  18   3  19   3  21   3  22   2  23   3  24   3
M  END
>  <REMARK>  (1) 
 SMILES O=C(NC(c1ncccn1)C1CC1)c1ccccc1OCC1CC1
 SMILES IDX 14 1 15 2 16 3 17 4 18 5 19 6 2 7 3 8 1 9 4 11 5 12 6 13
 SMILES IDX 10 14 7 15 9 16 8 17 11 18 12 19 13 20 20 21 21 22 22 23
 SMILES IDX 23 24 24 25
 H PARENT 3 10

>  <TORSDO>  (1) 
F 7

$$$$
