/home/pchatterjee/Documents/git/vs_workflow/DiffDock/diffdock_run/pdbqt_scrubbed/Z3000762692.pdbqt
     RDKit          3D

 24 27  0  0  1  0  0  0  0  0999 V2000
    4.1075   45.4416   52.2350 C   0  0  0  0  0  0  0  0  0  0  0  0
    4.6706   46.7082   52.4281 C   0  0  0  0  0  3  0  0  0  0  0  0
    4.2202   47.4916   53.4949 C   0  0  0  0  0  3  0  0  0  0  0  0
    3.2435   47.0337   54.3421 C   0  0  0  0  0  3  0  0  0  0  0  0
    2.7120   45.7945   54.1301 C   0  0  0  0  0  3  0  0  0  0  0  0
    3.1222   44.9920   53.0980 C   0  0  0  0  0  0  0  0  0  0  0  0
    4.5461   44.5863   51.1335 C   0  0  0  0  0  0  0  0  0  0  0  0
    5.5224   45.1035   50.2199 N   0  0  0  0  0  0  0  0  0  0  0  0
    4.0997   43.4164   50.9581 O   0  0  0  0  0  0  0  0  0  0  0  0
    6.6398   44.2936   49.7819 C   0  0  0  0  0  3  0  0  0  0  0  0
    7.9087   44.7190   50.4281 C   0  0  0  0  0  0  0  0  0  0  0  0
    9.1217   44.4453   49.9023 N   0  0  0  0  0  0  0  0  0  0  0  0
    7.8224   45.4108   51.5954 N   0  0  0  0  0  0  0  0  0  0  0  0
   10.2635   44.8455   50.5130 C   0  0  0  0  0  3  0  0  0  0  0  0
    8.9539   45.8231   52.2270 C   0  0  0  0  0  3  0  0  0  0  0  0
   10.2001   45.5472   51.6957 C   0  0  0  0  0  3  0  0  0  0  0  0
    6.3567   42.8280   49.9971 C   0  0  0  0  0  3  0  0  0  0  0  0
    5.0091   42.3713   49.3982 C   0  0  0  0  0  2  0  0  0  0  0  0
    6.3361   41.9276   48.8365 C   0  0  0  0  0  2  0  0  0  0  0  0
    2.5265   43.7515   52.9613 O   0  0  0  0  0  0  0  0  0  0  0  0
    1.1478   43.5421   53.2007 C   0  0  0  0  0  2  0  0  0  0  0  0
    0.7339   42.1128   52.9284 C   0  0  0  0  0  3  0  0  0  0  0  0
   -0.2650   41.7990   51.8935 C   0  0  0  0  0  2  0  0  0  0  0  0
    1.1637   41.4194   51.6956 C   0  0  0  0  0  2  0  0  0  0  0  0
  1  6  1  0
  1  2  2  0
  2  3  1  0
  3  4  2  0
  5  4  1  0
  6  5  2  0
  7  1  1  0
  8  7  1  0
  9  7  2  0
 10  8  1  0
 11 12  2  0
 11 10  1  0
 13 11  1  0
 14 12  1  0
 15 16  1  0
 15 13  2  0
 16 14  2  0
 17 10  1  0
 17 18  1  0
 19 17  1  0
 19 18  1  0
 20 21  1  0
 20  6  1  0
 22 23  1  0
 22 21  1  0
 24 22  1  0
 24 23  1  0
M  RAD  8   2   2   3   2   4   2   5   2  10   2  14   2  15   2  16   2
M  RAD  7  17   2  18   3  19   3  21   3  22   2  23   3  24   3
M  END
>  <REMARK>  (1) 
 SMILES O=C(NC(c1ncccn1)C1CC1)c1ccccc1OCC1CC1
 SMILES IDX 14 1 15 2 16 3 17 4 18 5 19 6 2 7 3 8 1 9 4 11 5 12 6 13
 SMILES IDX 10 14 7 15 9 16 8 17 11 18 12 19 13 20 20 21 21 22 22 23
 SMILES IDX 23 24 24 25
 H PARENT 3 10

>  <TORSDO>  (1) 
F 7

$$$$
