/home/pchatterjee/Documents/git/vs_workflow/DiffDock/diffdock_run/pdbqt_scrubbed/Z3000762692.pdbqt
     RDKit          3D

 24 27  0  0  1  0  0  0  0  0999 V2000
    6.3748   46.6214   53.6094 C   0  0  0  0  0  0  0  0  0  0  0  0
    7.2363   47.7047   53.8167 C   0  0  0  0  0  3  0  0  0  0  0  0
    6.7516   48.8349   54.4820 C   0  0  0  0  0  3  0  0  0  0  0  0
    5.4553   48.8885   54.9270 C   0  0  0  0  0  3  0  0  0  0  0  0
    4.6372   47.8174   54.7111 C   0  0  0  0  0  3  0  0  0  0  0  0
    5.0685   46.6892   54.0640 C   0  0  0  0  0  0  0  0  0  0  0  0
    6.8363   45.4182   52.9189 C   0  0  0  0  0  0  0  0  0  0  0  0
    8.0657   45.4865   52.1848 N   0  0  0  0  0  0  0  0  0  0  0  0
    6.1960   44.3281   52.9451 O   0  0  0  0  0  0  0  0  0  0  0  0
    8.5643   44.3409   51.4529 C   0  0  0  0  0  3  0  0  0  0  0  0
    7.5316   43.7846   50.5404 C   0  0  0  0  0  0  0  0  0  0  0  0
    6.2209   43.7439   50.8618 N   0  0  0  0  0  0  0  0  0  0  0  0
    7.9444   43.3022   49.3381 N   0  0  0  0  0  0  0  0  0  0  0  0
    5.2999   43.2307   50.0102 C   0  0  0  0  0  3  0  0  0  0  0  0
    7.0392   42.7823   48.4666 C   0  0  0  0  0  3  0  0  0  0  0  0
    5.6951   42.7367   48.7875 C   0  0  0  0  0  3  0  0  0  0  0  0
    9.8399   44.6834   50.7250 C   0  0  0  0  0  3  0  0  0  0  0  0
    9.7481   45.9937   49.9140 C   0  0  0  0  0  2  0  0  0  0  0  0
   10.6068   45.8634   51.1464 C   0  0  0  0  0  2  0  0  0  0  0  0
    4.1686   45.6536   53.8907 O   0  0  0  0  0  0  0  0  0  0  0  0
    2.8160   45.8755   53.5394 C   0  0  0  0  0  2  0  0  0  0  0  0
    2.0522   44.5807   53.3717 C   0  0  0  0  0  3  0  0  0  0  0  0
    1.4433   44.2239   52.0797 C   0  0  0  0  0  2  0  0  0  0  0  0
    2.6184   43.4606   52.5905 C   0  0  0  0  0  2  0  0  0  0  0  0
  1  6  1  0
  1  2  2  0
  2  3  1  0
  3  4  2  0
  5  4  1  0
  6  5  2  0
  7  1  1  0
  8  7  1  0
  9  7  2  0
 10  8  1  0
 11 12  2  0
 11 10  1  0
 13 11  1  0
 14 12  1  0
 15 16  1  0
 15 13  2  0
 16 14  2  0
 17 10  1  0
 17 18  1  0
 19 17  1  0
 19 18  1  0
 20 21  1  0
 20  6  1  0
 22 23  1  0
 22 21  1  0
 24 22  1  0
 24 23  1  0
M  RAD  8   2   2   3   2   4   2   5   2  10   2  14   2  15   2  16   2
M  RAD  7  17   2  18   3  19   3  21   3  22   2  23   3  24   3
M  END
>  <REMARK>  (1) 
 SMILES O=C(NC(c1ncccn1)C1CC1)c1ccccc1OCC1CC1
 SMILES IDX 14 1 15 2 16 3 17 4 18 5 19 6 2 7 3 8 1 9 4 11 5 12 6 13
 SMILES IDX 10 14 7 15 9 16 8 17 11 18 12 19 13 20 20 21 21 22 22 23
 SMILES IDX 23 24 24 25
 H PARENT 3 10

>  <TORSDO>  (1) 
F 7

$$$$
