/home/pchatterjee/Documents/git/vs_workflow/DiffDock/diffdock_run/pdbqt_scrubbed/Z3000762692.pdbqt
     RDKit          3D

 24 27  0  0  1  0  0  0  0  0999 V2000
    4.4221   45.1120   52.3062 C   0  0  0  0  0  0  0  0  0  0  0  0
    3.1818   44.4863   52.1359 C   0  0  0  0  0  3  0  0  0  0  0  0
    2.0527   45.0514   52.7363 C   0  0  0  0  0  3  0  0  0  0  0  0
    2.1507   46.1991   53.4810 C   0  0  0  0  0  3  0  0  0  0  0  0
    3.3729   46.7880   53.6305 C   0  0  0  0  0  3  0  0  0  0  0  0
    4.5064   46.2702   53.0607 C   0  0  0  0  0  0  0  0  0  0  0  0
    5.6307   44.5585   51.6976 C   0  0  0  0  0  0  0  0  0  0  0  0
    5.5210   43.9471   50.4056 N   0  0  0  0  0  0  0  0  0  0  0  0
    6.7603   44.5989   52.2643 O   0  0  0  0  0  0  0  0  0  0  0  0
    6.6886   43.4363   49.7184 C   0  0  0  0  0  3  0  0  0  0  0  0
    7.9265   44.1344   50.1529 C   0  0  0  0  0  0  0  0  0  0  0  0
    9.1077   43.9877   49.5157 N   0  0  0  0  0  0  0  0  0  0  0  0
    7.8447   44.9493   51.2383 N   0  0  0  0  0  0  0  0  0  0  0  0
   10.2217   44.6367   49.9336 C   0  0  0  0  0  3  0  0  0  0  0  0
    8.9487   45.6112   51.6767 C   0  0  0  0  0  3  0  0  0  0  0  0
   10.1623   45.4668   51.0302 C   0  0  0  0  0  3  0  0  0  0  0  0
    6.7940   41.9405   49.8795 C   0  0  0  0  0  3  0  0  0  0  0  0
    5.5825   41.3170   50.6051 C   0  0  0  0  0  2  0  0  0  0  0  0
    5.8617   41.0764   49.1432 C   0  0  0  0  0  2  0  0  0  0  0  0
    5.7011   46.9355   53.2665 O   0  0  0  0  0  0  0  0  0  0  0  0
    5.8566   47.9217   54.2692 C   0  0  0  0  0  2  0  0  0  0  0  0
    7.3051   48.3121   54.4631 C   0  0  0  0  0  3  0  0  0  0  0  0
    8.2010   47.5004   55.3033 C   0  0  0  0  0  2  0  0  0  0  0  0
    8.3919   47.5397   53.8246 C   0  0  0  0  0  2  0  0  0  0  0  0
  1  6  1  0
  1  2  2  0
  2  3  1  0
  3  4  2  0
  5  4  1  0
  6  5  2  0
  7  1  1  0
  8  7  1  0
  9  7  2  0
 10  8  1  0
 11 12  2  0
 11 10  1  0
 13 11  1  0
 14 12  1  0
 15 16  1  0
 15 13  2  0
 16 14  2  0
 17 10  1  0
 17 18  1  0
 19 17  1  0
 19 18  1  0
 20 21  1  0
 20  6  1  0
 22 23  1  0
 22 21  1  0
 24 22  1  0
 24 23  1  0
M  RAD  8   2   2   3   2   4   2   5   2  10   2  14   2  15   2  16   2
M  RAD  7  17   2  18   3  19   3  21   3  22   2  23   3  24   3
M  END
>  <REMARK>  (1) 
 SMILES O=C(NC(c1ncccn1)C1CC1)c1ccccc1OCC1CC1
 SMILES IDX 14 1 15 2 16 3 17 4 18 5 19 6 2 7 3 8 1 9 4 11 5 12 6 13
 SMILES IDX 10 14 7 15 9 16 8 17 11 18 12 19 13 20 20 21 21 22 22 23
 SMILES IDX 23 24 24 25
 H PARENT 3 10

>  <TORSDO>  (1) 
F 7

$$$$
