/home/pchatterjee/Documents/git/vs_workflow/DiffDock/diffdock_run/pdbqt_scrubbed/Z3000762692.pdbqt
     RDKit          3D

 24 27  0  0  1  0  0  0  0  0999 V2000
    5.7937   46.2337   53.0217 C   0  0  0  0  0  0  0  0  0  0  0  0
    4.4914   45.8044   52.7417 C   0  0  0  0  0  3  0  0  0  0  0  0
    3.4165   46.6035   53.1428 C   0  0  0  0  0  3  0  0  0  0  0  0
    3.6265   47.7889   53.7999 C   0  0  0  0  0  3  0  0  0  0  0  0
    4.9072   48.1829   54.0599 C   0  0  0  0  0  3  0  0  0  0  0  0
    5.9911   47.4327   53.6859 C   0  0  0  0  0  0  0  0  0  0  0  0
    6.9493   45.4323   52.6220 C   0  0  0  0  0  0  0  0  0  0  0  0
    6.7136   44.1342   52.0610 N   0  0  0  0  0  0  0  0  0  0  0  0
    8.1396   45.8386   52.7519 O   0  0  0  0  0  0  0  0  0  0  0  0
    7.6358   43.5527   51.1081 C   0  0  0  0  0  3  0  0  0  0  0  0
    6.9179   42.9025   49.9809 C   0  0  0  0  0  0  0  0  0  0  0  0
    7.5137   42.6227   48.8022 N   0  0  0  0  0  0  0  0  0  0  0  0
    5.6088   42.5846   50.1649 N   0  0  0  0  0  0  0  0  0  0  0  0
    6.8350   42.0289   47.7905 C   0  0  0  0  0  3  0  0  0  0  0  0
    4.9066   41.9882   49.1647 C   0  0  0  0  0  3  0  0  0  0  0  0
    5.5087   41.6981   47.9543 C   0  0  0  0  0  3  0  0  0  0  0  0
    8.6315   44.5796   50.6302 C   0  0  0  0  0  3  0  0  0  0  0  0
    9.3350   44.1830   49.3146 C   0  0  0  0  0  2  0  0  0  0  0  0
    8.3518   45.3232   49.3945 C   0  0  0  0  0  2  0  0  0  0  0  0
    7.2517   47.9119   53.9919 O   0  0  0  0  0  0  0  0  0  0  0  0
    7.4588   48.9678   54.9107 C   0  0  0  0  0  2  0  0  0  0  0  0
    8.9287   49.2443   55.1374 C   0  0  0  0  0  3  0  0  0  0  0  0
    9.5999   48.8014   56.3705 C   0  0  0  0  0  2  0  0  0  0  0  0
    9.9260   48.1554   55.0664 C   0  0  0  0  0  2  0  0  0  0  0  0
  1  6  1  0
  1  2  2  0
  2  3  1  0
  3  4  2  0
  5  4  1  0
  6  5  2  0
  7  1  1  0
  8  7  1  0
  9  7  2  0
 10  8  1  0
 11 12  2  0
 11 10  1  0
 13 11  1  0
 14 12  1  0
 15 16  1  0
 15 13  2  0
 16 14  2  0
 17 10  1  0
 17 18  1  0
 19 17  1  0
 19 18  1  0
 20 21  1  0
 20  6  1  0
 22 23  1  0
 22 21  1  0
 24 22  1  0
 24 23  1  0
M  RAD  8   2   2   3   2   4   2   5   2  10   2  14   2  15   2  16   2
M  RAD  7  17   2  18   3  19   3  21   3  22   2  23   3  24   3
M  END
>  <REMARK>  (1) 
 SMILES O=C(NC(c1ncccn1)C1CC1)c1ccccc1OCC1CC1
 SMILES IDX 14 1 15 2 16 3 17 4 18 5 19 6 2 7 3 8 1 9 4 11 5 12 6 13
 SMILES IDX 10 14 7 15 9 16 8 17 11 18 12 19 13 20 20 21 21 22 22 23
 SMILES IDX 23 24 24 25
 H PARENT 3 10

>  <TORSDO>  (1) 
F 7

$$$$
