/home/pchatterjee/Documents/git/vs_workflow/DiffDock/diffdock_run/pdbqt_scrubbed/Z3000762692.pdbqt
     RDKit          3D

 24 27  0  0  1  0  0  0  0  0999 V2000
    5.8523   46.3055   52.9569 C   0  0  0  0  0  0  0  0  0  0  0  0
    4.5360   45.9806   52.6096 C   0  0  0  0  0  3  0  0  0  0  0  0
    3.4937   46.7752   53.0965 C   0  0  0  0  0  3  0  0  0  0  0  0
    3.7487   47.8563   53.9012 C   0  0  0  0  0  3  0  0  0  0  0  0
    5.0421   48.1499   54.2238 C   0  0  0  0  0  3  0  0  0  0  0  0
    6.0951   47.3998   53.7701 C   0  0  0  0  0  0  0  0  0  0  0  0
    6.9750   45.5044   52.4721 C   0  0  0  0  0  0  0  0  0  0  0  0
    6.6946   44.2224   51.8950 N   0  0  0  0  0  0  0  0  0  0  0  0
    8.1747   45.8974   52.5424 O   0  0  0  0  0  0  0  0  0  0  0  0
    7.6621   43.5552   51.0491 C   0  0  0  0  0  3  0  0  0  0  0  0
    7.0372   43.0488   49.7995 C   0  0  0  0  0  0  0  0  0  0  0  0
    7.7535   42.7575   48.6928 N   0  0  0  0  0  0  0  0  0  0  0  0
    5.6882   42.8791   49.7914 N   0  0  0  0  0  0  0  0  0  0  0  0
    7.1576   42.2968   47.5661 C   0  0  0  0  0  3  0  0  0  0  0  0
    5.0673   42.4181   48.6728 C   0  0  0  0  0  3  0  0  0  0  0  0
    5.7931   42.1173   47.5350 C   0  0  0  0  0  3  0  0  0  0  0  0
    8.8408   44.4539   50.7707 C   0  0  0  0  0  3  0  0  0  0  0  0
    8.5865   45.4591   49.6271 C   0  0  0  0  0  2  0  0  0  0  0  0
    8.7290   45.8887   51.0653 C   0  0  0  0  0  2  0  0  0  0  0  0
    7.3716   47.7731   54.1490 O   0  0  0  0  0  0  0  0  0  0  0  0
    7.6451   49.0134   54.7726 C   0  0  0  0  0  2  0  0  0  0  0  0
    9.1004   49.1446   55.1640 C   0  0  0  0  0  3  0  0  0  0  0  0
    9.9360   47.9517   55.3787 C   0  0  0  0  0  2  0  0  0  0  0  0
   10.1771   48.8334   54.2001 C   0  0  0  0  0  2  0  0  0  0  0  0
  1  6  1  0
  1  2  2  0
  2  3  1  0
  3  4  2  0
  5  4  1  0
  6  5  2  0
  7  1  1  0
  8  7  1  0
  9  7  2  0
 10  8  1  0
 11 12  2  0
 11 10  1  0
 13 11  1  0
 14 12  1  0
 15 16  1  0
 15 13  2  0
 16 14  2  0
 17 10  1  0
 17 18  1  0
 19 17  1  0
 19 18  1  0
 20 21  1  0
 20  6  1  0
 22 23  1  0
 22 21  1  0
 24 22  1  0
 24 23  1  0
M  RAD  8   2   2   3   2   4   2   5   2  10   2  14   2  15   2  16   2
M  RAD  7  17   2  18   3  19   3  21   3  22   2  23   3  24   3
M  END
>  <REMARK>  (1) 
 SMILES O=C(NC(c1ncccn1)C1CC1)c1ccccc1OCC1CC1
 SMILES IDX 14 1 15 2 16 3 17 4 18 5 19 6 2 7 3 8 1 9 4 11 5 12 6 13
 SMILES IDX 10 14 7 15 9 16 8 17 11 18 12 19 13 20 20 21 21 22 22 23
 SMILES IDX 23 24 24 25
 H PARENT 3 10

>  <TORSDO>  (1) 
F 7

$$$$
