/home/pchatterjee/Documents/git/vs_workflow/DiffDock/diffdock_run/pdbqt_scrubbed/Z3000762692.pdbqt
     RDKit          3D

 24 27  0  0  1  0  0  0  0  0999 V2000
    5.6113   46.1908   53.1981 C   0  0  0  0  0  0  0  0  0  0  0  0
    4.3178   45.8335   52.8005 C   0  0  0  0  0  3  0  0  0  0  0  0
    3.2485   46.6581   53.1625 C   0  0  0  0  0  3  0  0  0  0  0  0
    3.4553   47.7995   53.8946 C   0  0  0  0  0  3  0  0  0  0  0  0
    4.7273   48.1236   54.2687 C   0  0  0  0  0  3  0  0  0  0  0  0
    5.8055   47.3459   53.9368 C   0  0  0  0  0  0  0  0  0  0  0  0
    6.7609   45.3602   52.8433 C   0  0  0  0  0  0  0  0  0  0  0  0
    6.5154   44.0887   52.2284 N   0  0  0  0  0  0  0  0  0  0  0  0
    7.9543   45.7190   53.0571 O   0  0  0  0  0  0  0  0  0  0  0  0
    7.5127   43.4592   51.3883 C   0  0  0  0  0  3  0  0  0  0  0  0
    6.9099   42.9019   50.1495 C   0  0  0  0  0  0  0  0  0  0  0  0
    7.6522   42.4830   49.1025 N   0  0  0  0  0  0  0  0  0  0  0  0
    5.5541   42.8190   50.0884 N   0  0  0  0  0  0  0  0  0  0  0  0
    7.0761   41.9786   47.9843 C   0  0  0  0  0  3  0  0  0  0  0  0
    4.9527   42.3165   48.9772 C   0  0  0  0  0  3  0  0  0  0  0  0
    5.7051   41.8853   47.9003 C   0  0  0  0  0  3  0  0  0  0  0  0
    8.6424   44.4129   51.0906 C   0  0  0  0  0  3  0  0  0  0  0  0
    9.2420   44.2291   49.6800 C   0  0  0  0  0  2  0  0  0  0  0  0
    8.4490   45.4510   50.0693 C   0  0  0  0  0  2  0  0  0  0  0  0
    7.0574   47.7537   54.3597 O   0  0  0  0  0  0  0  0  0  0  0  0
    7.3475   49.1009   54.6807 C   0  0  0  0  0  2  0  0  0  0  0  0
    8.7681   49.2756   55.1704 C   0  0  0  0  0  3  0  0  0  0  0  0
    9.6277   48.1087   55.4288 C   0  0  0  0  0  2  0  0  0  0  0  0
    9.9168   49.0123   54.2780 C   0  0  0  0  0  2  0  0  0  0  0  0
  1  6  1  0
  1  2  2  0
  2  3  1  0
  3  4  2  0
  5  4  1  0
  6  5  2  0
  7  1  1  0
  8  7  1  0
  9  7  2  0
 10  8  1  0
 11 12  2  0
 11 10  1  0
 13 11  1  0
 14 12  1  0
 15 16  1  0
 15 13  2  0
 16 14  2  0
 17 10  1  0
 17 18  1  0
 19 17  1  0
 19 18  1  0
 20 21  1  0
 20  6  1  0
 22 23  1  0
 22 21  1  0
 24 22  1  0
 24 23  1  0
M  RAD  8   2   2   3   2   4   2   5   2  10   2  14   2  15   2  16   2
M  RAD  7  17   2  18   3  19   3  21   3  22   2  23   3  24   3
M  END
>  <REMARK>  (1) 
 SMILES O=C(NC(c1ncccn1)C1CC1)c1ccccc1OCC1CC1
 SMILES IDX 14 1 15 2 16 3 17 4 18 5 19 6 2 7 3 8 1 9 4 11 5 12 6 13
 SMILES IDX 10 14 7 15 9 16 8 17 11 18 12 19 13 20 20 21 21 22 22 23
 SMILES IDX 23 24 24 25
 H PARENT 3 10

>  <TORSDO>  (1) 
F 7

$$$$
