/home/pchatterjee/Documents/git/vs_workflow/DiffDock/diffdock_run/pdbqt_scrubbed/Z1822975975.pdbqt
     RDKit          3D

 28 31  0  0  1  0  0  0  0  0999 V2000
    1.6289   44.9783   53.1921 C   0  0  0  0  0  0  0  0  0  0  0  0
    2.7301   45.8062   53.1729 C   0  0  0  0  0  3  0  0  0  0  0  0
    3.8388   45.5509   52.3970 C   0  0  0  0  0  3  0  0  0  0  0  0
    3.9021   44.4188   51.5762 C   0  0  0  0  0  0  0  0  0  0  0  0
    2.8069   43.5991   51.5956 C   0  0  0  0  0  0  0  0  0  0  0  0
    1.6797   43.8608   52.3869 C   0  0  0  0  0  3  0  0  0  0  0  0
    0.5337   45.2748   53.9904 O   0  0  0  0  0  0  0  0  0  0  0  0
    0.4637   44.5713   55.2316 C   0  0  0  0  0  1  0  0  0  0  0  0
    2.7486   42.4638   50.8276 O   0  0  0  0  0  0  0  0  0  0  0  0
    1.5132   42.1571   50.1899 C   0  0  0  0  0  2  0  0  0  0  0  0
    1.5981   40.9992   49.2513 C   0  0  0  0  0  3  0  0  0  0  0  0
    0.5332   39.9857   49.1483 C   0  0  0  0  0  2  0  0  0  0  0  0
    1.9001   39.6179   49.6924 C   0  0  0  0  0  2  0  0  0  0  0  0
    5.0978   44.2411   50.8102 C   0  0  0  0  0  0  0  0  0  0  0  0
    5.4568   43.1280   50.0235 N   0  0  0  0  0  0  0  0  0  0  0  0
    5.9505   45.1950   50.8356 O   0  0  0  0  0  0  0  0  0  0  0  0
    6.7335   43.0377   49.3229 C   0  0  0  0  0  3  0  0  0  0  0  0
    7.2562   41.6310   49.2954 C   0  0  0  0  0  1  0  0  0  0  0  0
    7.7310   44.0105   49.8123 C   0  0  0  0  0  0  0  0  0  0  0  0
    7.5833   45.2253   50.3529 N   0  0  0  0  0  0  0  0  0  0  0  0
    9.0317   43.7765   49.7725 O   0  0  0  0  0  0  0  0  0  0  0  0
    8.7911   45.7355   50.6442 C   0  0  0  0  0  0  0  0  0  0  0  0
    9.6786   44.7940   50.2643 N   0  0  0  0  0  0  0  0  0  0  0  0
    9.0559   47.0718   51.2605 C   0  0  0  0  0  3  0  0  0  0  0  0
    8.1317   47.2484   52.4562 C   0  0  0  0  0  2  0  0  0  0  0  0
   10.4598   47.0815   51.8731 C   0  0  0  0  0  2  0  0  0  0  0  0
    8.7880   46.2956   53.4503 C   0  0  0  0  0  2  0  0  0  0  0  0
   10.2604   46.6240   53.3131 C   0  0  0  0  0  2  0  0  0  0  0  0
  1  6  2  0
  2  1  1  0
  2  3  2  0
  3  4  1  0
  4  5  2  0
  4 14  1  0
  5  9  1  0
  6  5  1  0
  7  1  1  0
  8  7  1  0
 10  9  1  0
 10 11  1  0
 11 13  1  0
 12 11  1  0
 12 13  1  0
 14 15  1  0
 15 17  1  0
 16 14  2  0
 17 18  1  0
 17 19  1  0
 19 20  2  0
 19 21  1  0
 20 22  1  0
 21 23  1  0
 22 23  2  0
 22 24  1  0
 24 26  1  0
 24 25  1  0
 25 27  1  0
 26 28  1  0
 28 27  1  0
M  RAD  8   2   2   3   2   6   2   8   2  10   3  11   2  12   3  13   3
M  RAD  7  17   2  18   2  24   2  25   3  26   3  27   3  28   3
M  END
>  <REMARK>  (1) 
 SMILES COc1ccc(C(=O)NC(C)c2nc(C3CCCC3)no2)c(OCC2CC2)c1
 SMILES IDX 3 1 4 2 5 3 6 4 22 5 28 6 2 7 1 8 23 9 24 10 25 11 26 12
 SMILES IDX 27 13 7 14 9 15 8 16 10 18 11 19 12 20 13 21 21 22 14 23
 SMILES IDX 20 24 15 25 16 26 19 27 17 28 18 29
 H PARENT 9 17

>  <TORSDO>  (1) 
F 8

$$$$
