/home/pchatterjee/Documents/git/vs_workflow/DiffDock/diffdock_run/pdbqt_scrubbed/Z1822975975.pdbqt
     RDKit          3D

 28 31  0  0  1  0  0  0  0  0999 V2000
    4.1997   46.4493   54.6635 C   0  0  0  0  0  0  0  0  0  0  0  0
    4.3994   45.5738   53.6185 C   0  0  0  0  0  3  0  0  0  0  0  0
    5.5858   45.5046   52.9228 C   0  0  0  0  0  3  0  0  0  0  0  0
    6.6649   46.3345   53.2488 C   0  0  0  0  0  0  0  0  0  0  0  0
    6.4649   47.2019   54.2877 C   0  0  0  0  0  0  0  0  0  0  0  0
    5.2559   47.2709   54.9939 C   0  0  0  0  0  3  0  0  0  0  0  0
    2.9867   46.4849   55.3358 O   0  0  0  0  0  0  0  0  0  0  0  0
    2.2852   45.2430   55.4134 C   0  0  0  0  0  1  0  0  0  0  0  0
    7.4514   48.0595   54.7044 O   0  0  0  0  0  0  0  0  0  0  0  0
    7.0908   49.0925   55.6154 C   0  0  0  0  0  2  0  0  0  0  0  0
    8.2554   49.8867   56.1073 C   0  0  0  0  0  3  0  0  0  0  0  0
    8.4643   51.2971   55.7343 C   0  0  0  0  0  2  0  0  0  0  0  0
    9.4239   50.2222   55.2613 C   0  0  0  0  0  2  0  0  0  0  0  0
    7.8534   46.1881   52.4653 C   0  0  0  0  0  0  0  0  0  0  0  0
    8.7497   45.1003   52.4590 N   0  0  0  0  0  0  0  0  0  0  0  0
    8.1506   47.1506   51.6759 O   0  0  0  0  0  0  0  0  0  0  0  0
    9.4932   44.6994   51.2692 C   0  0  0  0  0  3  0  0  0  0  0  0
   10.2867   45.8378   50.6974 C   0  0  0  0  0  1  0  0  0  0  0  0
    8.6504   44.0248   50.2615 C   0  0  0  0  0  0  0  0  0  0  0  0
    7.3239   44.0156   50.0881 N   0  0  0  0  0  0  0  0  0  0  0  0
    9.1561   43.2659   49.3043 O   0  0  0  0  0  0  0  0  0  0  0  0
    7.0165   43.2525   49.0264 C   0  0  0  0  0  0  0  0  0  0  0  0
    8.1966   42.7974   48.5589 N   0  0  0  0  0  0  0  0  0  0  0  0
    5.6414   42.9868   48.5029 C   0  0  0  0  0  3  0  0  0  0  0  0
    5.7067   41.8142   47.5355 C   0  0  0  0  0  2  0  0  0  0  0  0
    4.7517   42.4785   49.6414 C   0  0  0  0  0  2  0  0  0  0  0  0
    5.9095   40.6636   48.5162 C   0  0  0  0  0  2  0  0  0  0  0  0
    4.8970   40.9618   49.6028 C   0  0  0  0  0  2  0  0  0  0  0  0
  1  6  2  0
  2  1  1  0
  2  3  2  0
  3  4  1  0
  4  5  2  0
  4 14  1  0
  5  9  1  0
  6  5  1  0
  7  1  1  0
  8  7  1  0
 10  9  1  0
 10 11  1  0
 11 13  1  0
 12 11  1  0
 12 13  1  0
 14 15  1  0
 15 17  1  0
 16 14  2  0
 17 18  1  0
 17 19  1  0
 19 20  2  0
 19 21  1  0
 20 22  1  0
 21 23  1  0
 22 23  2  0
 22 24  1  0
 24 26  1  0
 24 25  1  0
 25 27  1  0
 26 28  1  0
 28 27  1  0
M  RAD  8   2   2   3   2   6   2   8   2  10   3  11   2  12   3  13   3
M  RAD  7  17   2  18   2  24   2  25   3  26   3  27   3  28   3
M  END
>  <REMARK>  (1) 
 SMILES COc1ccc(C(=O)NC(C)c2nc(C3CCCC3)no2)c(OCC2CC2)c1
 SMILES IDX 3 1 4 2 5 3 6 4 22 5 28 6 2 7 1 8 23 9 24 10 25 11 26 12
 SMILES IDX 27 13 7 14 9 15 8 16 10 18 11 19 12 20 13 21 21 22 14 23
 SMILES IDX 20 24 15 25 16 26 19 27 17 28 18 29
 H PARENT 9 17

>  <TORSDO>  (1) 
F 8

$$$$
