/home/pchatterjee/Documents/git/vs_workflow/DiffDock/diffdock_run/pdbqt_scrubbed/Z1822975975.pdbqt
     RDKit          3D

 28 31  0  0  1  0  0  0  0  0999 V2000
    1.1012   44.5181   52.9988 C   0  0  0  0  0  0  0  0  0  0  0  0
    1.9884   45.5681   52.9053 C   0  0  0  0  0  3  0  0  0  0  0  0
    3.1455   45.4999   52.1616 C   0  0  0  0  0  3  0  0  0  0  0  0
    3.4823   44.3408   51.4526 C   0  0  0  0  0  0  0  0  0  0  0  0
    2.5991   43.3001   51.5457 C   0  0  0  0  0  0  0  0  0  0  0  0
    1.4222   43.3718   52.3040 C   0  0  0  0  0  3  0  0  0  0  0  0
   -0.0525   44.6315   53.7609 O   0  0  0  0  0  0  0  0  0  0  0  0
    0.1462   44.7632   55.1693 C   0  0  0  0  0  1  0  0  0  0  0  0
    2.8169   42.1154   50.8891 O   0  0  0  0  0  0  0  0  0  0  0  0
    1.6984   41.4797   50.2792 C   0  0  0  0  0  2  0  0  0  0  0  0
    2.0593   40.2610   49.4961 C   0  0  0  0  0  3  0  0  0  0  0  0
    2.4233   40.3178   48.0691 C   0  0  0  0  0  2  0  0  0  0  0  0
    1.1482   39.6281   48.5146 C   0  0  0  0  0  2  0  0  0  0  0  0
    4.7064   44.3683   50.7119 C   0  0  0  0  0  0  0  0  0  0  0  0
    5.1842   43.4004   49.8056 N   0  0  0  0  0  0  0  0  0  0  0  0
    5.4669   45.3830   50.8850 O   0  0  0  0  0  0  0  0  0  0  0  0
    6.4901   43.5005   49.1623 C   0  0  0  0  0  3  0  0  0  0  0  0
    6.9719   42.1678   48.6680 C   0  0  0  0  0  1  0  0  0  0  0  0
    7.4910   44.1999   49.9929 C   0  0  0  0  0  0  0  0  0  0  0  0
    7.4474   44.6071   51.2665 N   0  0  0  0  0  0  0  0  0  0  0  0
    8.6803   44.5473   49.5316 O   0  0  0  0  0  0  0  0  0  0  0  0
    8.6079   45.2030   51.5859 C   0  0  0  0  0  0  0  0  0  0  0  0
    9.3592   45.1463   50.4677 N   0  0  0  0  0  0  0  0  0  0  0  0
    8.9566   45.7939   52.9144 C   0  0  0  0  0  3  0  0  0  0  0  0
   10.1585   46.7105   52.7393 C   0  0  0  0  0  2  0  0  0  0  0  0
    7.8352   46.7355   53.3639 C   0  0  0  0  0  2  0  0  0  0  0  0
    9.5018   47.8860   52.0226 C   0  0  0  0  0  2  0  0  0  0  0  0
    8.2320   48.1027   52.8197 C   0  0  0  0  0  2  0  0  0  0  0  0
  1  6  2  0
  2  1  1  0
  2  3  2  0
  3  4  1  0
  4  5  2  0
  4 14  1  0
  5  9  1  0
  6  5  1  0
  7  1  1  0
  8  7  1  0
 10  9  1  0
 10 11  1  0
 11 13  1  0
 12 11  1  0
 12 13  1  0
 14 15  1  0
 15 17  1  0
 16 14  2  0
 17 18  1  0
 17 19  1  0
 19 20  2  0
 19 21  1  0
 20 22  1  0
 21 23  1  0
 22 23  2  0
 22 24  1  0
 24 26  1  0
 24 25  1  0
 25 27  1  0
 26 28  1  0
 28 27  1  0
M  RAD  8   2   2   3   2   6   2   8   2  10   3  11   2  12   3  13   3
M  RAD  7  17   2  18   2  24   2  25   3  26   3  27   3  28   3
M  END
>  <REMARK>  (1) 
 SMILES COc1ccc(C(=O)NC(C)c2nc(C3CCCC3)no2)c(OCC2CC2)c1
 SMILES IDX 3 1 4 2 5 3 6 4 22 5 28 6 2 7 1 8 23 9 24 10 25 11 26 12
 SMILES IDX 27 13 7 14 9 15 8 16 10 18 11 19 12 20 13 21 21 22 14 23
 SMILES IDX 20 24 15 25 16 26 19 27 17 28 18 29
 H PARENT 9 17

>  <TORSDO>  (1) 
F 8

$$$$
