/home/pchatterjee/Documents/git/vs_workflow/DiffDock/diffdock_run/pdbqt_scrubbed/Z1822975975.pdbqt
     RDKit          3D

 28 31  0  0  1  0  0  0  0  0999 V2000
    1.0427   41.7919   51.6170 C   0  0  0  0  0  0  0  0  0  0  0  0
    1.7715   41.1020   50.6730 C   0  0  0  0  0  3  0  0  0  0  0  0
    2.9801   41.5531   50.1911 C   0  0  0  0  0  3  0  0  0  0  0  0
    3.5364   42.7549   50.6446 C   0  0  0  0  0  0  0  0  0  0  0  0
    2.8119   43.4374   51.5831 C   0  0  0  0  0  0  0  0  0  0  0  0
    1.5814   42.9764   52.0715 C   0  0  0  0  0  3  0  0  0  0  0  0
   -0.1714   41.2995   52.0733 O   0  0  0  0  0  0  0  0  0  0  0  0
   -0.5979   40.0669   51.4909 C   0  0  0  0  0  1  0  0  0  0  0  0
    3.2581   44.6235   52.1087 O   0  0  0  0  0  0  0  0  0  0  0  0
    2.5833   45.1379   53.2519 C   0  0  0  0  0  2  0  0  0  0  0  0
    3.2130   46.3706   53.8113 C   0  0  0  0  0  3  0  0  0  0  0  0
    4.6581   46.6387   53.7028 C   0  0  0  0  0  2  0  0  0  0  0  0
    4.0197   46.3774   55.0534 C   0  0  0  0  0  2  0  0  0  0  0  0
    4.7948   43.1384   50.0812 C   0  0  0  0  0  0  0  0  0  0  0  0
    5.7033   42.3251   49.3742 N   0  0  0  0  0  0  0  0  0  0  0  0
    5.1504   44.3586   50.2317 O   0  0  0  0  0  0  0  0  0  0  0  0
    6.8867   42.8603   48.7091 C   0  0  0  0  0  3  0  0  0  0  0  0
    7.7181   41.7743   48.0909 C   0  0  0  0  0  1  0  0  0  0  0  0
    7.6740   43.7650   49.5707 C   0  0  0  0  0  0  0  0  0  0  0  0
    7.4477   44.2186   50.8088 N   0  0  0  0  0  0  0  0  0  0  0  0
    8.8220   44.2949   49.1843 O   0  0  0  0  0  0  0  0  0  0  0  0
    8.4550   45.0253   51.1811 C   0  0  0  0  0  0  0  0  0  0  0  0
    9.3014   45.0488   50.1317 N   0  0  0  0  0  0  0  0  0  0  0  0
    8.5769   45.7317   52.4933 C   0  0  0  0  0  3  0  0  0  0  0  0
    9.7161   46.7363   52.4015 C   0  0  0  0  0  2  0  0  0  0  0  0
    7.3357   46.5993   52.7226 C   0  0  0  0  0  2  0  0  0  0  0  0
    9.0706   47.7993   51.5183 C   0  0  0  0  0  2  0  0  0  0  0  0
    7.6932   47.9567   52.1288 C   0  0  0  0  0  2  0  0  0  0  0  0
  1  6  2  0
  2  1  1  0
  2  3  2  0
  3  4  1  0
  4  5  2  0
  4 14  1  0
  5  9  1  0
  6  5  1  0
  7  1  1  0
  8  7  1  0
 10  9  1  0
 10 11  1  0
 11 13  1  0
 12 11  1  0
 12 13  1  0
 14 15  1  0
 15 17  1  0
 16 14  2  0
 17 18  1  0
 17 19  1  0
 19 20  2  0
 19 21  1  0
 20 22  1  0
 21 23  1  0
 22 23  2  0
 22 24  1  0
 24 26  1  0
 24 25  1  0
 25 27  1  0
 26 28  1  0
 28 27  1  0
M  RAD  8   2   2   3   2   6   2   8   2  10   3  11   2  12   3  13   3
M  RAD  7  17   2  18   2  24   2  25   3  26   3  27   3  28   3
M  END
>  <REMARK>  (1) 
 SMILES COc1ccc(C(=O)NC(C)c2nc(C3CCCC3)no2)c(OCC2CC2)c1
 SMILES IDX 3 1 4 2 5 3 6 4 22 5 28 6 2 7 1 8 23 9 24 10 25 11 26 12
 SMILES IDX 27 13 7 14 9 15 8 16 10 18 11 19 12 20 13 21 21 22 14 23
 SMILES IDX 20 24 15 25 16 26 19 27 17 28 18 29
 H PARENT 9 17

>  <TORSDO>  (1) 
F 8

$$$$
