/home/pchatterjee/Documents/git/vs_workflow/DiffDock/diffdock_run/pdbqt_scrubbed/Z1822975975.pdbqt
     RDKit          3D

 28 31  0  0  1  0  0  0  0  0999 V2000
    4.2007   41.0811   48.8442 C   0  0  0  0  0  0  0  0  0  0  0  0
    5.5335   41.0732   48.4953 C   0  0  0  0  0  3  0  0  0  0  0  0
    6.4265   42.0183   48.9489 C   0  0  0  0  0  3  0  0  0  0  0  0
    6.0166   43.0505   49.8009 C   0  0  0  0  0  0  0  0  0  0  0  0
    4.6931   43.0555   50.1473 C   0  0  0  0  0  0  0  0  0  0  0  0
    3.7858   42.0925   49.6836 C   0  0  0  0  0  3  0  0  0  0  0  0
    3.3366   40.1085   48.3623 O   0  0  0  0  0  0  0  0  0  0  0  0
    2.3030   39.6991   49.2592 C   0  0  0  0  0  1  0  0  0  0  0  0
    4.1752   44.0125   50.9828 O   0  0  0  0  0  0  0  0  0  0  0  0
    3.1186   43.6287   51.8565 C   0  0  0  0  0  2  0  0  0  0  0  0
    2.7444   44.6875   52.8403 C   0  0  0  0  0  3  0  0  0  0  0  0
    1.3435   45.0608   53.1050 C   0  0  0  0  0  2  0  0  0  0  0  0
    2.2926   46.0410   52.4430 C   0  0  0  0  0  2  0  0  0  0  0  0
    7.0191   43.9841   50.2151 C   0  0  0  0  0  0  0  0  0  0  0  0
    8.4092   43.9054   49.9964 N   0  0  0  0  0  0  0  0  0  0  0  0
    6.6213   45.0136   50.8628 O   0  0  0  0  0  0  0  0  0  0  0  0
    9.3384   44.9311   50.4584 C   0  0  0  0  0  3  0  0  0  0  0  0
   10.6500   44.3423   50.8893 C   0  0  0  0  0  1  0  0  0  0  0  0
    8.7509   45.8274   51.4744 C   0  0  0  0  0  0  0  0  0  0  0  0
    7.5305   46.3668   51.5713 N   0  0  0  0  0  0  0  0  0  0  0  0
    9.4304   46.2528   52.5258 O   0  0  0  0  0  0  0  0  0  0  0  0
    7.4615   47.1217   52.6801 C   0  0  0  0  0  0  0  0  0  0  0  0
    8.6774   47.0253   53.2551 N   0  0  0  0  0  0  0  0  0  0  0  0
    6.2683   47.8930   53.1461 C   0  0  0  0  0  3  0  0  0  0  0  0
    5.1317   46.9172   53.4132 C   0  0  0  0  0  2  0  0  0  0  0  0
    6.5613   48.5050   54.5193 C   0  0  0  0  0  2  0  0  0  0  0  0
    5.6258   46.2709   54.7034 C   0  0  0  0  0  2  0  0  0  0  0  0
    6.0893   47.4584   55.5217 C   0  0  0  0  0  2  0  0  0  0  0  0
  1  6  2  0
  2  1  1  0
  2  3  2  0
  3  4  1  0
  4  5  2  0
  4 14  1  0
  5  9  1  0
  6  5  1  0
  7  1  1  0
  8  7  1  0
 10  9  1  0
 10 11  1  0
 11 13  1  0
 12 11  1  0
 12 13  1  0
 14 15  1  0
 15 17  1  0
 16 14  2  0
 17 18  1  0
 17 19  1  0
 19 20  2  0
 19 21  1  0
 20 22  1  0
 21 23  1  0
 22 23  2  0
 22 24  1  0
 24 26  1  0
 24 25  1  0
 25 27  1  0
 26 28  1  0
 28 27  1  0
M  RAD  8   2   2   3   2   6   2   8   2  10   3  11   2  12   3  13   3
M  RAD  7  17   2  18   2  24   2  25   3  26   3  27   3  28   3
M  END
>  <REMARK>  (1) 
 SMILES COc1ccc(C(=O)NC(C)c2nc(C3CCCC3)no2)c(OCC2CC2)c1
 SMILES IDX 3 1 4 2 5 3 6 4 22 5 28 6 2 7 1 8 23 9 24 10 25 11 26 12
 SMILES IDX 27 13 7 14 9 15 8 16 10 18 11 19 12 20 13 21 21 22 14 23
 SMILES IDX 20 24 15 25 16 26 19 27 17 28 18 29
 H PARENT 9 17

>  <TORSDO>  (1) 
F 8

$$$$
