/home/pchatterjee/Documents/git/vs_workflow/DiffDock/diffdock_run/pdbqt_scrubbed/Z1822975975.pdbqt
     RDKit          3D

 28 31  0  0  1  0  0  0  0  0999 V2000
   13.1330   62.0051   87.2848 C   0  0  0  0  0  0  0  0  0  0  0  0
   11.9662   62.7291   87.3977 C   0  0  0  0  0  3  0  0  0  0  0  0
   11.2180   63.1086   86.3056 C   0  0  0  0  0  3  0  0  0  0  0  0
   11.6132   62.7716   85.0057 C   0  0  0  0  0  0  0  0  0  0  0  0
   12.7711   62.0514   84.8961 C   0  0  0  0  0  0  0  0  0  0  0  0
   13.5314   61.6668   86.0094 C   0  0  0  0  0  3  0  0  0  0  0  0
   13.8552   61.6451   88.4133 O   0  0  0  0  0  0  0  0  0  0  0  0
   13.6440   62.4577   89.5689 C   0  0  0  0  0  1  0  0  0  0  0  0
   13.2556   61.6561   83.6750 O   0  0  0  0  0  0  0  0  0  0  0  0
   14.4734   60.9190   83.6516 C   0  0  0  0  0  2  0  0  0  0  0  0
   14.9857   60.6577   82.2738 C   0  0  0  0  0  3  0  0  0  0  0  0
   16.2964   61.1483   81.8119 C   0  0  0  0  0  2  0  0  0  0  0  0
   15.0133   61.6877   81.2097 C   0  0  0  0  0  2  0  0  0  0  0  0
   10.7695   63.2143   83.9379 C   0  0  0  0  0  0  0  0  0  0  0  0
    9.3715   63.3918   83.9646 N   0  0  0  0  0  0  0  0  0  0  0  0
   11.3369   63.4809   82.8222 O   0  0  0  0  0  0  0  0  0  0  0  0
    8.6236   63.9255   82.8310 C   0  0  0  0  0  3  0  0  0  0  0  0
    8.7269   63.0363   81.6263 C   0  0  0  0  0  1  0  0  0  0  0  0
    8.9525   65.3342   82.5338 C   0  0  0  0  0  0  0  0  0  0  0  0
   10.1287   65.9690   82.4735 N   0  0  0  0  0  0  0  0  0  0  0  0
    8.0272   66.2384   82.2615 O   0  0  0  0  0  0  0  0  0  0  0  0
    9.9250   67.2602   82.1648 C   0  0  0  0  0  0  0  0  0  0  0  0
    8.5890   67.3919   82.0390 N   0  0  0  0  0  0  0  0  0  0  0  0
   10.9840   68.3033   82.0032 C   0  0  0  0  0  3  0  0  0  0  0  0
   12.2449   67.6388   81.4704 C   0  0  0  0  0  2  0  0  0  0  0  0
   10.5781   69.2737   80.8897 C   0  0  0  0  0  2  0  0  0  0  0  0
   11.8246   67.3753   80.0279 C   0  0  0  0  0  2  0  0  0  0  0  0
   11.1773   68.6825   79.6192 C   0  0  0  0  0  2  0  0  0  0  0  0
  1  6  2  0
  2  1  1  0
  2  3  2  0
  3  4  1  0
  4  5  2  0
  4 14  1  0
  5  9  1  0
  6  5  1  0
  7  1  1  0
  8  7  1  0
 10  9  1  0
 10 11  1  0
 11 13  1  0
 12 11  1  0
 12 13  1  0
 14 15  1  0
 15 17  1  0
 16 14  2  0
 17 18  1  0
 17 19  1  0
 19 20  2  0
 19 21  1  0
 20 22  1  0
 21 23  1  0
 22 23  2  0
 22 24  1  0
 24 26  1  0
 24 25  1  0
 25 27  1  0
 26 28  1  0
 28 27  1  0
M  RAD  8   2   2   3   2   6   2   8   2  10   3  11   2  12   3  13   3
M  RAD  7  17   2  18   2  24   2  25   3  26   3  27   3  28   3
M  END
>  <REMARK>  (1) 
 SMILES COc1ccc(C(=O)NC(C)c2nc(C3CCCC3)no2)c(OCC2CC2)c1
 SMILES IDX 3 1 4 2 5 3 6 4 22 5 28 6 2 7 1 8 23 9 24 10 25 11 26 12
 SMILES IDX 27 13 7 14 9 15 8 16 10 18 11 19 12 20 13 21 21 22 14 23
 SMILES IDX 20 24 15 25 16 26 19 27 17 28 18 29
 H PARENT 9 17

>  <TORSDO>  (1) 
F 8

$$$$
