/home/pchatterjee/Documents/git/vs_workflow/DiffDock/diffdock_run/pdbqt_scrubbed/Z1822975975.pdbqt
     RDKit          3D

 28 31  0  0  1  0  0  0  0  0999 V2000
    3.5862   46.7436   54.1601 C   0  0  0  0  0  0  0  0  0  0  0  0
    3.8822   45.4568   53.7668 C   0  0  0  0  0  3  0  0  0  0  0  0
    5.1504   45.0643   53.4007 C   0  0  0  0  0  3  0  0  0  0  0  0
    6.2185   45.9690   53.4104 C   0  0  0  0  0  0  0  0  0  0  0  0
    5.9226   47.2458   53.8028 C   0  0  0  0  0  0  0  0  0  0  0  0
    4.6305   47.6430   54.1744 C   0  0  0  0  0  3  0  0  0  0  0  0
    2.2930   47.0945   54.5199 O   0  0  0  0  0  0  0  0  0  0  0  0
    1.2979   46.0918   54.3086 C   0  0  0  0  0  1  0  0  0  0  0  0
    6.8878   48.2191   53.8601 O   0  0  0  0  0  0  0  0  0  0  0  0
    7.1314   48.8382   55.1188 C   0  0  0  0  0  2  0  0  0  0  0  0
    8.3793   49.6574   55.1485 C   0  0  0  0  0  3  0  0  0  0  0  0
    9.6961   49.1050   54.7841 C   0  0  0  0  0  2  0  0  0  0  0  0
    9.4055   49.5341   56.2094 C   0  0  0  0  0  2  0  0  0  0  0  0
    7.4970   45.4649   53.0109 C   0  0  0  0  0  0  0  0  0  0  0  0
    8.3624   45.9953   52.0330 N   0  0  0  0  0  0  0  0  0  0  0  0
    7.9142   44.4083   53.6003 O   0  0  0  0  0  0  0  0  0  0  0  0
    9.3235   45.1749   51.3035 C   0  0  0  0  0  3  0  0  0  0  0  0
   10.3070   46.0136   50.5405 C   0  0  0  0  0  1  0  0  0  0  0  0
    8.6826   44.1399   50.4676 C   0  0  0  0  0  0  0  0  0  0  0  0
    7.5701   43.4213   50.6566 N   0  0  0  0  0  0  0  0  0  0  0  0
    9.1818   43.7544   49.3057 O   0  0  0  0  0  0  0  0  0  0  0  0
    7.3873   42.5965   49.6124 C   0  0  0  0  0  0  0  0  0  0  0  0
    8.4226   42.8350   48.7821 N   0  0  0  0  0  0  0  0  0  0  0  0
    6.2592   41.6299   49.4421 C   0  0  0  0  0  3  0  0  0  0  0  0
    4.9719   42.2978   49.9027 C   0  0  0  0  0  2  0  0  0  0  0  0
    6.0293   41.3725   47.9498 C   0  0  0  0  0  2  0  0  0  0  0  0
    4.7434   43.2712   48.7507 C   0  0  0  0  0  2  0  0  0  0  0  0
    5.0014   42.4156   47.5276 C   0  0  0  0  0  2  0  0  0  0  0  0
  1  6  2  0
  2  1  1  0
  2  3  2  0
  3  4  1  0
  4  5  2  0
  4 14  1  0
  5  9  1  0
  6  5  1  0
  7  1  1  0
  8  7  1  0
 10  9  1  0
 10 11  1  0
 11 13  1  0
 12 11  1  0
 12 13  1  0
 14 15  1  0
 15 17  1  0
 16 14  2  0
 17 18  1  0
 17 19  1  0
 19 20  2  0
 19 21  1  0
 20 22  1  0
 21 23  1  0
 22 23  2  0
 22 24  1  0
 24 26  1  0
 24 25  1  0
 25 27  1  0
 26 28  1  0
 28 27  1  0
M  RAD  8   2   2   3   2   6   2   8   2  10   3  11   2  12   3  13   3
M  RAD  7  17   2  18   2  24   2  25   3  26   3  27   3  28   3
M  END
>  <REMARK>  (1) 
 SMILES COc1ccc(C(=O)NC(C)c2nc(C3CCCC3)no2)c(OCC2CC2)c1
 SMILES IDX 3 1 4 2 5 3 6 4 22 5 28 6 2 7 1 8 23 9 24 10 25 11 26 12
 SMILES IDX 27 13 7 14 9 15 8 16 10 18 11 19 12 20 13 21 21 22 14 23
 SMILES IDX 20 24 15 25 16 26 19 27 17 28 18 29
 H PARENT 9 17

>  <TORSDO>  (1) 
F 8

$$$$
