/home/pchatterjee/Documents/git/vs_workflow/DiffDock/diffdock_run/pdbqt_scrubbed/Z1822975975.pdbqt
     RDKit          3D

 28 31  0  0  1  0  0  0  0  0999 V2000
   10.2645   88.7657   69.1344 C   0  0  0  0  0  0  0  0  0  0  0  0
    9.7444   87.8077   69.9770 C   0  0  0  0  0  3  0  0  0  0  0  0
   10.3872   86.6179   70.2370 C   0  0  0  0  0  3  0  0  0  0  0  0
   11.6213   86.3188   69.6478 C   0  0  0  0  0  0  0  0  0  0  0  0
   12.1367   87.2722   68.8129 C   0  0  0  0  0  0  0  0  0  0  0  0
   11.4799   88.4824   68.5493 C   0  0  0  0  0  3  0  0  0  0  0  0
    9.5810   89.9503   68.9011 O   0  0  0  0  0  0  0  0  0  0  0  0
    8.4598   90.1959   69.7514 C   0  0  0  0  0  1  0  0  0  0  0  0
   13.3429   87.0964   68.1834 O   0  0  0  0  0  0  0  0  0  0  0  0
   13.9603   88.2398   67.6017 C   0  0  0  0  0  2  0  0  0  0  0  0
   15.2240   87.9276   66.8705 C   0  0  0  0  0  3  0  0  0  0  0  0
   16.4386   87.4545   67.5582 C   0  0  0  0  0  2  0  0  0  0  0  0
   16.4106   88.8139   66.8865 C   0  0  0  0  0  2  0  0  0  0  0  0
   12.2074   85.0561   69.9794 C   0  0  0  0  0  0  0  0  0  0  0  0
   12.1408   84.3750   71.2116 N   0  0  0  0  0  0  0  0  0  0  0  0
   12.8748   84.4667   69.0602 O   0  0  0  0  0  0  0  0  0  0  0  0
   12.9139   83.1687   71.4875 C   0  0  0  0  0  3  0  0  0  0  0  0
   13.0652   82.9281   72.9613 C   0  0  0  0  0  1  0  0  0  0  0  0
   14.2014   83.1299   70.7652 C   0  0  0  0  0  0  0  0  0  0  0  0
   15.0588   84.1050   70.4428 N   0  0  0  0  0  0  0  0  0  0  0  0
   14.7213   82.0077   70.2980 O   0  0  0  0  0  0  0  0  0  0  0  0
   16.1027   83.5818   69.7791 C   0  0  0  0  0  0  0  0  0  0  0  0
   15.8545   82.2584   69.7074 N   0  0  0  0  0  0  0  0  0  0  0  0
   17.2760   84.3405   69.2467 C   0  0  0  0  0  3  0  0  0  0  0  0
   18.1751   84.7275   70.4117 C   0  0  0  0  0  2  0  0  0  0  0  0
   18.1467   83.4057   68.4017 C   0  0  0  0  0  2  0  0  0  0  0  0
   18.7883   83.3709   70.7442 C   0  0  0  0  0  2  0  0  0  0  0  0
   19.1584   82.8230   69.3813 C   0  0  0  0  0  2  0  0  0  0  0  0
  1  6  2  0
  2  1  1  0
  2  3  2  0
  3  4  1  0
  4  5  2  0
  4 14  1  0
  5  9  1  0
  6  5  1  0
  7  1  1  0
  8  7  1  0
 10  9  1  0
 10 11  1  0
 11 13  1  0
 12 11  1  0
 12 13  1  0
 14 15  1  0
 15 17  1  0
 16 14  2  0
 17 18  1  0
 17 19  1  0
 19 20  2  0
 19 21  1  0
 20 22  1  0
 21 23  1  0
 22 23  2  0
 22 24  1  0
 24 26  1  0
 24 25  1  0
 25 27  1  0
 26 28  1  0
 28 27  1  0
M  RAD  8   2   2   3   2   6   2   8   2  10   3  11   2  12   3  13   3
M  RAD  7  17   2  18   2  24   2  25   3  26   3  27   3  28   3
M  END
>  <REMARK>  (1) 
 SMILES COc1ccc(C(=O)NC(C)c2nc(C3CCCC3)no2)c(OCC2CC2)c1
 SMILES IDX 3 1 4 2 5 3 6 4 22 5 28 6 2 7 1 8 23 9 24 10 25 11 26 12
 SMILES IDX 27 13 7 14 9 15 8 16 10 18 11 19 12 20 13 21 21 22 14 23
 SMILES IDX 20 24 15 25 16 26 19 27 17 28 18 29
 H PARENT 9 17

>  <TORSDO>  (1) 
F 8

$$$$
