/home/pchatterjee/Documents/git/vs_workflow/DiffDock/diffdock_run/pdbqt_scrubbed/Z1822975975.pdbqt
     RDKit          3D

 28 31  0  0  1  0  0  0  0  0999 V2000
    4.5654   41.2009   48.9286 C   0  0  0  0  0  0  0  0  0  0  0  0
    5.7594   41.1338   48.2443 C   0  0  0  0  0  3  0  0  0  0  0  0
    6.8122   41.9836   48.5008 C   0  0  0  0  0  3  0  0  0  0  0  0
    6.7189   42.9738   49.4859 C   0  0  0  0  0  0  0  0  0  0  0  0
    5.5331   43.0375   50.1651 C   0  0  0  0  0  0  0  0  0  0  0  0
    4.4625   42.1717   49.9016 C   0  0  0  0  0  3  0  0  0  0  0  0
    3.5309   40.3240   48.6357 O   0  0  0  0  0  0  0  0  0  0  0  0
    2.8441   40.5651   47.4067 C   0  0  0  0  0  1  0  0  0  0  0  0
    5.3256   43.9610   51.1582 O   0  0  0  0  0  0  0  0  0  0  0  0
    3.9941   44.4183   51.3709 C   0  0  0  0  0  2  0  0  0  0  0  0
    3.8639   45.3593   52.5227 C   0  0  0  0  0  3  0  0  0  0  0  0
    4.7991   45.3483   53.6617 C   0  0  0  0  0  2  0  0  0  0  0  0
    3.3477   44.9509   53.8496 C   0  0  0  0  0  2  0  0  0  0  0  0
    7.8662   43.8080   49.6752 C   0  0  0  0  0  0  0  0  0  0  0  0
    7.9083   45.0930   50.2528 N   0  0  0  0  0  0  0  0  0  0  0  0
    8.9913   43.3472   49.2756 O   0  0  0  0  0  0  0  0  0  0  0  0
    9.0970   45.6206   50.9143 C   0  0  0  0  0  3  0  0  0  0  0  0
   10.1549   44.5692   51.0821 C   0  0  0  0  0  1  0  0  0  0  0  0
    8.7907   46.3315   52.1720 C   0  0  0  0  0  0  0  0  0  0  0  0
    7.6260   46.5749   52.7835 N   0  0  0  0  0  0  0  0  0  0  0  0
    9.7292   46.8728   52.9297 O   0  0  0  0  0  0  0  0  0  0  0  0
    7.8497   47.2643   53.9143 C   0  0  0  0  0  0  0  0  0  0  0  0
    9.1862   47.4331   53.9723 N   0  0  0  0  0  0  0  0  0  0  0  0
    6.8084   47.7297   54.8811 C   0  0  0  0  0  3  0  0  0  0  0  0
    7.3580   48.9202   55.6531 C   0  0  0  0  0  2  0  0  0  0  0  0
    5.6176   48.3066   54.1095 C   0  0  0  0  0  2  0  0  0  0  0  0
    7.3018   49.9948   54.5720 C   0  0  0  0  0  2  0  0  0  0  0  0
    5.9301   49.7911   53.9624 C   0  0  0  0  0  2  0  0  0  0  0  0
  1  6  2  0
  2  1  1  0
  2  3  2  0
  3  4  1  0
  4  5  2  0
  4 14  1  0
  5  9  1  0
  6  5  1  0
  7  1  1  0
  8  7  1  0
 10  9  1  0
 10 11  1  0
 11 13  1  0
 12 11  1  0
 12 13  1  0
 14 15  1  0
 15 17  1  0
 16 14  2  0
 17 18  1  0
 17 19  1  0
 19 20  2  0
 19 21  1  0
 20 22  1  0
 21 23  1  0
 22 23  2  0
 22 24  1  0
 24 26  1  0
 24 25  1  0
 25 27  1  0
 26 28  1  0
 28 27  1  0
M  RAD  8   2   2   3   2   6   2   8   2  10   3  11   2  12   3  13   3
M  RAD  7  17   2  18   2  24   2  25   3  26   3  27   3  28   3
M  END
>  <REMARK>  (1) 
 SMILES COc1ccc(C(=O)NC(C)c2nc(C3CCCC3)no2)c(OCC2CC2)c1
 SMILES IDX 3 1 4 2 5 3 6 4 22 5 28 6 2 7 1 8 23 9 24 10 25 11 26 12
 SMILES IDX 27 13 7 14 9 15 8 16 10 18 11 19 12 20 13 21 21 22 14 23
 SMILES IDX 20 24 15 25 16 26 19 27 17 28 18 29
 H PARENT 9 17

>  <TORSDO>  (1) 
F 8

$$$$
