/home/pchatterjee/Documents/git/vs_workflow/DiffDock/diffdock_run/pdbqt_scrubbed/Z1822975975.pdbqt
     RDKit          3D

 28 31  0  0  1  0  0  0  0  0999 V2000
    3.3710   46.6857   53.9364 C   0  0  0  0  0  0  0  0  0  0  0  0
    3.6842   45.4192   53.4935 C   0  0  0  0  0  3  0  0  0  0  0  0
    4.9659   45.0451   53.1564 C   0  0  0  0  0  3  0  0  0  0  0  0
    6.0310   45.9486   53.2491 C   0  0  0  0  0  0  0  0  0  0  0  0
    5.7181   47.2051   53.6907 C   0  0  0  0  0  0  0  0  0  0  0  0
    4.4122   47.5837   54.0324 C   0  0  0  0  0  3  0  0  0  0  0  0
    2.0647   47.0186   54.2642 O   0  0  0  0  0  0  0  0  0  0  0  0
    1.0549   46.1591   53.7333 C   0  0  0  0  0  1  0  0  0  0  0  0
    6.6784   48.1748   53.8302 O   0  0  0  0  0  0  0  0  0  0  0  0
    6.9905   48.6144   55.1479 C   0  0  0  0  0  2  0  0  0  0  0  0
    8.2333   49.4383   55.2227 C   0  0  0  0  0  3  0  0  0  0  0  0
    9.5803   48.8410   55.1934 C   0  0  0  0  0  2  0  0  0  0  0  0
    9.0699   49.5357   56.4412 C   0  0  0  0  0  2  0  0  0  0  0  0
    7.3244   45.4646   52.8738 C   0  0  0  0  0  0  0  0  0  0  0  0
    8.2867   46.1147   52.0750 N   0  0  0  0  0  0  0  0  0  0  0  0
    7.6583   44.3066   53.3047 O   0  0  0  0  0  0  0  0  0  0  0  0
    9.2688   45.3881   51.2772 C   0  0  0  0  0  3  0  0  0  0  0  0
   10.1185   46.3157   50.4584 C   0  0  0  0  0  1  0  0  0  0  0  0
    8.6718   44.3003   50.4764 C   0  0  0  0  0  0  0  0  0  0  0  0
    7.6837   43.4428   50.7558 N   0  0  0  0  0  0  0  0  0  0  0  0
    9.0837   44.0082   49.2546 O   0  0  0  0  0  0  0  0  0  0  0  0
    7.4898   42.6263   49.7072 C   0  0  0  0  0  0  0  0  0  0  0  0
    8.3902   43.0130   48.7810 N   0  0  0  0  0  0  0  0  0  0  0  0
    6.4772   41.5294   49.6221 C   0  0  0  0  0  3  0  0  0  0  0  0
    5.1384   42.0637   50.1091 C   0  0  0  0  0  2  0  0  0  0  0  0
    6.2245   41.1817   48.1520 C   0  0  0  0  0  2  0  0  0  0  0  0
    4.7553   42.9526   48.9302 C   0  0  0  0  0  2  0  0  0  0  0  0
    5.0667   42.0795   47.7321 C   0  0  0  0  0  2  0  0  0  0  0  0
  1  6  2  0
  2  1  1  0
  2  3  2  0
  3  4  1  0
  4  5  2  0
  4 14  1  0
  5  9  1  0
  6  5  1  0
  7  1  1  0
  8  7  1  0
 10  9  1  0
 10 11  1  0
 11 13  1  0
 12 11  1  0
 12 13  1  0
 14 15  1  0
 15 17  1  0
 16 14  2  0
 17 18  1  0
 17 19  1  0
 19 20  2  0
 19 21  1  0
 20 22  1  0
 21 23  1  0
 22 23  2  0
 22 24  1  0
 24 26  1  0
 24 25  1  0
 25 27  1  0
 26 28  1  0
 28 27  1  0
M  RAD  8   2   2   3   2   6   2   8   2  10   3  11   2  12   3  13   3
M  RAD  7  17   2  18   2  24   2  25   3  26   3  27   3  28   3
M  END
>  <REMARK>  (1) 
 SMILES COc1ccc(C(=O)NC(C)c2nc(C3CCCC3)no2)c(OCC2CC2)c1
 SMILES IDX 3 1 4 2 5 3 6 4 22 5 28 6 2 7 1 8 23 9 24 10 25 11 26 12
 SMILES IDX 27 13 7 14 9 15 8 16 10 18 11 19 12 20 13 21 21 22 14 23
 SMILES IDX 20 24 15 25 16 26 19 27 17 28 18 29
 H PARENT 9 17

>  <TORSDO>  (1) 
F 8

$$$$
