/home/pchatterjee/Documents/git/vs_workflow/DiffDock/diffdock_run/pdbqt_scrubbed/Z25935093.pdbqt
     RDKit          3D

 27 30  0  0  0  0  0  0  0  0999 V2000
   14.7414   87.3105   67.4721 N   0  0  0  0  0  0  0  0  0  0  0  0
   13.8776   86.6699   68.2811 C   0  0  0  0  0  0  0  0  0  0  0  0
   12.6547   87.1801   68.1130 N   0  0  0  0  0  0  0  0  0  0  0  0
   12.7391   88.1561   67.1874 C   0  0  0  0  0  0  0  0  0  0  0  0
   11.7681   88.9629   66.6816 C   0  0  0  0  0  3  0  0  0  0  0  0
   12.0843   89.9041   65.7304 C   0  0  0  0  0  3  0  0  0  0  0  0
   13.3870   90.0111   65.3066 C   0  0  0  0  0  3  0  0  0  0  0  0
   14.3563   89.1844   65.8312 C   0  0  0  0  0  3  0  0  0  0  0  0
   14.0519   88.2391   66.7832 C   0  0  0  0  0  0  0  0  0  0  0  0
   16.1820   87.0862   67.3208 C   0  0  0  0  0  2  0  0  0  0  0  0
   16.9173   87.5845   68.5142 C   0  0  0  0  0  0  0  0  0  0  0  0
   18.3130   87.3498   68.6116 N   0  0  0  0  0  0  0  0  0  0  0  0
   16.2860   88.2029   69.4107 O   0  0  0  0  0  0  0  0  0  0  0  0
   18.9409   86.2123   67.9720 C   0  0  0  0  0  3  0  0  0  0  0  0
   18.1923   84.9217   68.1667 C   0  0  0  0  0  2  0  0  0  0  0  0
   20.3931   86.0643   68.2785 C   0  0  0  0  0  2  0  0  0  0  0  0
   18.5004   84.4022   69.5688 C   0  0  0  0  0  2  0  0  0  0  0  0
   20.6965   84.5905   68.4264 C   0  0  0  0  0  2  0  0  0  0  0  0
   19.9870   84.0463   69.6378 C   0  0  0  0  0  2  0  0  0  0  0  0
   14.2202   85.6134   69.1750 N   0  0  0  0  0  0  0  0  0  0  0  0
   13.2284   84.7400   69.7785 C   0  0  0  0  0  2  0  0  0  0  0  0
   13.9666   83.8932   70.7673 C   0  0  0  0  0  0  0  0  0  0  0  0
   14.0938   84.2709   72.0897 C   0  0  0  0  0  3  0  0  0  0  0  0
   14.5080   82.7197   70.2774 C   0  0  0  0  0  3  0  0  0  0  0  0
   14.7782   83.4534   72.9353 C   0  0  0  0  0  3  0  0  0  0  0  0
   15.1956   81.9141   71.1615 C   0  0  0  0  0  3  0  0  0  0  0  0
   15.3329   82.2709   72.4767 C   0  0  0  0  0  3  0  0  0  0  0  0
  1  9  1  0
  1 10  1  0
  2  1  1  0
  3  2  2  0
  3  4  1  0
  4  5  2  0
  4  9  1  0
  5  6  1  0
  6  7  2  0
  8  7  1  0
  9  8  2  0
 10 11  1  0
 11 13  2  0
 12 14  1  0
 12 11  1  0
 14 15  1  0
 16 14  1  0
 17 15  1  0
 18 19  1  0
 18 16  1  0
 19 17  1  0
 20  2  1  0
 21 20  1  0
 22 21  1  0
 23 22  2  0
 24 22  1  0
 25 23  1  0
 26 24  2  0
 27 25  2  0
 27 26  1  0
M  RAD  8   5   2   6   2   7   2   8   2  10   3  14   2  15   3  16   3
M  RAD  8  17   3  18   3  19   3  21   3  23   2  24   2  25   2  26   2
M  RAD  1  27   2
M  END
>  <REMARK>  (1) 
 SMILES O=C(Cn1c(NCc2ccccc2)nc2ccccc21)NC1CCCCC1
 SMILES IDX 4 1 5 2 14 3 15 4 16 5 17 6 18 7 19 8 20 9 3 10 2 11 21 12
 SMILES IDX 1 13 22 15 23 16 27 17 24 18 26 19 25 20 6 21 7 23 8 24 9 25
 SMILES IDX 13 26 10 27 12 28 11 29
 H PARENT 21 14 6 22

>  <TORSDO>  (1) 
F 6

$$$$
