/home/pchatterjee/Documents/git/vs_workflow/DiffDock/diffdock_run/pdbqt_scrubbed/Z25935093.pdbqt
     RDKit          3D

 27 30  0  0  0  0  0  0  0  0999 V2000
    7.1860   44.7033   50.4790 N   0  0  0  0  0  0  0  0  0  0  0  0
    7.8654   43.6410   50.0090 C   0  0  0  0  0  0  0  0  0  0  0  0
    9.1691   43.8122   50.2438 N   0  0  0  0  0  0  0  0  0  0  0  0
    9.3231   44.9956   50.8699 C   0  0  0  0  0  0  0  0  0  0  0  0
   10.4552   45.6063   51.3116 C   0  0  0  0  0  3  0  0  0  0  0  0
   10.3770   46.8306   51.9326 C   0  0  0  0  0  3  0  0  0  0  0  0
    9.1452   47.4172   52.0957 C   0  0  0  0  0  3  0  0  0  0  0  0
    8.0100   46.7824   51.6414 C   0  0  0  0  0  3  0  0  0  0  0  0
    8.0757   45.5575   51.0186 C   0  0  0  0  0  0  0  0  0  0  0  0
    5.7411   44.9471   50.4418 C   0  0  0  0  0  2  0  0  0  0  0  0
    5.1427   44.7524   51.7898 C   0  0  0  0  0  0  0  0  0  0  0  0
    3.7578   45.0000   51.9715 N   0  0  0  0  0  0  0  0  0  0  0  0
    5.8773   44.3725   52.7389 O   0  0  0  0  0  0  0  0  0  0  0  0
    3.0679   44.6163   53.1856 C   0  0  0  0  0  3  0  0  0  0  0  0
    1.6169   45.0140   53.2063 C   0  0  0  0  0  2  0  0  0  0  0  0
    3.7712   45.0141   54.4393 C   0  0  0  0  0  2  0  0  0  0  0  0
    1.5382   46.5019   53.5392 C   0  0  0  0  0  2  0  0  0  0  0  0
    2.7310   45.4507   55.4460 C   0  0  0  0  0  2  0  0  0  0  0  0
    2.0560   46.7075   54.9644 C   0  0  0  0  0  2  0  0  0  0  0  0
    7.2798   42.5131   49.3628 N   0  0  0  0  0  0  0  0  0  0  0  0
    6.7615   42.5640   48.0065 C   0  0  0  0  0  2  0  0  0  0  0  0
    5.6283   41.5877   47.9573 C   0  0  0  0  0  0  0  0  0  0  0  0
    5.3937   40.8085   46.8415 C   0  0  0  0  0  3  0  0  0  0  0  0
    4.8386   41.5162   49.0894 C   0  0  0  0  0  3  0  0  0  0  0  0
    4.3453   39.9410   46.8644 C   0  0  0  0  0  3  0  0  0  0  0  0
    3.7844   40.6266   49.0791 C   0  0  0  0  0  3  0  0  0  0  0  0
    3.5349   39.8449   47.9825 C   0  0  0  0  0  3  0  0  0  0  0  0
  1  9  1  0
  1 10  1  0
  2  1  1  0
  3  2  2  0
  3  4  1  0
  4  5  2  0
  4  9  1  0
  5  6  1  0
  6  7  2  0
  8  7  1  0
  9  8  2  0
 10 11  1  0
 11 13  2  0
 12 14  1  0
 12 11  1  0
 14 15  1  0
 16 14  1  0
 17 15  1  0
 18 19  1  0
 18 16  1  0
 19 17  1  0
 20  2  1  0
 21 20  1  0
 22 21  1  0
 23 22  2  0
 24 22  1  0
 25 23  1  0
 26 24  2  0
 27 25  2  0
 27 26  1  0
M  RAD  8   5   2   6   2   7   2   8   2  10   3  14   2  15   3  16   3
M  RAD  8  17   3  18   3  19   3  21   3  23   2  24   2  25   2  26   2
M  RAD  1  27   2
M  END
>  <REMARK>  (1) 
 SMILES O=C(Cn1c(NCc2ccccc2)nc2ccccc21)NC1CCCCC1
 SMILES IDX 4 1 5 2 14 3 15 4 16 5 17 6 18 7 19 8 20 9 3 10 2 11 21 12
 SMILES IDX 1 13 22 15 23 16 27 17 24 18 26 19 25 20 6 21 7 23 8 24 9 25
 SMILES IDX 13 26 10 27 12 28 11 29
 H PARENT 21 14 6 22

>  <TORSDO>  (1) 
F 6

$$$$
