/home/pchatterjee/Documents/git/vs_workflow/DiffDock/diffdock_run/pdbqt_scrubbed/Z25935093.pdbqt
     RDKit          3D

 27 30  0  0  0  0  0  0  0  0999 V2000
   11.1720   65.8979   82.9735 N   0  0  0  0  0  0  0  0  0  0  0  0
   12.4424   65.4750   82.8389 C   0  0  0  0  0  0  0  0  0  0  0  0
   13.0845   66.2732   81.9817 N   0  0  0  0  0  0  0  0  0  0  0  0
   12.2149   67.2149   81.5652 C   0  0  0  0  0  0  0  0  0  0  0  0
   12.3968   68.2446   80.6956 C   0  0  0  0  0  3  0  0  0  0  0  0
   11.3550   69.0960   80.4124 C   0  0  0  0  0  3  0  0  0  0  0  0
   10.1401   68.8869   81.0195 C   0  0  0  0  0  3  0  0  0  0  0  0
    9.9759   67.8381   81.8976 C   0  0  0  0  0  3  0  0  0  0  0  0
   11.0108   66.9798   82.1887 C   0  0  0  0  0  0  0  0  0  0  0  0
   10.1081   65.3291   83.8060 C   0  0  0  0  0  2  0  0  0  0  0  0
    9.2013   64.4796   82.9881 C   0  0  0  0  0  0  0  0  0  0  0  0
    8.1463   63.7809   83.6294 N   0  0  0  0  0  0  0  0  0  0  0  0
    9.3894   64.3991   81.7459 O   0  0  0  0  0  0  0  0  0  0  0  0
    7.4429   62.6964   82.9766 C   0  0  0  0  0  3  0  0  0  0  0  0
    6.8301   63.0823   81.6577 C   0  0  0  0  0  2  0  0  0  0  0  0
    6.4700   61.9837   83.8543 C   0  0  0  0  0  2  0  0  0  0  0  0
    5.5419   63.8511   81.9408 C   0  0  0  0  0  2  0  0  0  0  0  0
    5.2534   61.6370   83.0263 C   0  0  0  0  0  2  0  0  0  0  0  0
    4.5472   62.9000   82.6099 C   0  0  0  0  0  2  0  0  0  0  0  0
   13.0082   64.3509   83.5088 N   0  0  0  0  0  0  0  0  0  0  0  0
   14.3784   63.9164   83.2979 C   0  0  0  0  0  2  0  0  0  0  0  0
   14.5834   62.7365   84.1956 C   0  0  0  0  0  0  0  0  0  0  0  0
   14.2054   62.7647   85.5237 C   0  0  0  0  0  3  0  0  0  0  0  0
   15.1697   61.6271   83.6163 C   0  0  0  0  0  3  0  0  0  0  0  0
   14.4211   61.6564   86.2835 C   0  0  0  0  0  3  0  0  0  0  0  0
   15.3739   60.5208   84.4147 C   0  0  0  0  0  3  0  0  0  0  0  0
   15.0062   60.5286   85.7340 C   0  0  0  0  0  3  0  0  0  0  0  0
  1  9  1  0
  1 10  1  0
  2  1  1  0
  3  2  2  0
  3  4  1  0
  4  5  2  0
  4  9  1  0
  5  6  1  0
  6  7  2  0
  8  7  1  0
  9  8  2  0
 10 11  1  0
 11 13  2  0
 12 14  1  0
 12 11  1  0
 14 15  1  0
 16 14  1  0
 17 15  1  0
 18 19  1  0
 18 16  1  0
 19 17  1  0
 20  2  1  0
 21 20  1  0
 22 21  1  0
 23 22  2  0
 24 22  1  0
 25 23  1  0
 26 24  2  0
 27 25  2  0
 27 26  1  0
M  RAD  8   5   2   6   2   7   2   8   2  10   3  14   2  15   3  16   3
M  RAD  8  17   3  18   3  19   3  21   3  23   2  24   2  25   2  26   2
M  RAD  1  27   2
M  END
>  <REMARK>  (1) 
 SMILES O=C(Cn1c(NCc2ccccc2)nc2ccccc21)NC1CCCCC1
 SMILES IDX 4 1 5 2 14 3 15 4 16 5 17 6 18 7 19 8 20 9 3 10 2 11 21 12
 SMILES IDX 1 13 22 15 23 16 27 17 24 18 26 19 25 20 6 21 7 23 8 24 9 25
 SMILES IDX 13 26 10 27 12 28 11 29
 H PARENT 21 14 6 22

>  <TORSDO>  (1) 
F 6

$$$$
