/home/pchatterjee/Documents/git/vs_workflow/DiffDock/diffdock_run/pdbqt_scrubbed/Z25935093.pdbqt
     RDKit          3D

 27 30  0  0  0  0  0  0  0  0999 V2000
   10.4798   64.0163   83.8396 N   0  0  0  0  0  0  0  0  0  0  0  0
    9.8810   65.0395   83.2028 C   0  0  0  0  0  0  0  0  0  0  0  0
    8.5641   64.9833   83.4188 N   0  0  0  0  0  0  0  0  0  0  0  0
    8.3202   63.9135   84.2013 C   0  0  0  0  0  0  0  0  0  0  0  0
    7.1415   63.4423   84.6895 C   0  0  0  0  0  3  0  0  0  0  0  0
    7.1266   62.3173   85.4799 C   0  0  0  0  0  3  0  0  0  0  0  0
    8.3142   61.6863   85.7628 C   0  0  0  0  0  3  0  0  0  0  0  0
    9.4977   62.1792   85.2586 C   0  0  0  0  0  3  0  0  0  0  0  0
    9.5250   63.3039   84.4668 C   0  0  0  0  0  0  0  0  0  0  0  0
   11.9064   63.6823   83.8823 C   0  0  0  0  0  2  0  0  0  0  0  0
   12.1691   62.4141   83.1503 C   0  0  0  0  0  0  0  0  0  0  0  0
   13.4959   61.9162   83.0881 N   0  0  0  0  0  0  0  0  0  0  0  0
   11.2094   61.8109   82.6026 O   0  0  0  0  0  0  0  0  0  0  0  0
   14.4726   62.2196   84.1134 C   0  0  0  0  0  3  0  0  0  0  0  0
   15.6630   61.2993   84.1037 C   0  0  0  0  0  2  0  0  0  0  0  0
   13.8962   62.3684   85.4809 C   0  0  0  0  0  2  0  0  0  0  0  0
   15.2541   59.9887   84.7714 C   0  0  0  0  0  2  0  0  0  0  0  0
   14.8627   61.7568   86.4697 C   0  0  0  0  0  2  0  0  0  0  0  0
   14.9462   60.2705   86.2436 C   0  0  0  0  0  2  0  0  0  0  0  0
   10.5524   66.0253   82.4219 N   0  0  0  0  0  0  0  0  0  0  0  0
    9.8632   67.1481   81.8094 C   0  0  0  0  0  2  0  0  0  0  0  0
   10.9254   67.9975   81.1847 C   0  0  0  0  0  0  0  0  0  0  0  0
   12.2415   67.9288   81.5977 C   0  0  0  0  0  3  0  0  0  0  0  0
   10.5091   68.8472   80.1773 C   0  0  0  0  0  3  0  0  0  0  0  0
   13.1563   68.7296   80.9862 C   0  0  0  0  0  3  0  0  0  0  0  0
   11.4620   69.6452   79.5787 C   0  0  0  0  0  3  0  0  0  0  0  0
   12.7724   69.5921   79.9738 C   0  0  0  0  0  3  0  0  0  0  0  0
  1  9  1  0
  1 10  1  0
  2  1  1  0
  3  2  2  0
  3  4  1  0
  4  5  2  0
  4  9  1  0
  5  6  1  0
  6  7  2  0
  8  7  1  0
  9  8  2  0
 10 11  1  0
 11 13  2  0
 12 14  1  0
 12 11  1  0
 14 15  1  0
 16 14  1  0
 17 15  1  0
 18 19  1  0
 18 16  1  0
 19 17  1  0
 20  2  1  0
 21 20  1  0
 22 21  1  0
 23 22  2  0
 24 22  1  0
 25 23  1  0
 26 24  2  0
 27 25  2  0
 27 26  1  0
M  RAD  8   5   2   6   2   7   2   8   2  10   3  14   2  15   3  16   3
M  RAD  8  17   3  18   3  19   3  21   3  23   2  24   2  25   2  26   2
M  RAD  1  27   2
M  END
>  <REMARK>  (1) 
 SMILES O=C(Cn1c(NCc2ccccc2)nc2ccccc21)NC1CCCCC1
 SMILES IDX 4 1 5 2 14 3 15 4 16 5 17 6 18 7 19 8 20 9 3 10 2 11 21 12
 SMILES IDX 1 13 22 15 23 16 27 17 24 18 26 19 25 20 6 21 7 23 8 24 9 25
 SMILES IDX 13 26 10 27 12 28 11 29
 H PARENT 21 14 6 22

>  <TORSDO>  (1) 
F 6

$$$$
