/home/pchatterjee/Documents/git/vs_workflow/DiffDock/diffdock_run/pdbqt_scrubbed/Z25935093.pdbqt
     RDKit          3D

 27 30  0  0  0  0  0  0  0  0999 V2000
    6.8817   44.9928   50.7367 N   0  0  0  0  0  0  0  0  0  0  0  0
    7.2573   43.9487   49.9753 C   0  0  0  0  0  0  0  0  0  0  0  0
    8.5836   43.9718   49.8184 N   0  0  0  0  0  0  0  0  0  0  0  0
    9.0589   45.0414   50.4864 C   0  0  0  0  0  0  0  0  0  0  0  0
   10.3372   45.4853   50.6229 C   0  0  0  0  0  3  0  0  0  0  0  0
   10.5960   46.6162   51.3608 C   0  0  0  0  0  3  0  0  0  0  0  0
    9.5479   47.2808   51.9508 C   0  0  0  0  0  3  0  0  0  0  0  0
    8.2600   46.8152   51.8008 C   0  0  0  0  0  3  0  0  0  0  0  0
    7.9889   45.6849   51.0648 C   0  0  0  0  0  0  0  0  0  0  0  0
    5.5306   45.3649   51.1665 C   0  0  0  0  0  2  0  0  0  0  0  0
    5.1886   44.6992   52.4522 C   0  0  0  0  0  0  0  0  0  0  0  0
    3.8502   44.7493   52.9196 N   0  0  0  0  0  0  0  0  0  0  0  0
    6.0931   44.1066   53.0967 O   0  0  0  0  0  0  0  0  0  0  0  0
    3.2770   45.9639   53.4612 C   0  0  0  0  0  3  0  0  0  0  0  0
    3.8071   46.3265   54.8219 C   0  0  0  0  0  2  0  0  0  0  0  0
    1.7869   46.0095   53.4148 C   0  0  0  0  0  2  0  0  0  0  0  0
    3.1078   45.4442   55.8532 C   0  0  0  0  0  2  0  0  0  0  0  0
    1.2952   46.6716   54.6820 C   0  0  0  0  0  2  0  0  0  0  0  0
    1.6200   45.8014   55.8671 C   0  0  0  0  0  2  0  0  0  0  0  0
    6.3736   42.9744   49.4255 N   0  0  0  0  0  0  0  0  0  0  0  0
    6.8420   41.8134   48.6885 C   0  0  0  0  0  2  0  0  0  0  0  0
    5.6169   41.1280   48.1696 C   0  0  0  0  0  0  0  0  0  0  0  0
    4.5517   40.8283   48.9960 C   0  0  0  0  0  3  0  0  0  0  0  0
    5.6193   40.8169   46.8230 C   0  0  0  0  0  3  0  0  0  0  0  0
    3.4685   40.2041   48.4583 C   0  0  0  0  0  3  0  0  0  0  0  0
    4.5057   40.1844   46.3103 C   0  0  0  0  0  3  0  0  0  0  0  0
    3.4390   39.8786   47.1131 C   0  0  0  0  0  3  0  0  0  0  0  0
  1  9  1  0
  1 10  1  0
  2  1  1  0
  3  2  2  0
  3  4  1  0
  4  5  2  0
  4  9  1  0
  5  6  1  0
  6  7  2  0
  8  7  1  0
  9  8  2  0
 10 11  1  0
 11 13  2  0
 12 14  1  0
 12 11  1  0
 14 15  1  0
 16 14  1  0
 17 15  1  0
 18 19  1  0
 18 16  1  0
 19 17  1  0
 20  2  1  0
 21 20  1  0
 22 21  1  0
 23 22  2  0
 24 22  1  0
 25 23  1  0
 26 24  2  0
 27 25  2  0
 27 26  1  0
M  RAD  8   5   2   6   2   7   2   8   2  10   3  14   2  15   3  16   3
M  RAD  8  17   3  18   3  19   3  21   3  23   2  24   2  25   2  26   2
M  RAD  1  27   2
M  END
>  <REMARK>  (1) 
 SMILES O=C(Cn1c(NCc2ccccc2)nc2ccccc21)NC1CCCCC1
 SMILES IDX 4 1 5 2 14 3 15 4 16 5 17 6 18 7 19 8 20 9 3 10 2 11 21 12
 SMILES IDX 1 13 22 15 23 16 27 17 24 18 26 19 25 20 6 21 7 23 8 24 9 25
 SMILES IDX 13 26 10 27 12 28 11 29
 H PARENT 21 14 6 22

>  <TORSDO>  (1) 
F 6

$$$$
