/home/pchatterjee/Documents/git/vs_workflow/DiffDock/diffdock_run/pdbqt_scrubbed/Z25935093.pdbqt
     RDKit          3D

 27 30  0  0  0  0  0  0  0  0999 V2000
   11.5627   63.5513   84.0727 N   0  0  0  0  0  0  0  0  0  0  0  0
   12.4441   64.4079   83.5246 C   0  0  0  0  0  0  0  0  0  0  0  0
   13.6771   64.0903   83.9283 N   0  0  0  0  0  0  0  0  0  0  0  0
   13.5814   63.0203   84.7421 C   0  0  0  0  0  0  0  0  0  0  0  0
   14.5562   62.3343   85.3970 C   0  0  0  0  0  3  0  0  0  0  0  0
   14.2262   61.2576   86.1859 C   0  0  0  0  0  3  0  0  0  0  0  0
   12.9059   60.8935   86.2973 C   0  0  0  0  0  3  0  0  0  0  0  0
   11.9330   61.6012   85.6259 C   0  0  0  0  0  3  0  0  0  0  0  0
   12.2512   62.6801   84.8338 C   0  0  0  0  0  0  0  0  0  0  0  0
   10.1062   63.5185   83.9108 C   0  0  0  0  0  2  0  0  0  0  0  0
    9.6855   62.2758   83.2095 C   0  0  0  0  0  0  0  0  0  0  0  0
    8.3096   61.9316   83.1826 N   0  0  0  0  0  0  0  0  0  0  0  0
   10.5585   61.5575   82.6558 O   0  0  0  0  0  0  0  0  0  0  0  0
    7.8127   60.8406   82.3702 C   0  0  0  0  0  3  0  0  0  0  0  0
    6.3314   60.6139   82.5055 C   0  0  0  0  0  2  0  0  0  0  0  0
    8.5845   59.5723   82.5129 C   0  0  0  0  0  2  0  0  0  0  0  0
    6.0849   59.8584   83.8091 C   0  0  0  0  0  2  0  0  0  0  0  0
    7.6077   58.4188   82.4779 C   0  0  0  0  0  2  0  0  0  0  0  0
    6.7188   58.4706   83.6921 C   0  0  0  0  0  2  0  0  0  0  0  0
   12.1083   65.4834   82.6511 N   0  0  0  0  0  0  0  0  0  0  0  0
   13.0947   66.4188   82.1387 C   0  0  0  0  0  2  0  0  0  0  0  0
   12.3306   67.4457   81.3631 C   0  0  0  0  0  0  0  0  0  0  0  0
   12.9717   68.3763   80.5690 C   0  0  0  0  0  3  0  0  0  0  0  0
   10.9551   67.4039   81.4909 C   0  0  0  0  0  3  0  0  0  0  0  0
   12.2154   69.2818   79.8907 C   0  0  0  0  0  3  0  0  0  0  0  0
   10.2186   68.3361   80.7897 C   0  0  0  0  0  3  0  0  0  0  0  0
   10.8353   69.2672   79.9968 C   0  0  0  0  0  3  0  0  0  0  0  0
  1  9  1  0
  1 10  1  0
  2  1  1  0
  3  2  2  0
  3  4  1  0
  4  5  2  0
  4  9  1  0
  5  6  1  0
  6  7  2  0
  8  7  1  0
  9  8  2  0
 10 11  1  0
 11 13  2  0
 12 14  1  0
 12 11  1  0
 14 15  1  0
 16 14  1  0
 17 15  1  0
 18 19  1  0
 18 16  1  0
 19 17  1  0
 20  2  1  0
 21 20  1  0
 22 21  1  0
 23 22  2  0
 24 22  1  0
 25 23  1  0
 26 24  2  0
 27 25  2  0
 27 26  1  0
M  RAD  8   5   2   6   2   7   2   8   2  10   3  14   2  15   3  16   3
M  RAD  8  17   3  18   3  19   3  21   3  23   2  24   2  25   2  26   2
M  RAD  1  27   2
M  END
>  <REMARK>  (1) 
 SMILES O=C(Cn1c(NCc2ccccc2)nc2ccccc21)NC1CCCCC1
 SMILES IDX 4 1 5 2 14 3 15 4 16 5 17 6 18 7 19 8 20 9 3 10 2 11 21 12
 SMILES IDX 1 13 22 15 23 16 27 17 24 18 26 19 25 20 6 21 7 23 8 24 9 25
 SMILES IDX 13 26 10 27 12 28 11 29
 H PARENT 21 14 6 22

>  <TORSDO>  (1) 
F 6

$$$$
