/home/pchatterjee/Documents/git/vs_workflow/DiffDock/diffdock_run/pdbqt_scrubbed/Z25935093.pdbqt
     RDKit          3D

 27 30  0  0  0  0  0  0  0  0999 V2000
   11.0781   65.8414   82.9724 N   0  0  0  0  0  0  0  0  0  0  0  0
   12.3765   65.5095   82.8504 C   0  0  0  0  0  0  0  0  0  0  0  0
   12.9788   66.3776   82.0333 N   0  0  0  0  0  0  0  0  0  0  0  0
   12.0553   67.2724   81.6299 C   0  0  0  0  0  0  0  0  0  0  0  0
   12.1831   68.3410   80.7984 C   0  0  0  0  0  3  0  0  0  0  0  0
   11.0915   69.1299   80.5216 C   0  0  0  0  0  3  0  0  0  0  0  0
    9.8825   68.8193   81.0963 C   0  0  0  0  0  3  0  0  0  0  0  0
    9.7735   67.7325   81.9360 C   0  0  0  0  0  3  0  0  0  0  0  0
   10.8586   66.9361   82.2202 C   0  0  0  0  0  0  0  0  0  0  0  0
   10.0400   65.1745   83.7637 C   0  0  0  0  0  2  0  0  0  0  0  0
    9.1839   64.3244   82.8934 C   0  0  0  0  0  0  0  0  0  0  0  0
    8.1378   63.5685   83.4823 N   0  0  0  0  0  0  0  0  0  0  0  0
    9.4059   64.2941   81.6546 O   0  0  0  0  0  0  0  0  0  0  0  0
    7.4686   62.5043   82.7634 C   0  0  0  0  0  3  0  0  0  0  0  0
    6.8404   62.9514   81.4713 C   0  0  0  0  0  2  0  0  0  0  0  0
    6.5216   61.7069   83.5953 C   0  0  0  0  0  2  0  0  0  0  0  0
    5.5284   63.6585   81.8023 C   0  0  0  0  0  2  0  0  0  0  0  0
    5.3149   61.3729   82.7477 C   0  0  0  0  0  2  0  0  0  0  0  0
    4.5670   62.6356   82.4112 C   0  0  0  0  0  2  0  0  0  0  0  0
   13.0047   64.4037   83.4948 N   0  0  0  0  0  0  0  0  0  0  0  0
   14.4469   64.2342   83.5401 C   0  0  0  0  0  2  0  0  0  0  0  0
   14.6927   62.9593   84.2846 C   0  0  0  0  0  0  0  0  0  0  0  0
   15.1301   61.8189   83.6400 C   0  0  0  0  0  3  0  0  0  0  0  0
   14.4563   62.9957   85.6458 C   0  0  0  0  0  3  0  0  0  0  0  0
   15.3336   60.6938   84.3781 C   0  0  0  0  0  3  0  0  0  0  0  0
   14.6726   61.8379   86.3640 C   0  0  0  0  0  3  0  0  0  0  0  0
   15.1062   60.6964   85.7435 C   0  0  0  0  0  3  0  0  0  0  0  0
  1  9  1  0
  1 10  1  0
  2  1  1  0
  3  2  2  0
  3  4  1  0
  4  5  2  0
  4  9  1  0
  5  6  1  0
  6  7  2  0
  8  7  1  0
  9  8  2  0
 10 11  1  0
 11 13  2  0
 12 14  1  0
 12 11  1  0
 14 15  1  0
 16 14  1  0
 17 15  1  0
 18 19  1  0
 18 16  1  0
 19 17  1  0
 20  2  1  0
 21 20  1  0
 22 21  1  0
 23 22  2  0
 24 22  1  0
 25 23  1  0
 26 24  2  0
 27 25  2  0
 27 26  1  0
M  RAD  8   5   2   6   2   7   2   8   2  10   3  14   2  15   3  16   3
M  RAD  8  17   3  18   3  19   3  21   3  23   2  24   2  25   2  26   2
M  RAD  1  27   2
M  END
>  <REMARK>  (1) 
 SMILES O=C(Cn1c(NCc2ccccc2)nc2ccccc21)NC1CCCCC1
 SMILES IDX 4 1 5 2 14 3 15 4 16 5 17 6 18 7 19 8 20 9 3 10 2 11 21 12
 SMILES IDX 1 13 22 15 23 16 27 17 24 18 26 19 25 20 6 21 7 23 8 24 9 25
 SMILES IDX 13 26 10 27 12 28 11 29
 H PARENT 21 14 6 22

>  <TORSDO>  (1) 
F 6

$$$$
