/home/pchatterjee/Documents/git/vs_workflow/DiffDock/diffdock_run/pdbqt_scrubbed/Z25935093.pdbqt
     RDKit          3D

 27 30  0  0  0  0  0  0  0  0999 V2000
   13.7354   87.1504   67.7663 N   0  0  0  0  0  0  0  0  0  0  0  0
   15.0758   87.1793   67.8809 C   0  0  0  0  0  0  0  0  0  0  0  0
   15.5134   88.4160   67.6296 N   0  0  0  0  0  0  0  0  0  0  0  0
   14.4413   89.1839   67.3518 C   0  0  0  0  0  0  0  0  0  0  0  0
   14.3747   90.5048   67.0350 C   0  0  0  0  0  3  0  0  0  0  0  0
   13.1558   91.0906   66.7868 C   0  0  0  0  0  3  0  0  0  0  0  0
   12.0194   90.3221   66.8646 C   0  0  0  0  0  3  0  0  0  0  0  0
   12.1077   88.9856   67.1871 C   0  0  0  0  0  3  0  0  0  0  0  0
   13.3215   88.3886   67.4375 C   0  0  0  0  0  0  0  0  0  0  0  0
   12.8316   86.0115   67.9524 C   0  0  0  0  0  2  0  0  0  0  0  0
   12.5418   85.8039   69.3967 C   0  0  0  0  0  0  0  0  0  0  0  0
   11.5607   84.8509   69.7730 N   0  0  0  0  0  0  0  0  0  0  0  0
   13.1726   86.4777   70.2528 O   0  0  0  0  0  0  0  0  0  0  0  0
   11.0201   84.8032   71.1156 C   0  0  0  0  0  3  0  0  0  0  0  0
   12.0693   84.6504   72.1832 C   0  0  0  0  0  2  0  0  0  0  0  0
    9.9036   83.8297   71.2900 C   0  0  0  0  0  2  0  0  0  0  0  0
   12.4980   83.1855   72.2200 C   0  0  0  0  0  2  0  0  0  0  0  0
   10.0522   83.1792   72.6468 C   0  0  0  0  0  2  0  0  0  0  0  0
   11.3039   82.3427   72.6732 C   0  0  0  0  0  2  0  0  0  0  0  0
   15.8947   86.0620   68.2180 N   0  0  0  0  0  0  0  0  0  0  0  0
   17.3219   86.0222   67.9490 C   0  0  0  0  0  2  0  0  0  0  0  0
   17.8519   84.8352   68.6906 C   0  0  0  0  0  0  0  0  0  0  0  0
   19.1712   84.7646   69.0930 C   0  0  0  0  0  3  0  0  0  0  0  0
   16.9454   83.8234   68.9449 C   0  0  0  0  0  3  0  0  0  0  0  0
   19.5868   83.6557   69.7636 C   0  0  0  0  0  3  0  0  0  0  0  0
   17.3996   82.7136   69.6268 C   0  0  0  0  0  3  0  0  0  0  0  0
   18.7042   82.6242   70.0344 C   0  0  0  0  0  3  0  0  0  0  0  0
  1  9  1  0
  1 10  1  0
  2  1  1  0
  3  2  2  0
  3  4  1  0
  4  5  2  0
  4  9  1  0
  5  6  1  0
  6  7  2  0
  8  7  1  0
  9  8  2  0
 10 11  1  0
 11 13  2  0
 12 14  1  0
 12 11  1  0
 14 15  1  0
 16 14  1  0
 17 15  1  0
 18 19  1  0
 18 16  1  0
 19 17  1  0
 20  2  1  0
 21 20  1  0
 22 21  1  0
 23 22  2  0
 24 22  1  0
 25 23  1  0
 26 24  2  0
 27 25  2  0
 27 26  1  0
M  RAD  8   5   2   6   2   7   2   8   2  10   3  14   2  15   3  16   3
M  RAD  8  17   3  18   3  19   3  21   3  23   2  24   2  25   2  26   2
M  RAD  1  27   2
M  END
>  <REMARK>  (1) 
 SMILES O=C(Cn1c(NCc2ccccc2)nc2ccccc21)NC1CCCCC1
 SMILES IDX 4 1 5 2 14 3 15 4 16 5 17 6 18 7 19 8 20 9 3 10 2 11 21 12
 SMILES IDX 1 13 22 15 23 16 27 17 24 18 26 19 25 20 6 21 7 23 8 24 9 25
 SMILES IDX 13 26 10 27 12 28 11 29
 H PARENT 21 14 6 22

>  <TORSDO>  (1) 
F 6

$$$$
