/home/pchatterjee/Documents/git/vs_workflow/DiffDock/diffdock_run/pdbqt_scrubbed/Z25935093.pdbqt
     RDKit          3D

 27 30  0  0  0  0  0  0  0  0999 V2000
   10.9284   63.8179   83.3541 N   0  0  0  0  0  0  0  0  0  0  0  0
   10.8953   62.8997   84.3373 C   0  0  0  0  0  0  0  0  0  0  0  0
    9.6338   62.7348   84.7444 N   0  0  0  0  0  0  0  0  0  0  0  0
    8.8543   63.5561   84.0135 C   0  0  0  0  0  0  0  0  0  0  0  0
    7.5085   63.7469   84.0575 C   0  0  0  0  0  3  0  0  0  0  0  0
    6.9149   64.6490   83.2064 C   0  0  0  0  0  3  0  0  0  0  0  0
    7.7012   65.3457   82.3205 C   0  0  0  0  0  3  0  0  0  0  0  0
    9.0629   65.1382   82.2914 C   0  0  0  0  0  3  0  0  0  0  0  0
    9.6679   64.2383   83.1380 C   0  0  0  0  0  0  0  0  0  0  0  0
   12.0915   64.3139   82.6126 C   0  0  0  0  0  2  0  0  0  0  0  0
   12.2519   65.7796   82.8102 C   0  0  0  0  0  0  0  0  0  0  0  0
   13.4024   66.4240   82.2872 N   0  0  0  0  0  0  0  0  0  0  0  0
   11.3642   66.4157   83.4365 O   0  0  0  0  0  0  0  0  0  0  0  0
   13.7437   67.7845   82.6473 C   0  0  0  0  0  3  0  0  0  0  0  0
   12.6220   68.7644   82.4339 C   0  0  0  0  0  2  0  0  0  0  0  0
   15.0250   68.2692   82.0573 C   0  0  0  0  0  2  0  0  0  0  0  0
   12.5565   69.0924   80.9443 C   0  0  0  0  0  2  0  0  0  0  0  0
   14.8469   69.7194   81.6685 C   0  0  0  0  0  2  0  0  0  0  0  0
   13.8416   69.8250   80.5526 C   0  0  0  0  0  2  0  0  0  0  0  0
   12.0316   62.2142   84.8584 N   0  0  0  0  0  0  0  0  0  0  0  0
   11.9449   61.2693   85.9585 C   0  0  0  0  0  2  0  0  0  0  0  0
   13.3477   60.8318   86.2425 C   0  0  0  0  0  0  0  0  0  0  0  0
   14.1802   61.5639   87.0663 C   0  0  0  0  0  3  0  0  0  0  0  0
   13.7533   59.6593   85.6335 C   0  0  0  0  0  3  0  0  0  0  0  0
   15.4444   61.1083   87.2817 C   0  0  0  0  0  3  0  0  0  0  0  0
   15.0409   59.2259   85.8732 C   0  0  0  0  0  3  0  0  0  0  0  0
   15.8821   59.9374   86.6869 C   0  0  0  0  0  3  0  0  0  0  0  0
  1  9  1  0
  1 10  1  0
  2  1  1  0
  3  2  2  0
  3  4  1  0
  4  5  2  0
  4  9  1  0
  5  6  1  0
  6  7  2  0
  8  7  1  0
  9  8  2  0
 10 11  1  0
 11 13  2  0
 12 14  1  0
 12 11  1  0
 14 15  1  0
 16 14  1  0
 17 15  1  0
 18 19  1  0
 18 16  1  0
 19 17  1  0
 20  2  1  0
 21 20  1  0
 22 21  1  0
 23 22  2  0
 24 22  1  0
 25 23  1  0
 26 24  2  0
 27 25  2  0
 27 26  1  0
M  RAD  8   5   2   6   2   7   2   8   2  10   3  14   2  15   3  16   3
M  RAD  8  17   3  18   3  19   3  21   3  23   2  24   2  25   2  26   2
M  RAD  1  27   2
M  END
>  <REMARK>  (1) 
 SMILES O=C(Cn1c(NCc2ccccc2)nc2ccccc21)NC1CCCCC1
 SMILES IDX 4 1 5 2 14 3 15 4 16 5 17 6 18 7 19 8 20 9 3 10 2 11 21 12
 SMILES IDX 1 13 22 15 23 16 27 17 24 18 26 19 25 20 6 21 7 23 8 24 9 25
 SMILES IDX 13 26 10 27 12 28 11 29
 H PARENT 21 14 6 22

>  <TORSDO>  (1) 
F 6

$$$$
