/home/pchatterjee/Documents/git/vs_workflow/DiffDock/diffdock_run/pdbqt_scrubbed/Z25935093.pdbqt
     RDKit          3D

 27 30  0  0  0  0  0  0  0  0999 V2000
    9.4234   64.1214   83.1547 N   0  0  0  0  0  0  0  0  0  0  0  0
    9.0845   65.3720   82.7914 C   0  0  0  0  0  0  0  0  0  0  0  0
    7.7771   65.5521   82.9974 N   0  0  0  0  0  0  0  0  0  0  0  0
    7.2769   64.4049   83.4973 C   0  0  0  0  0  0  0  0  0  0  0  0
    6.0043   64.0971   83.8652 C   0  0  0  0  0  3  0  0  0  0  0  0
    5.7156   62.8461   84.3575 C   0  0  0  0  0  3  0  0  0  0  0  0
    6.7285   61.9241   84.4687 C   0  0  0  0  0  3  0  0  0  0  0  0
    8.0112   62.2552   84.0906 C   0  0  0  0  0  3  0  0  0  0  0  0
    8.3120   63.5035   83.5968 C   0  0  0  0  0  0  0  0  0  0  0  0
   10.7435   63.4862   83.1035 C   0  0  0  0  0  2  0  0  0  0  0  0
   11.3104   63.3466   84.4717 C   0  0  0  0  0  0  0  0  0  0  0  0
   12.6168   62.8154   84.6258 N   0  0  0  0  0  0  0  0  0  0  0  0
   10.6196   63.7025   85.4622 O   0  0  0  0  0  0  0  0  0  0  0  0
   12.9210   61.8206   85.6332 C   0  0  0  0  0  3  0  0  0  0  0  0
   12.5361   62.2365   87.0271 C   0  0  0  0  0  2  0  0  0  0  0  0
   14.3171   61.2991   85.5744 C   0  0  0  0  0  2  0  0  0  0  0  0
   13.6011   63.2000   87.5452 C   0  0  0  0  0  2  0  0  0  0  0  0
   14.8076   61.1021   86.9909 C   0  0  0  0  0  2  0  0  0  0  0  0
   14.9209   62.4371   87.6780 C   0  0  0  0  0  2  0  0  0  0  0  0
    9.9842   66.3469   82.2691 N   0  0  0  0  0  0  0  0  0  0  0  0
    9.5467   67.4609   81.4456 C   0  0  0  0  0  2  0  0  0  0  0  0
   10.7844   68.2180   81.0785 C   0  0  0  0  0  0  0  0  0  0  0  0
   12.0140   67.8991   81.6204 C   0  0  0  0  0  3  0  0  0  0  0  0
   10.6200   69.2473   80.1708 C   0  0  0  0  0  3  0  0  0  0  0  0
   13.0988   68.6289   81.2426 C   0  0  0  0  0  3  0  0  0  0  0  0
   11.7402   69.9669   79.8095 C   0  0  0  0  0  3  0  0  0  0  0  0
   12.9685   69.6664   80.3356 C   0  0  0  0  0  3  0  0  0  0  0  0
  1  9  1  0
  1 10  1  0
  2  1  1  0
  3  2  2  0
  3  4  1  0
  4  5  2  0
  4  9  1  0
  5  6  1  0
  6  7  2  0
  8  7  1  0
  9  8  2  0
 10 11  1  0
 11 13  2  0
 12 14  1  0
 12 11  1  0
 14 15  1  0
 16 14  1  0
 17 15  1  0
 18 19  1  0
 18 16  1  0
 19 17  1  0
 20  2  1  0
 21 20  1  0
 22 21  1  0
 23 22  2  0
 24 22  1  0
 25 23  1  0
 26 24  2  0
 27 25  2  0
 27 26  1  0
M  RAD  8   5   2   6   2   7   2   8   2  10   3  14   2  15   3  16   3
M  RAD  8  17   3  18   3  19   3  21   3  23   2  24   2  25   2  26   2
M  RAD  1  27   2
M  END
>  <REMARK>  (1) 
 SMILES O=C(Cn1c(NCc2ccccc2)nc2ccccc21)NC1CCCCC1
 SMILES IDX 4 1 5 2 14 3 15 4 16 5 17 6 18 7 19 8 20 9 3 10 2 11 21 12
 SMILES IDX 1 13 22 15 23 16 27 17 24 18 26 19 25 20 6 21 7 23 8 24 9 25
 SMILES IDX 13 26 10 27 12 28 11 29
 H PARENT 21 14 6 22

>  <TORSDO>  (1) 
F 6

$$$$
