/home/pchatterjee/Documents/git/vs_workflow/DiffDock/diffdock_run/pdbqt_scrubbed/Z442860920.pdbqt
     RDKit          3D

 28 31  0  0  0  0  0  0  0  0999 V2000
    5.3711   43.0968   53.0077 O   0  0  0  0  0  0  0  0  0  0  0  0
    4.5535   43.5776   52.1983 C   0  0  0  0  0  0  0  0  0  0  0  0
    4.2608   42.8974   50.9288 C   0  0  0  0  0  2  0  0  0  0  0  0
    5.3918   42.2405   50.4554 O   0  0  0  0  0  0  0  0  0  0  0  0
    4.9703   41.0696   49.8335 C   0  0  0  0  0  2  0  0  0  0  0  0
    4.8165   41.3407   48.3555 C   0  0  0  0  0  3  0  0  0  0  0  0
    3.5531   40.9139   47.6933 C   0  0  0  0  0  2  0  0  0  0  0  0
    3.8400   42.3566   47.8548 C   0  0  0  0  0  2  0  0  0  0  0  0
    3.9148   44.8001   52.5394 N   0  0  0  0  0  0  0  0  0  0  0  0
    2.7102   45.2019   51.8477 C   0  0  0  0  0  2  0  0  0  0  0  0
    1.5034   45.0440   52.6859 C   0  0  0  0  0  0  0  0  0  0  0  0
    1.5441   44.0936   53.6847 C   0  0  0  0  0  3  0  0  0  0  0  0
    0.3535   45.7683   52.5448 C   0  0  0  0  0  3  0  0  0  0  0  0
    0.4702   43.8691   54.5208 C   0  0  0  0  0  3  0  0  0  0  0  0
   -0.7202   45.5395   53.3854 C   0  0  0  0  0  3  0  0  0  0  0  0
   -0.7034   44.5952   54.3908 C   0  0  0  0  0  3  0  0  0  0  0  0
    4.4245   45.6881   53.5742 C   0  0  0  0  0  2  0  0  0  0  0  0
    5.8200   46.1025   53.3181 C   0  0  0  0  0  0  0  0  0  0  0  0
    6.5179   45.7604   52.2236 N   0  0  0  0  0  0  0  0  0  0  0  0
    6.4073   46.8766   54.2652 N   0  0  0  0  0  0  0  0  0  0  0  0
    7.8034   46.1700   52.0365 C   0  0  0  0  0  0  0  0  0  0  0  0
    7.6732   47.3182   54.1483 C   0  0  0  0  0  0  0  0  0  0  0  0
    8.5330   45.8302   50.9237 C   0  0  0  0  0  3  0  0  0  0  0  0
    8.3935   46.9617   53.0129 C   0  0  0  0  0  0  0  0  0  0  0  0
    9.8403   46.2512   50.7414 C   0  0  0  0  0  3  0  0  0  0  0  0
    9.7001   47.3920   52.8474 C   0  0  0  0  0  3  0  0  0  0  0  0
   10.4250   47.0383   51.7133 C   0  0  0  0  0  3  0  0  0  0  0  0
    8.1635   48.0267   55.0486 O   0  0  0  0  0  0  0  0  0  0  0  0
  2  3  1  0
  2  1  2  0
  4  5  1  0
  4  3  1  0
  6  5  1  0
  7  6  1  0
  8  7  1  0
  8  6  1  0
  9  2  1  0
 10  9  1  0
 11 10  1  0
 11 13  1  0
 12 11  2  0
 14 12  1  0
 14 16  2  0
 15 13  2  0
 16 15  1  0
 17  9  1  0
 18 20  1  0
 18 17  1  0
 19 18  2  0
 21 24  2  0
 21 19  1  0
 22 28  2  0
 22 20  1  0
 23 21  1  0
 24 22  1  0
 25 27  1  0
 25 23  2  0
 26 24  1  0
 27 26  2  0
M  RAD  8   3   3   5   3   6   2   7   3   8   3  10   3  12   2  13   2
M  RAD  8  14   2  15   2  16   2  17   3  23   2  25   2  26   2  27   2
M  END
>  <REMARK>  (1) 
 SMILES O=C(COCC1CC1)N(Cc1ccccc1)Cc1nc2ccccc2c(=O)[nH]1
 SMILES IDX 1 1 2 2 3 3 4 4 5 5 6 6 7 7 8 8 9 9 10 10 11 11 12 12 16 13
 SMILES IDX 13 14 15 15 14 16 17 17 18 18 19 19 28 20 20 21 26 22 21 23
 SMILES IDX 25 24 22 25 24 26 23 27 27 29
 H PARENT 28 28

>  <TORSDO>  (1) 
F 9

$$$$
