/home/pchatterjee/Documents/git/vs_workflow/DiffDock/diffdock_run/pdbqt_scrubbed/Z442860920.pdbqt
     RDKit          3D

 28 31  0  0  0  0  0  0  0  0999 V2000
    3.8264   40.1857   49.9500 O   0  0  0  0  0  0  0  0  0  0  0  0
    3.6392   41.3588   49.5713 C   0  0  0  0  0  0  0  0  0  0  0  0
    2.4751   41.7074   48.7447 C   0  0  0  0  0  2  0  0  0  0  0  0
    2.5542   41.0842   47.5037 O   0  0  0  0  0  0  0  0  0  0  0  0
    1.3474   41.2996   46.8457 C   0  0  0  0  0  2  0  0  0  0  0  0
    1.5904   41.2103   45.3576 C   0  0  0  0  0  3  0  0  0  0  0  0
    1.2512   42.3940   44.5206 C   0  0  0  0  0  2  0  0  0  0  0  0
    2.6693   42.0122   44.7023 C   0  0  0  0  0  2  0  0  0  0  0  0
    4.5831   42.3463   49.9622 N   0  0  0  0  0  0  0  0  0  0  0  0
    4.2695   43.7485   49.7987 C   0  0  0  0  0  2  0  0  0  0  0  0
    3.7118   44.3453   51.0302 C   0  0  0  0  0  0  0  0  0  0  0  0
    3.6641   43.5498   52.1560 C   0  0  0  0  0  3  0  0  0  0  0  0
    3.2414   45.6237   51.1355 C   0  0  0  0  0  3  0  0  0  0  0  0
    3.1620   44.0128   53.3544 C   0  0  0  0  0  3  0  0  0  0  0  0
    2.7392   46.0832   52.3391 C   0  0  0  0  0  3  0  0  0  0  0  0
    2.6810   45.3069   53.4778 C   0  0  0  0  0  3  0  0  0  0  0  0
    5.8795   42.0089   50.5319 C   0  0  0  0  0  2  0  0  0  0  0  0
    6.7231   43.2029   50.7490 C   0  0  0  0  0  0  0  0  0  0  0  0
    6.4388   44.1753   51.6298 N   0  0  0  0  0  0  0  0  0  0  0  0
    7.8490   43.2960   49.9974 N   0  0  0  0  0  0  0  0  0  0  0  0
    7.2516   45.2564   51.7907 C   0  0  0  0  0  0  0  0  0  0  0  0
    8.6986   44.3345   50.1022 C   0  0  0  0  0  0  0  0  0  0  0  0
    6.9773   46.2607   52.6863 C   0  0  0  0  0  3  0  0  0  0  0  0
    8.4009   45.3402   51.0158 C   0  0  0  0  0  0  0  0  0  0  0  0
    7.8097   47.3570   52.8437 C   0  0  0  0  0  3  0  0  0  0  0  0
    9.2451   46.4295   51.1597 C   0  0  0  0  0  3  0  0  0  0  0  0
    8.9518   47.4383   52.0723 C   0  0  0  0  0  3  0  0  0  0  0  0
    9.7187   44.3696   49.3872 O   0  0  0  0  0  0  0  0  0  0  0  0
  2  3  1  0
  2  1  2  0
  4  5  1  0
  4  3  1  0
  6  5  1  0
  7  6  1  0
  8  7  1  0
  8  6  1  0
  9  2  1  0
 10  9  1  0
 11 10  1  0
 11 13  1  0
 12 11  2  0
 14 12  1  0
 14 16  2  0
 15 13  2  0
 16 15  1  0
 17  9  1  0
 18 20  1  0
 18 17  1  0
 19 18  2  0
 21 24  2  0
 21 19  1  0
 22 28  2  0
 22 20  1  0
 23 21  1  0
 24 22  1  0
 25 27  1  0
 25 23  2  0
 26 24  1  0
 27 26  2  0
M  RAD  8   3   3   5   3   6   2   7   3   8   3  10   3  12   2  13   2
M  RAD  8  14   2  15   2  16   2  17   3  23   2  25   2  26   2  27   2
M  END
>  <REMARK>  (1) 
 SMILES O=C(COCC1CC1)N(Cc1ccccc1)Cc1nc2ccccc2c(=O)[nH]1
 SMILES IDX 1 1 2 2 3 3 4 4 5 5 6 6 7 7 8 8 9 9 10 10 11 11 12 12 16 13
 SMILES IDX 13 14 15 15 14 16 17 17 18 18 19 19 28 20 20 21 26 22 21 23
 SMILES IDX 25 24 22 25 24 26 23 27 27 29
 H PARENT 28 28

>  <TORSDO>  (1) 
F 9

$$$$
