/home/pchatterjee/Documents/git/vs_workflow/DiffDock/diffdock_run/pdbqt_scrubbed/Z442860920.pdbqt
     RDKit          3D

 28 31  0  0  0  0  0  0  0  0999 V2000
    5.1153   41.6797   48.8252 O   0  0  0  0  0  0  0  0  0  0  0  0
    4.1785   42.2674   49.4012 C   0  0  0  0  0  0  0  0  0  0  0  0
    2.9391   42.5954   48.6826 C   0  0  0  0  0  2  0  0  0  0  0  0
    2.7281   41.6989   47.6402 O   0  0  0  0  0  0  0  0  0  0  0  0
    1.6781   42.1877   46.8695 C   0  0  0  0  0  2  0  0  0  0  0  0
    1.8162   41.6395   45.4688 C   0  0  0  0  0  3  0  0  0  0  0  0
    1.8933   42.6095   44.3418 C   0  0  0  0  0  2  0  0  0  0  0  0
    3.0855   41.8074   44.6959 C   0  0  0  0  0  2  0  0  0  0  0  0
    4.3449   42.6098   50.7701 N   0  0  0  0  0  0  0  0  0  0  0  0
    3.2607   43.2358   51.4939 C   0  0  0  0  0  2  0  0  0  0  0  0
    3.7276   44.3398   52.3582 C   0  0  0  0  0  0  0  0  0  0  0  0
    3.4491   45.6274   51.9495 C   0  0  0  0  0  3  0  0  0  0  0  0
    4.4131   44.1793   53.5291 C   0  0  0  0  0  3  0  0  0  0  0  0
    3.8415   46.7261   52.6853 C   0  0  0  0  0  3  0  0  0  0  0  0
    4.8042   45.2840   54.2631 C   0  0  0  0  0  3  0  0  0  0  0  0
    4.5375   46.5805   53.8752 C   0  0  0  0  0  3  0  0  0  0  0  0
    5.5806   42.3559   51.4965 C   0  0  0  0  0  2  0  0  0  0  0  0
    6.5422   43.4714   51.3716 C   0  0  0  0  0  0  0  0  0  0  0  0
    6.4642   44.6143   52.0716 N   0  0  0  0  0  0  0  0  0  0  0  0
    7.5571   43.3024   50.4869 N   0  0  0  0  0  0  0  0  0  0  0  0
    7.3783   45.6123   51.9180 C   0  0  0  0  0  0  0  0  0  0  0  0
    8.4961   44.2445   50.2826 C   0  0  0  0  0  0  0  0  0  0  0  0
    7.3149   46.7881   52.6249 C   0  0  0  0  0  3  0  0  0  0  0  0
    8.4122   45.4275   51.0095 C   0  0  0  0  0  0  0  0  0  0  0  0
    8.2490   47.7982   52.4625 C   0  0  0  0  0  3  0  0  0  0  0  0
    9.3555   46.4271   50.8340 C   0  0  0  0  0  3  0  0  0  0  0  0
    9.2761   47.6124   51.5588 C   0  0  0  0  0  3  0  0  0  0  0  0
    9.4067   44.0371   49.4575 O   0  0  0  0  0  0  0  0  0  0  0  0
  2  3  1  0
  2  1  2  0
  4  5  1  0
  4  3  1  0
  6  5  1  0
  7  6  1  0
  8  7  1  0
  8  6  1  0
  9  2  1  0
 10  9  1  0
 11 10  1  0
 11 13  1  0
 12 11  2  0
 14 12  1  0
 14 16  2  0
 15 13  2  0
 16 15  1  0
 17  9  1  0
 18 20  1  0
 18 17  1  0
 19 18  2  0
 21 24  2  0
 21 19  1  0
 22 28  2  0
 22 20  1  0
 23 21  1  0
 24 22  1  0
 25 27  1  0
 25 23  2  0
 26 24  1  0
 27 26  2  0
M  RAD  8   3   3   5   3   6   2   7   3   8   3  10   3  12   2  13   2
M  RAD  8  14   2  15   2  16   2  17   3  23   2  25   2  26   2  27   2
M  END
>  <REMARK>  (1) 
 SMILES O=C(COCC1CC1)N(Cc1ccccc1)Cc1nc2ccccc2c(=O)[nH]1
 SMILES IDX 1 1 2 2 3 3 4 4 5 5 6 6 7 7 8 8 9 9 10 10 11 11 12 12 16 13
 SMILES IDX 13 14 15 15 14 16 17 17 18 18 19 19 28 20 20 21 26 22 21 23
 SMILES IDX 25 24 22 25 24 26 23 27 27 29
 H PARENT 28 28

>  <TORSDO>  (1) 
F 9

$$$$
