/home/pchatterjee/Documents/git/vs_workflow/DiffDock/diffdock_run/pdbqt_scrubbed/Z442860920.pdbqt
     RDKit          3D

 28 31  0  0  0  0  0  0  0  0999 V2000
    3.1686   41.1599   51.3887 O   0  0  0  0  0  0  0  0  0  0  0  0
    4.1013   41.6424   50.7163 C   0  0  0  0  0  0  0  0  0  0  0  0
    4.6678   40.9072   49.5767 C   0  0  0  0  0  2  0  0  0  0  0  0
    3.6589   40.2904   48.8443 O   0  0  0  0  0  0  0  0  0  0  0  0
    4.2083   39.8758   47.6353 C   0  0  0  0  0  2  0  0  0  0  0  0
    3.3635   40.4270   46.5110 C   0  0  0  0  0  3  0  0  0  0  0  0
    2.5471   41.6426   46.7800 C   0  0  0  0  0  2  0  0  0  0  0  0
    3.7017   41.7294   45.8585 C   0  0  0  0  0  2  0  0  0  0  0  0
    4.5990   42.9214   51.0842 N   0  0  0  0  0  0  0  0  0  0  0  0
    4.4780   43.3763   52.4515 C   0  0  0  0  0  2  0  0  0  0  0  0
    4.1357   44.8114   52.5365 C   0  0  0  0  0  0  0  0  0  0  0  0
    3.0197   45.2397   51.8483 C   0  0  0  0  0  3  0  0  0  0  0  0
    4.8414   45.7426   53.2447 C   0  0  0  0  0  3  0  0  0  0  0  0
    2.6161   46.5586   51.8637 C   0  0  0  0  0  3  0  0  0  0  0  0
    4.4327   47.0635   53.2570 C   0  0  0  0  0  3  0  0  0  0  0  0
    3.3209   47.5155   52.5771 C   0  0  0  0  0  3  0  0  0  0  0  0
    5.2389   43.8167   50.1313 C   0  0  0  0  0  2  0  0  0  0  0  0
    6.4734   44.4216   50.6742 C   0  0  0  0  0  0  0  0  0  0  0  0
    6.5234   45.1445   51.8043 N   0  0  0  0  0  0  0  0  0  0  0  0
    7.6124   44.2175   49.9655 N   0  0  0  0  0  0  0  0  0  0  0  0
    7.6893   45.6805   52.2611 C   0  0  0  0  0  0  0  0  0  0  0  0
    8.8000   44.7160   50.3555 C   0  0  0  0  0  0  0  0  0  0  0  0
    7.7600   46.4224   53.4145 C   0  0  0  0  0  3  0  0  0  0  0  0
    8.8481   45.4645   51.5270 C   0  0  0  0  0  0  0  0  0  0  0  0
    8.9502   46.9640   53.8720 C   0  0  0  0  0  3  0  0  0  0  0  0
   10.0476   45.9986   51.9694 C   0  0  0  0  0  3  0  0  0  0  0  0
   10.1011   46.7482   53.1407 C   0  0  0  0  0  3  0  0  0  0  0  0
    9.8153   44.4979   49.6665 O   0  0  0  0  0  0  0  0  0  0  0  0
  2  3  1  0
  2  1  2  0
  4  5  1  0
  4  3  1  0
  6  5  1  0
  7  6  1  0
  8  7  1  0
  8  6  1  0
  9  2  1  0
 10  9  1  0
 11 10  1  0
 11 13  1  0
 12 11  2  0
 14 12  1  0
 14 16  2  0
 15 13  2  0
 16 15  1  0
 17  9  1  0
 18 20  1  0
 18 17  1  0
 19 18  2  0
 21 24  2  0
 21 19  1  0
 22 28  2  0
 22 20  1  0
 23 21  1  0
 24 22  1  0
 25 27  1  0
 25 23  2  0
 26 24  1  0
 27 26  2  0
M  RAD  8   3   3   5   3   6   2   7   3   8   3  10   3  12   2  13   2
M  RAD  8  14   2  15   2  16   2  17   3  23   2  25   2  26   2  27   2
M  END
>  <REMARK>  (1) 
 SMILES O=C(COCC1CC1)N(Cc1ccccc1)Cc1nc2ccccc2c(=O)[nH]1
 SMILES IDX 1 1 2 2 3 3 4 4 5 5 6 6 7 7 8 8 9 9 10 10 11 11 12 12 16 13
 SMILES IDX 13 14 15 15 14 16 17 17 18 18 19 19 28 20 20 21 26 22 21 23
 SMILES IDX 25 24 22 25 24 26 23 27 27 29
 H PARENT 28 28

>  <TORSDO>  (1) 
F 9

$$$$
