/home/pchatterjee/Documents/git/vs_workflow/DiffDock/diffdock_run/pdbqt_scrubbed/Z442860920.pdbqt
     RDKit          3D

 28 31  0  0  0  0  0  0  0  0999 V2000
    5.0234   40.8784   50.4528 O   0  0  0  0  0  0  0  0  0  0  0  0
    5.2453   42.0242   50.0139 C   0  0  0  0  0  0  0  0  0  0  0  0
    5.3841   42.2647   48.5707 C   0  0  0  0  0  2  0  0  0  0  0  0
    5.1500   41.0943   47.8566 O   0  0  0  0  0  0  0  0  0  0  0  0
    5.3333   41.3794   46.5073 C   0  0  0  0  0  2  0  0  0  0  0  0
    4.1215   40.8956   45.7463 C   0  0  0  0  0  3  0  0  0  0  0  0
    2.7806   41.1070   46.3579 C   0  0  0  0  0  2  0  0  0  0  0  0
    3.1538   41.8619   45.1411 C   0  0  0  0  0  2  0  0  0  0  0  0
    5.3597   43.0880   50.9489 N   0  0  0  0  0  0  0  0  0  0  0  0
    4.4941   44.2411   50.8388 C   0  0  0  0  0  2  0  0  0  0  0  0
    4.0726   44.7536   52.1592 C   0  0  0  0  0  0  0  0  0  0  0  0
    3.9877   46.1218   52.3116 C   0  0  0  0  0  3  0  0  0  0  0  0
    3.7618   43.9739   53.2373 C   0  0  0  0  0  3  0  0  0  0  0  0
    3.6039   46.6995   53.5040 C   0  0  0  0  0  3  0  0  0  0  0  0
    3.3776   44.5578   54.4303 C   0  0  0  0  0  3  0  0  0  0  0  0
    3.2853   45.9227   54.6069 C   0  0  0  0  0  3  0  0  0  0  0  0
    6.3270   43.0742   52.0367 C   0  0  0  0  0  2  0  0  0  0  0  0
    7.1817   44.2800   52.0405 C   0  0  0  0  0  0  0  0  0  0  0  0
    7.0236   45.3173   51.2032 N   0  0  0  0  0  0  0  0  0  0  0  0
    8.1807   44.3135   52.9582 N   0  0  0  0  0  0  0  0  0  0  0  0
    7.8406   46.4062   51.2492 C   0  0  0  0  0  0  0  0  0  0  0  0
    9.0260   45.3556   53.0619 C   0  0  0  0  0  0  0  0  0  0  0  0
    7.6943   47.4765   50.4012 C   0  0  0  0  0  3  0  0  0  0  0  0
    8.8593   46.4287   52.1927 C   0  0  0  0  0  0  0  0  0  0  0  0
    8.5299   48.5803   50.4548 C   0  0  0  0  0  3  0  0  0  0  0  0
    9.7046   47.5244   52.2608 C   0  0  0  0  0  3  0  0  0  0  0  0
    9.5420   48.6006   51.3936 C   0  0  0  0  0  3  0  0  0  0  0  0
    9.9264   45.3343   53.9232 O   0  0  0  0  0  0  0  0  0  0  0  0
  2  3  1  0
  2  1  2  0
  4  5  1  0
  4  3  1  0
  6  5  1  0
  7  6  1  0
  8  7  1  0
  8  6  1  0
  9  2  1  0
 10  9  1  0
 11 10  1  0
 11 13  1  0
 12 11  2  0
 14 12  1  0
 14 16  2  0
 15 13  2  0
 16 15  1  0
 17  9  1  0
 18 20  1  0
 18 17  1  0
 19 18  2  0
 21 24  2  0
 21 19  1  0
 22 28  2  0
 22 20  1  0
 23 21  1  0
 24 22  1  0
 25 27  1  0
 25 23  2  0
 26 24  1  0
 27 26  2  0
M  RAD  8   3   3   5   3   6   2   7   3   8   3  10   3  12   2  13   2
M  RAD  8  14   2  15   2  16   2  17   3  23   2  25   2  26   2  27   2
M  END
>  <REMARK>  (1) 
 SMILES O=C(COCC1CC1)N(Cc1ccccc1)Cc1nc2ccccc2c(=O)[nH]1
 SMILES IDX 1 1 2 2 3 3 4 4 5 5 6 6 7 7 8 8 9 9 10 10 11 11 12 12 16 13
 SMILES IDX 13 14 15 15 14 16 17 17 18 18 19 19 28 20 20 21 26 22 21 23
 SMILES IDX 25 24 22 25 24 26 23 27 27 29
 H PARENT 28 28

>  <TORSDO>  (1) 
F 9

$$$$
