/home/pchatterjee/Documents/git/vs_workflow/DiffDock/diffdock_run/pdbqt_scrubbed/Z442860920.pdbqt
     RDKit          3D

 28 31  0  0  0  0  0  0  0  0999 V2000
    2.3111   42.8944   50.2696 O   0  0  0  0  0  0  0  0  0  0  0  0
    3.4752   42.4947   50.0700 C   0  0  0  0  0  0  0  0  0  0  0  0
    3.7268   41.1926   49.4366 C   0  0  0  0  0  2  0  0  0  0  0  0
    3.8877   41.3416   48.0630 O   0  0  0  0  0  0  0  0  0  0  0  0
    3.3839   40.1973   47.4527 C   0  0  0  0  0  2  0  0  0  0  0  0
    3.7451   40.2378   45.9866 C   0  0  0  0  0  3  0  0  0  0  0  0
    2.6523   40.4713   45.0026 C   0  0  0  0  0  2  0  0  0  0  0  0
    3.6809   41.5147   45.2108 C   0  0  0  0  0  2  0  0  0  0  0  0
    4.5487   43.3341   50.4724 N   0  0  0  0  0  0  0  0  0  0  0  0
    4.3668   44.7681   50.5126 C   0  0  0  0  0  2  0  0  0  0  0  0
    4.1526   45.2675   51.8869 C   0  0  0  0  0  0  0  0  0  0  0  0
    3.9817   44.3296   52.8838 C   0  0  0  0  0  3  0  0  0  0  0  0
    4.1115   46.5862   52.2417 C   0  0  0  0  0  3  0  0  0  0  0  0
    3.7754   44.6932   54.1983 C   0  0  0  0  0  3  0  0  0  0  0  0
    3.9045   46.9455   53.5608 C   0  0  0  0  0  3  0  0  0  0  0  0
    3.7310   46.0265   54.5747 C   0  0  0  0  0  3  0  0  0  0  0  0
    5.8519   42.8102   50.8548 C   0  0  0  0  0  2  0  0  0  0  0  0
    6.8584   43.8799   51.0197 C   0  0  0  0  0  0  0  0  0  0  0  0
    6.7318   44.9072   51.8745 N   0  0  0  0  0  0  0  0  0  0  0  0
    7.9698   43.7927   50.2461 N   0  0  0  0  0  0  0  0  0  0  0  0
    7.6909   45.8678   51.9873 C   0  0  0  0  0  0  0  0  0  0  0  0
    8.9582   44.7043   50.3035 C   0  0  0  0  0  0  0  0  0  0  0  0
    7.5789   46.9258   52.8558 C   0  0  0  0  0  3  0  0  0  0  0  0
    8.8236   45.7676   51.1903 C   0  0  0  0  0  0  0  0  0  0  0  0
    8.5594   47.8985   52.9643 C   0  0  0  0  0  3  0  0  0  0  0  0
    9.8145   46.7313   51.2854 C   0  0  0  0  0  3  0  0  0  0  0  0
    9.6847   47.7969   52.1710 C   0  0  0  0  0  3  0  0  0  0  0  0
    9.9574   44.5757   49.5701 O   0  0  0  0  0  0  0  0  0  0  0  0
  2  3  1  0
  2  1  2  0
  4  5  1  0
  4  3  1  0
  6  5  1  0
  7  6  1  0
  8  7  1  0
  8  6  1  0
  9  2  1  0
 10  9  1  0
 11 10  1  0
 11 13  1  0
 12 11  2  0
 14 12  1  0
 14 16  2  0
 15 13  2  0
 16 15  1  0
 17  9  1  0
 18 20  1  0
 18 17  1  0
 19 18  2  0
 21 24  2  0
 21 19  1  0
 22 28  2  0
 22 20  1  0
 23 21  1  0
 24 22  1  0
 25 27  1  0
 25 23  2  0
 26 24  1  0
 27 26  2  0
M  RAD  8   3   3   5   3   6   2   7   3   8   3  10   3  12   2  13   2
M  RAD  8  14   2  15   2  16   2  17   3  23   2  25   2  26   2  27   2
M  END
>  <REMARK>  (1) 
 SMILES O=C(COCC1CC1)N(Cc1ccccc1)Cc1nc2ccccc2c(=O)[nH]1
 SMILES IDX 1 1 2 2 3 3 4 4 5 5 6 6 7 7 8 8 9 9 10 10 11 11 12 12 16 13
 SMILES IDX 13 14 15 15 14 16 17 17 18 18 19 19 28 20 20 21 26 22 21 23
 SMILES IDX 25 24 22 25 24 26 23 27 27 29
 H PARENT 28 28

>  <TORSDO>  (1) 
F 9

$$$$
