/home/pchatterjee/Documents/git/vs_workflow/DiffDock/diffdock_run/pdbqt_scrubbed/Z442860920.pdbqt
     RDKit          3D

 28 31  0  0  0  0  0  0  0  0999 V2000
    2.2793   42.9670   50.1042 O   0  0  0  0  0  0  0  0  0  0  0  0
    3.4259   42.5152   49.9147 C   0  0  0  0  0  0  0  0  0  0  0  0
    3.6235   41.1580   49.3868 C   0  0  0  0  0  2  0  0  0  0  0  0
    3.6126   41.1694   47.9959 O   0  0  0  0  0  0  0  0  0  0  0  0
    3.0760   39.9591   47.5682 C   0  0  0  0  0  2  0  0  0  0  0  0
    3.2201   39.8750   46.0670 C   0  0  0  0  0  3  0  0  0  0  0  0
    1.9897   39.9987   45.2377 C   0  0  0  0  0  2  0  0  0  0  0  0
    3.0038   41.0759   45.2024 C   0  0  0  0  0  2  0  0  0  0  0  0
    4.5332   43.3502   50.2237 N   0  0  0  0  0  0  0  0  0  0  0  0
    4.3450   44.7779   50.3559 C   0  0  0  0  0  2  0  0  0  0  0  0
    4.2269   45.1993   51.7675 C   0  0  0  0  0  0  0  0  0  0  0  0
    4.2321   44.2095   52.7281 C   0  0  0  0  0  3  0  0  0  0  0  0
    4.1132   46.4936   52.1898 C   0  0  0  0  0  3  0  0  0  0  0  0
    4.1271   44.4987   54.0727 C   0  0  0  0  0  3  0  0  0  0  0  0
    4.0082   46.7785   53.5388 C   0  0  0  0  0  3  0  0  0  0  0  0
    4.0111   45.8064   54.5175 C   0  0  0  0  0  3  0  0  0  0  0  0
    5.8780   42.8280   50.4183 C   0  0  0  0  0  2  0  0  0  0  0  0
    6.8493   43.8924   50.7471 C   0  0  0  0  0  0  0  0  0  0  0  0
    6.6585   44.8168   51.7016 N   0  0  0  0  0  0  0  0  0  0  0  0
    7.9968   43.9124   50.0231 N   0  0  0  0  0  0  0  0  0  0  0  0
    7.5875   45.7775   51.9646 C   0  0  0  0  0  0  0  0  0  0  0  0
    8.9588   44.8312   50.2271 C   0  0  0  0  0  0  0  0  0  0  0  0
    7.4100   46.7312   52.9367 C   0  0  0  0  0  3  0  0  0  0  0  0
    8.7577   45.7876   51.2169 C   0  0  0  0  0  0  0  0  0  0  0  0
    8.3603   47.7050   53.1977 C   0  0  0  0  0  3  0  0  0  0  0  0
    9.7192   46.7540   51.4641 C   0  0  0  0  0  3  0  0  0  0  0  0
    9.5229   47.7131   52.4532 C   0  0  0  0  0  3  0  0  0  0  0  0
    9.9935   44.8034   49.5331 O   0  0  0  0  0  0  0  0  0  0  0  0
  2  3  1  0
  2  1  2  0
  4  5  1  0
  4  3  1  0
  6  5  1  0
  7  6  1  0
  8  7  1  0
  8  6  1  0
  9  2  1  0
 10  9  1  0
 11 10  1  0
 11 13  1  0
 12 11  2  0
 14 12  1  0
 14 16  2  0
 15 13  2  0
 16 15  1  0
 17  9  1  0
 18 20  1  0
 18 17  1  0
 19 18  2  0
 21 24  2  0
 21 19  1  0
 22 28  2  0
 22 20  1  0
 23 21  1  0
 24 22  1  0
 25 27  1  0
 25 23  2  0
 26 24  1  0
 27 26  2  0
M  RAD  8   3   3   5   3   6   2   7   3   8   3  10   3  12   2  13   2
M  RAD  8  14   2  15   2  16   2  17   3  23   2  25   2  26   2  27   2
M  END
>  <REMARK>  (1) 
 SMILES O=C(COCC1CC1)N(Cc1ccccc1)Cc1nc2ccccc2c(=O)[nH]1
 SMILES IDX 1 1 2 2 3 3 4 4 5 5 6 6 7 7 8 8 9 9 10 10 11 11 12 12 16 13
 SMILES IDX 13 14 15 15 14 16 17 17 18 18 19 19 28 20 20 21 26 22 21 23
 SMILES IDX 25 24 22 25 24 26 23 27 27 29
 H PARENT 28 28

>  <TORSDO>  (1) 
F 9

$$$$
