/home/pchatterjee/Documents/git/vs_workflow/DiffDock/diffdock_run/pdbqt_scrubbed/Z442860920.pdbqt
     RDKit          3D

 28 31  0  0  0  0  0  0  0  0999 V2000
    5.7048   41.5243   49.2654 O   0  0  0  0  0  0  0  0  0  0  0  0
    4.5875   41.9297   49.6424 C   0  0  0  0  0  0  0  0  0  0  0  0
    3.3610   41.5146   48.9471 C   0  0  0  0  0  2  0  0  0  0  0  0
    3.5704   41.4717   47.5727 O   0  0  0  0  0  0  0  0  0  0  0  0
    2.4287   40.9324   46.9886 C   0  0  0  0  0  2  0  0  0  0  0  0
    2.7252   40.6417   45.5363 C   0  0  0  0  0  3  0  0  0  0  0  0
    2.2875   41.6374   44.5196 C   0  0  0  0  0  2  0  0  0  0  0  0
    3.7320   41.4465   44.7781 C   0  0  0  0  0  2  0  0  0  0  0  0
    4.5359   42.8031   50.7620 N   0  0  0  0  0  0  0  0  0  0  0  0
    3.4569   43.7583   50.8823 C   0  0  0  0  0  2  0  0  0  0  0  0
    3.6310   44.6573   52.0422 C   0  0  0  0  0  0  0  0  0  0  0  0
    3.9842   44.0812   53.2446 C   0  0  0  0  0  3  0  0  0  0  0  0
    3.4684   46.0135   52.0111 C   0  0  0  0  0  3  0  0  0  0  0  0
    4.1706   44.8334   54.3857 C   0  0  0  0  0  3  0  0  0  0  0  0
    3.6565   46.7631   53.1577 C   0  0  0  0  0  3  0  0  0  0  0  0
    4.0096   46.2100   54.3710 C   0  0  0  0  0  3  0  0  0  0  0  0
    5.5381   42.7836   51.8176 C   0  0  0  0  0  2  0  0  0  0  0  0
    6.5828   43.8095   51.6161 C   0  0  0  0  0  0  0  0  0  0  0  0
    6.6494   44.9610   52.3030 N   0  0  0  0  0  0  0  0  0  0  0  0
    7.5203   43.5445   50.6715 N   0  0  0  0  0  0  0  0  0  0  0  0
    7.6349   45.8738   52.0776 C   0  0  0  0  0  0  0  0  0  0  0  0
    8.5225   44.3990   50.3948 C   0  0  0  0  0  0  0  0  0  0  0  0
    7.7193   47.0567   52.7701 C   0  0  0  0  0  3  0  0  0  0  0  0
    8.5884   45.5912   51.1084 C   0  0  0  0  0  0  0  0  0  0  0  0
    8.7252   47.9798   52.5344 C   0  0  0  0  0  3  0  0  0  0  0  0
    9.6017   46.5027   50.8593 C   0  0  0  0  0  3  0  0  0  0  0  0
    9.6721   47.6968   51.5705 C   0  0  0  0  0  3  0  0  0  0  0  0
    9.3568   44.1053   49.5169 O   0  0  0  0  0  0  0  0  0  0  0  0
  2  3  1  0
  2  1  2  0
  4  5  1  0
  4  3  1  0
  6  5  1  0
  7  6  1  0
  8  7  1  0
  8  6  1  0
  9  2  1  0
 10  9  1  0
 11 10  1  0
 11 13  1  0
 12 11  2  0
 14 12  1  0
 14 16  2  0
 15 13  2  0
 16 15  1  0
 17  9  1  0
 18 20  1  0
 18 17  1  0
 19 18  2  0
 21 24  2  0
 21 19  1  0
 22 28  2  0
 22 20  1  0
 23 21  1  0
 24 22  1  0
 25 27  1  0
 25 23  2  0
 26 24  1  0
 27 26  2  0
M  RAD  8   3   3   5   3   6   2   7   3   8   3  10   3  12   2  13   2
M  RAD  8  14   2  15   2  16   2  17   3  23   2  25   2  26   2  27   2
M  END
>  <REMARK>  (1) 
 SMILES O=C(COCC1CC1)N(Cc1ccccc1)Cc1nc2ccccc2c(=O)[nH]1
 SMILES IDX 1 1 2 2 3 3 4 4 5 5 6 6 7 7 8 8 9 9 10 10 11 11 12 12 16 13
 SMILES IDX 13 14 15 15 14 16 17 17 18 18 19 19 28 20 20 21 26 22 21 23
 SMILES IDX 25 24 22 25 24 26 23 27 27 29
 H PARENT 28 28

>  <TORSDO>  (1) 
F 9

$$$$
