/home/pchatterjee/Documents/git/vs_workflow/DiffDock/diffdock_run/pdbqt_scrubbed/Z442860920.pdbqt
     RDKit          3D

 28 31  0  0  0  0  0  0  0  0999 V2000
    2.5752   44.0834   51.0921 O   0  0  0  0  0  0  0  0  0  0  0  0
    3.7095   43.7677   51.5024 C   0  0  0  0  0  0  0  0  0  0  0  0
    4.0940   43.9922   52.9031 C   0  0  0  0  0  2  0  0  0  0  0  0
    3.9430   45.3329   53.2412 O   0  0  0  0  0  0  0  0  0  0  0  0
    5.0163   45.6869   54.0526 C   0  0  0  0  0  2  0  0  0  0  0  0
    5.4471   47.0892   53.6925 C   0  0  0  0  0  3  0  0  0  0  0  0
    4.4026   48.1484   53.6316 C   0  0  0  0  0  2  0  0  0  0  0  0
    5.4199   48.1889   54.7055 C   0  0  0  0  0  2  0  0  0  0  0  0
    4.6173   43.1857   50.5771 N   0  0  0  0  0  0  0  0  0  0  0  0
    4.8537   41.7592   50.5990 C   0  0  0  0  0  2  0  0  0  0  0  0
    4.3179   41.0839   49.3987 C   0  0  0  0  0  0  0  0  0  0  0  0
    5.2195   40.7149   48.4222 C   0  0  0  0  0  3  0  0  0  0  0  0
    2.9988   40.7990   49.1856 C   0  0  0  0  0  3  0  0  0  0  0  0
    4.8204   40.0795   47.2648 C   0  0  0  0  0  3  0  0  0  0  0  0
    2.6037   40.1619   48.0237 C   0  0  0  0  0  3  0  0  0  0  0  0
    3.4862   39.7834   47.0334 C   0  0  0  0  0  3  0  0  0  0  0  0
    5.3373   43.9719   49.5860 C   0  0  0  0  0  2  0  0  0  0  0  0
    6.6010   44.5226   50.1192 C   0  0  0  0  0  0  0  0  0  0  0  0
    6.6691   45.4356   51.1011 N   0  0  0  0  0  0  0  0  0  0  0  0
    7.7484   44.0585   49.5631 N   0  0  0  0  0  0  0  0  0  0  0  0
    7.8618   45.9107   51.5562 C   0  0  0  0  0  0  0  0  0  0  0  0
    8.9621   44.4820   49.9615 C   0  0  0  0  0  0  0  0  0  0  0  0
    7.9513   46.8443   52.5593 C   0  0  0  0  0  3  0  0  0  0  0  0
    9.0290   45.4281   50.9791 C   0  0  0  0  0  0  0  0  0  0  0  0
    9.1688   47.3222   53.0163 C   0  0  0  0  0  3  0  0  0  0  0  0
   10.2556   45.8947   51.4234 C   0  0  0  0  0  3  0  0  0  0  0  0
   10.3279   46.8411   52.4412 C   0  0  0  0  0  3  0  0  0  0  0  0
    9.9840   44.0223   49.4161 O   0  0  0  0  0  0  0  0  0  0  0  0
  2  3  1  0
  2  1  2  0
  4  5  1  0
  4  3  1  0
  6  5  1  0
  7  6  1  0
  8  7  1  0
  8  6  1  0
  9  2  1  0
 10  9  1  0
 11 10  1  0
 11 13  1  0
 12 11  2  0
 14 12  1  0
 14 16  2  0
 15 13  2  0
 16 15  1  0
 17  9  1  0
 18 20  1  0
 18 17  1  0
 19 18  2  0
 21 24  2  0
 21 19  1  0
 22 28  2  0
 22 20  1  0
 23 21  1  0
 24 22  1  0
 25 27  1  0
 25 23  2  0
 26 24  1  0
 27 26  2  0
M  RAD  8   3   3   5   3   6   2   7   3   8   3  10   3  12   2  13   2
M  RAD  8  14   2  15   2  16   2  17   3  23   2  25   2  26   2  27   2
M  END
>  <REMARK>  (1) 
 SMILES O=C(COCC1CC1)N(Cc1ccccc1)Cc1nc2ccccc2c(=O)[nH]1
 SMILES IDX 1 1 2 2 3 3 4 4 5 5 6 6 7 7 8 8 9 9 10 10 11 11 12 12 16 13
 SMILES IDX 13 14 15 15 14 16 17 17 18 18 19 19 28 20 20 21 26 22 21 23
 SMILES IDX 25 24 22 25 24 26 23 27 27 29
 H PARENT 28 28

>  <TORSDO>  (1) 
F 9

$$$$
