/home/pchatterjee/Documents/git/vs_workflow/DiffDock/diffdock_run/pdbqt_scrubbed/Z442860920.pdbqt
     RDKit          3D

 28 31  0  0  0  0  0  0  0  0999 V2000
    5.1519   42.1852   48.5039 O   0  0  0  0  0  0  0  0  0  0  0  0
    4.1297   42.5114   49.1390 C   0  0  0  0  0  0  0  0  0  0  0  0
    2.7901   42.2909   48.5760 C   0  0  0  0  0  2  0  0  0  0  0  0
    2.8777   41.6415   47.3491 O   0  0  0  0  0  0  0  0  0  0  0  0
    1.5813   41.3922   46.9102 C   0  0  0  0  0  2  0  0  0  0  0  0
    1.4802   41.7993   45.4591 C   0  0  0  0  0  3  0  0  0  0  0  0
    2.7310   42.1921   44.7535 C   0  0  0  0  0  2  0  0  0  0  0  0
    2.0439   40.9375   44.3747 C   0  0  0  0  0  2  0  0  0  0  0  0
    4.2985   43.1015   50.4205 N   0  0  0  0  0  0  0  0  0  0  0  0
    3.3561   44.0941   50.8872 C   0  0  0  0  0  2  0  0  0  0  0  0
    3.7568   44.6819   52.1825 C   0  0  0  0  0  0  0  0  0  0  0  0
    3.7354   46.0569   52.2894 C   0  0  0  0  0  3  0  0  0  0  0  0
    4.1457   43.9656   53.2789 C   0  0  0  0  0  3  0  0  0  0  0  0
    4.0913   46.7025   53.4552 C   0  0  0  0  0  3  0  0  0  0  0  0
    4.5015   44.6174   54.4453 C   0  0  0  0  0  3  0  0  0  0  0  0
    4.4882   45.9905   54.5763 C   0  0  0  0  0  3  0  0  0  0  0  0
    5.3978   42.7482   51.3069 C   0  0  0  0  0  2  0  0  0  0  0  0
    6.4850   43.7491   51.2761 C   0  0  0  0  0  0  0  0  0  0  0  0
    6.5172   44.8493   52.0446 N   0  0  0  0  0  0  0  0  0  0  0  0
    7.5009   43.5158   50.4073 N   0  0  0  0  0  0  0  0  0  0  0  0
    7.5446   45.7410   51.9765 C   0  0  0  0  0  0  0  0  0  0  0  0
    8.5483   44.3522   50.2858 C   0  0  0  0  0  0  0  0  0  0  0  0
    7.5949   46.8716   52.7545 C   0  0  0  0  0  3  0  0  0  0  0  0
    8.5784   45.4912   51.0837 C   0  0  0  0  0  0  0  0  0  0  0  0
    8.6439   47.7735   52.6789 C   0  0  0  0  0  3  0  0  0  0  0  0
    9.6356   46.3823   50.9945 C   0  0  0  0  0  3  0  0  0  0  0  0
    9.6706   47.5232   51.7905 C   0  0  0  0  0  3  0  0  0  0  0  0
    9.4544   44.0894   49.4716 O   0  0  0  0  0  0  0  0  0  0  0  0
  2  3  1  0
  2  1  2  0
  4  5  1  0
  4  3  1  0
  6  5  1  0
  7  6  1  0
  8  7  1  0
  8  6  1  0
  9  2  1  0
 10  9  1  0
 11 10  1  0
 11 13  1  0
 12 11  2  0
 14 12  1  0
 14 16  2  0
 15 13  2  0
 16 15  1  0
 17  9  1  0
 18 20  1  0
 18 17  1  0
 19 18  2  0
 21 24  2  0
 21 19  1  0
 22 28  2  0
 22 20  1  0
 23 21  1  0
 24 22  1  0
 25 27  1  0
 25 23  2  0
 26 24  1  0
 27 26  2  0
M  RAD  8   3   3   5   3   6   2   7   3   8   3  10   3  12   2  13   2
M  RAD  8  14   2  15   2  16   2  17   3  23   2  25   2  26   2  27   2
M  END
>  <REMARK>  (1) 
 SMILES O=C(COCC1CC1)N(Cc1ccccc1)Cc1nc2ccccc2c(=O)[nH]1
 SMILES IDX 1 1 2 2 3 3 4 4 5 5 6 6 7 7 8 8 9 9 10 10 11 11 12 12 16 13
 SMILES IDX 13 14 15 15 14 16 17 17 18 18 19 19 28 20 20 21 26 22 21 23
 SMILES IDX 25 24 22 25 24 26 23 27 27 29
 H PARENT 28 28

>  <TORSDO>  (1) 
F 9

$$$$
