/home/pchatterjee/Documents/git/vs_workflow/DiffDock/diffdock_run/pdbqt_scrubbed/Z646268634.pdbqt
     RDKit          3D

 26 29  0  0  1  0  0  0  0  0999 V2000
    5.8517   46.0985   53.3437 C   0  0  0  0  0  0  0  0  0  0  0  0
    4.5307   46.4796   53.4309 C   0  0  0  0  0  3  0  0  0  0  0  0
    4.2504   47.6596   54.1179 C   0  0  0  0  0  3  0  0  0  0  0  0
    5.2302   48.4334   54.6957 C   0  0  0  0  0  3  0  0  0  0  0  0
    6.5357   48.0375   54.5977 C   0  0  0  0  0  0  0  0  0  0  0  0
    6.8651   46.8689   53.9231 C   0  0  0  0  0  3  0  0  0  0  0  0
    6.2905   44.8612   52.6393 C   0  0  0  0  0  2  0  0  0  0  0  0
    6.6431   45.1687   51.2711 N   0  0  0  0  0  0  0  0  0  0  0  0
    6.6528   44.2111   50.2300 C   0  0  0  0  0  0  0  0  0  0  0  0
    7.8384   43.9067   49.5530 C   0  0  0  0  0  0  0  0  0  0  0  0
    7.7862   42.9855   48.5695 N   0  0  0  0  0  0  0  0  0  0  0  0
    6.6496   42.3666   48.2311 C   0  0  0  0  0  0  0  0  0  0  0  0
    5.5237   43.5794   49.8756 N   0  0  0  0  0  0  0  0  0  0  0  0
    6.6287   41.4179   47.2087 C   0  0  0  0  0  3  0  0  0  0  0  0
    5.4685   42.6542   48.8886 C   0  0  0  0  0  0  0  0  0  0  0  0
    5.4556   40.7783   46.8585 C   0  0  0  0  0  3  0  0  0  0  0  0
    4.2879   42.0150   48.5411 C   0  0  0  0  0  3  0  0  0  0  0  0
    4.2797   41.0685   47.5173 C   0  0  0  0  0  3  0  0  0  0  0  0
    9.1231   44.5757   49.9024 C   0  0  0  0  0  1  0  0  0  0  0  0
    7.5751   48.7656   55.1542 O   0  0  0  0  0  0  0  0  0  0  0  0
    8.6668   48.0144   55.6926 C   0  0  0  0  0  2  0  0  0  0  0  0
    9.4814   48.8860   56.6253 C   0  0  0  0  0  3  0  0  0  0  0  0
   10.8163   48.1845   56.8286 C   0  0  0  0  0  2  0  0  0  0  0  0
    9.8887   50.0352   55.9472 O   0  0  0  0  0  0  0  0  0  0  0  0
   11.4411   48.3742   55.4436 C   0  0  0  0  0  2  0  0  0  0  0  0
   10.5926   49.5067   54.8737 C   0  0  0  0  0  2  0  0  0  0  0  0
  1  7  1  0
  1  2  2  0
  3  2  1  0
  4  3  2  0
  5  6  2  0
  5  4  1  0
  6  1  1  0
  8  7  1  0
  9  8  1  0
  9 13  1  0
 10  9  2  0
 11 10  1  0
 11 12  2  0
 12 15  1  0
 14 12  1  0
 14 16  2  0
 15 13  2  0
 15 17  1  0
 16 18  1  0
 18 17  2  0
 19 10  1  0
 20  5  1  0
 21 20  1  0
 22 21  1  0
 23 22  1  0
 24 22  1  0
 25 23  1  0
 26 25  1  0
 26 24  1  0
M  RAD  8   2   2   3   2   4   2   6   2   7   3  14   2  16   2  17   2
M  RAD  7  18   2  19   2  21   3  22   2  23   3  25   3  26   3
M  END
>  <REMARK>  (1) 
 SMILES Cc1nc2ccccc2nc1NCc1cccc(OCC2CCCO2)c1
 SMILES IDX 14 1 15 2 16 3 17 4 18 5 26 6 13 7 12 8 11 10 2 11 3 12 4 13
 SMILES IDX 10 14 5 15 9 16 6 17 8 18 7 19 1 20 19 21 20 22 21 23 22 24
 SMILES IDX 25 25 23 26 24 27
 H PARENT 12 9

>  <TORSDO>  (1) 
F 6

$$$$
