/home/pchatterjee/Documents/git/vs_workflow/DiffDock/diffdock_run/pdbqt_scrubbed/Z646268634.pdbqt
     RDKit          3D

 26 29  0  0  1  0  0  0  0  0999 V2000
    8.1861   47.6082   53.8699 C   0  0  0  0  0  0  0  0  0  0  0  0
    9.5147   47.4717   54.2081 C   0  0  0  0  0  3  0  0  0  0  0  0
   10.0221   48.3448   55.1689 C   0  0  0  0  0  3  0  0  0  0  0  0
    9.2536   49.3131   55.7726 C   0  0  0  0  0  3  0  0  0  0  0  0
    7.9367   49.4321   55.4227 C   0  0  0  0  0  0  0  0  0  0  0  0
    7.3852   48.5851   54.4701 C   0  0  0  0  0  3  0  0  0  0  0  0
    7.5169   46.7420   52.8592 C   0  0  0  0  0  2  0  0  0  0  0  0
    8.5021   45.9577   52.1487 N   0  0  0  0  0  0  0  0  0  0  0  0
    8.1749   44.9642   51.1963 C   0  0  0  0  0  0  0  0  0  0  0  0
    9.1416   44.4840   50.3068 C   0  0  0  0  0  0  0  0  0  0  0  0
    8.7711   43.5370   49.4213 N   0  0  0  0  0  0  0  0  0  0  0  0
    7.5246   43.0537   49.3729 C   0  0  0  0  0  0  0  0  0  0  0  0
    6.9307   44.4669   51.1317 N   0  0  0  0  0  0  0  0  0  0  0  0
    7.1728   42.0738   48.4446 C   0  0  0  0  0  3  0  0  0  0  0  0
    6.5561   43.5160   50.2436 C   0  0  0  0  0  0  0  0  0  0  0  0
    5.8860   41.5742   48.3938 C   0  0  0  0  0  3  0  0  0  0  0  0
    5.2626   43.0180   50.1970 C   0  0  0  0  0  3  0  0  0  0  0  0
    4.9231   42.0385   49.2646 C   0  0  0  0  0  3  0  0  0  0  0  0
   10.5398   44.9985   50.3312 C   0  0  0  0  0  1  0  0  0  0  0  0
    7.1024   50.3831   55.9880 O   0  0  0  0  0  0  0  0  0  0  0  0
    5.8139   50.5427   55.3878 C   0  0  0  0  0  2  0  0  0  0  0  0
    5.5653   52.0050   55.0827 C   0  0  0  0  0  3  0  0  0  0  0  0
    4.1584   52.1017   54.5110 C   0  0  0  0  0  2  0  0  0  0  0  0
    5.4123   52.7077   56.2783 O   0  0  0  0  0  0  0  0  0  0  0  0
    3.3306   51.7999   55.7633 C   0  0  0  0  0  2  0  0  0  0  0  0
    4.3484   52.0433   56.8733 C   0  0  0  0  0  2  0  0  0  0  0  0
  1  7  1  0
  1  2  2  0
  3  2  1  0
  4  3  2  0
  5  6  2  0
  5  4  1  0
  6  1  1  0
  8  7  1  0
  9  8  1  0
  9 13  1  0
 10  9  2  0
 11 10  1  0
 11 12  2  0
 12 15  1  0
 14 12  1  0
 14 16  2  0
 15 13  2  0
 15 17  1  0
 16 18  1  0
 18 17  2  0
 19 10  1  0
 20  5  1  0
 21 20  1  0
 22 21  1  0
 23 22  1  0
 24 22  1  0
 25 23  1  0
 26 25  1  0
 26 24  1  0
M  RAD  8   2   2   3   2   4   2   6   2   7   3  14   2  16   2  17   2
M  RAD  7  18   2  19   2  21   3  22   2  23   3  25   3  26   3
M  END
>  <REMARK>  (1) 
 SMILES Cc1nc2ccccc2nc1NCc1cccc(OCC2CCCO2)c1
 SMILES IDX 14 1 15 2 16 3 17 4 18 5 26 6 13 7 12 8 11 10 2 11 3 12 4 13
 SMILES IDX 10 14 5 15 9 16 6 17 8 18 7 19 1 20 19 21 20 22 21 23 22 24
 SMILES IDX 25 25 23 26 24 27
 H PARENT 12 9

>  <TORSDO>  (1) 
F 6

$$$$
