/home/pchatterjee/Documents/git/vs_workflow/DiffDock/diffdock_run/pdbqt_scrubbed/Z646268634.pdbqt
     RDKit          3D

 26 29  0  0  1  0  0  0  0  0999 V2000
    6.1857   47.0098   53.2096 C   0  0  0  0  0  0  0  0  0  0  0  0
    5.2756   46.2374   53.8975 C   0  0  0  0  0  3  0  0  0  0  0  0
    4.8906   46.6785   55.1625 C   0  0  0  0  0  3  0  0  0  0  0  0
    5.3812   47.8327   55.7279 C   0  0  0  0  0  3  0  0  0  0  0  0
    6.2839   48.5853   55.0285 C   0  0  0  0  0  0  0  0  0  0  0  0
    6.6983   48.1871   53.7640 C   0  0  0  0  0  3  0  0  0  0  0  0
    6.6819   46.6551   51.8504 C   0  0  0  0  0  2  0  0  0  0  0  0
    7.3584   45.3778   51.8876 N   0  0  0  0  0  0  0  0  0  0  0  0
    7.3634   44.4616   50.8098 C   0  0  0  0  0  0  0  0  0  0  0  0
    8.5232   44.2549   50.0559 C   0  0  0  0  0  0  0  0  0  0  0  0
    8.4677   43.3692   49.0405 N   0  0  0  0  0  0  0  0  0  0  0  0
    7.3514   42.6954   48.7415 C   0  0  0  0  0  0  0  0  0  0  0  0
    6.2543   43.7763   50.4940 N   0  0  0  0  0  0  0  0  0  0  0  0
    7.3264   41.7857   47.6844 C   0  0  0  0  0  3  0  0  0  0  0  0
    6.1958   42.8865   49.4751 C   0  0  0  0  0  0  0  0  0  0  0  0
    6.1742   41.0894   47.3749 C   0  0  0  0  0  3  0  0  0  0  0  0
    5.0364   42.1902   49.1687 C   0  0  0  0  0  3  0  0  0  0  0  0
    5.0238   41.2834   48.1097 C   0  0  0  0  0  3  0  0  0  0  0  0
    9.7848   44.9872   50.3595 C   0  0  0  0  0  1  0  0  0  0  0  0
    6.8206   49.7587   55.5338 O   0  0  0  0  0  0  0  0  0  0  0  0
    8.2443   49.8086   55.6622 C   0  0  0  0  0  2  0  0  0  0  0  0
    8.6209   50.1774   57.0818 C   0  0  0  0  0  3  0  0  0  0  0  0
   10.1342   50.0536   57.1814 C   0  0  0  0  0  2  0  0  0  0  0  0
    8.4570   51.5512   57.2621 O   0  0  0  0  0  0  0  0  0  0  0  0
   10.5655   51.2454   56.3223 C   0  0  0  0  0  2  0  0  0  0  0  0
    9.2863   52.0755   56.2799 C   0  0  0  0  0  2  0  0  0  0  0  0
  1  7  1  0
  1  2  2  0
  3  2  1  0
  4  3  2  0
  5  6  2  0
  5  4  1  0
  6  1  1  0
  8  7  1  0
  9  8  1  0
  9 13  1  0
 10  9  2  0
 11 10  1  0
 11 12  2  0
 12 15  1  0
 14 12  1  0
 14 16  2  0
 15 13  2  0
 15 17  1  0
 16 18  1  0
 18 17  2  0
 19 10  1  0
 20  5  1  0
 21 20  1  0
 22 21  1  0
 23 22  1  0
 24 22  1  0
 25 23  1  0
 26 25  1  0
 26 24  1  0
M  RAD  8   2   2   3   2   4   2   6   2   7   3  14   2  16   2  17   2
M  RAD  7  18   2  19   2  21   3  22   2  23   3  25   3  26   3
M  END
>  <REMARK>  (1) 
 SMILES Cc1nc2ccccc2nc1NCc1cccc(OCC2CCCO2)c1
 SMILES IDX 14 1 15 2 16 3 17 4 18 5 26 6 13 7 12 8 11 10 2 11 3 12 4 13
 SMILES IDX 10 14 5 15 9 16 6 17 8 18 7 19 1 20 19 21 20 22 21 23 22 24
 SMILES IDX 25 25 23 26 24 27
 H PARENT 12 9

>  <TORSDO>  (1) 
F 6

$$$$
