/home/pchatterjee/Documents/git/vs_workflow/DiffDock/diffdock_run/pdbqt_scrubbed/Z646268634.pdbqt
     RDKit          3D

 26 29  0  0  1  0  0  0  0  0999 V2000
   15.6351   83.9207   70.8367 C   0  0  0  0  0  0  0  0  0  0  0  0
   15.6589   82.5771   71.1401 C   0  0  0  0  0  3  0  0  0  0  0  0
   16.6776   81.8124   70.5740 C   0  0  0  0  0  3  0  0  0  0  0  0
   17.6344   82.3480   69.7431 C   0  0  0  0  0  3  0  0  0  0  0  0
   17.5931   83.6843   69.4545 C   0  0  0  0  0  0  0  0  0  0  0  0
   16.5971   84.4877   69.9945 C   0  0  0  0  0  3  0  0  0  0  0  0
   14.6029   84.8517   71.3730 C   0  0  0  0  0  2  0  0  0  0  0  0
   13.2805   84.3640   71.0505 N   0  0  0  0  0  0  0  0  0  0  0  0
   12.0942   85.0944   71.2959 C   0  0  0  0  0  0  0  0  0  0  0  0
   10.8422   84.5296   71.0314 C   0  0  0  0  0  0  0  0  0  0  0  0
    9.7466   85.2737   71.2853 N   0  0  0  0  0  0  0  0  0  0  0  0
    9.8255   86.5161   71.7749 C   0  0  0  0  0  0  0  0  0  0  0  0
   12.1520   86.3415   71.7867 N   0  0  0  0  0  0  0  0  0  0  0  0
    8.6729   87.2603   72.0269 C   0  0  0  0  0  3  0  0  0  0  0  0
   11.0536   87.0908   72.0425 C   0  0  0  0  0  0  0  0  0  0  0  0
    8.7533   88.5432   72.5324 C   0  0  0  0  0  3  0  0  0  0  0  0
   11.1402   88.3784   72.5500 C   0  0  0  0  0  3  0  0  0  0  0  0
    9.9808   89.1123   72.7978 C   0  0  0  0  0  3  0  0  0  0  0  0
   10.7154   83.1489   70.4859 C   0  0  0  0  0  1  0  0  0  0  0  0
   18.5224   84.2930   68.6263 O   0  0  0  0  0  0  0  0  0  0  0  0
   19.7376   84.7313   69.2405 C   0  0  0  0  0  2  0  0  0  0  0  0
   19.4747   85.9629   70.0814 C   0  0  0  0  0  3  0  0  0  0  0  0
   20.8287   86.4650   70.5611 C   0  0  0  0  0  2  0  0  0  0  0  0
   19.0828   87.0145   69.2524 O   0  0  0  0  0  0  0  0  0  0  0  0
   21.4113   86.9868   69.2447 C   0  0  0  0  0  2  0  0  0  0  0  0
   20.1597   87.1171   68.3823 C   0  0  0  0  0  2  0  0  0  0  0  0
  1  7  1  0
  1  2  2  0
  3  2  1  0
  4  3  2  0
  5  6  2  0
  5  4  1  0
  6  1  1  0
  8  7  1  0
  9  8  1  0
  9 13  1  0
 10  9  2  0
 11 10  1  0
 11 12  2  0
 12 15  1  0
 14 12  1  0
 14 16  2  0
 15 13  2  0
 15 17  1  0
 16 18  1  0
 18 17  2  0
 19 10  1  0
 20  5  1  0
 21 20  1  0
 22 21  1  0
 23 22  1  0
 24 22  1  0
 25 23  1  0
 26 25  1  0
 26 24  1  0
M  RAD  8   2   2   3   2   4   2   6   2   7   3  14   2  16   2  17   2
M  RAD  7  18   2  19   2  21   3  22   2  23   3  25   3  26   3
M  END
>  <REMARK>  (1) 
 SMILES Cc1nc2ccccc2nc1NCc1cccc(OCC2CCCO2)c1
 SMILES IDX 14 1 15 2 16 3 17 4 18 5 26 6 13 7 12 8 11 10 2 11 3 12 4 13
 SMILES IDX 10 14 5 15 9 16 6 17 8 18 7 19 1 20 19 21 20 22 21 23 22 24
 SMILES IDX 25 25 23 26 24 27
 H PARENT 12 9

>  <TORSDO>  (1) 
F 6

$$$$
