/home/pchatterjee/Documents/git/vs_workflow/DiffDock/diffdock_run/pdbqt_scrubbed/Z646268634.pdbqt
     RDKit          3D

 26 29  0  0  1  0  0  0  0  0999 V2000
    7.9867   47.5377   53.9336 C   0  0  0  0  0  0  0  0  0  0  0  0
    9.3156   47.5664   54.2956 C   0  0  0  0  0  3  0  0  0  0  0  0
    9.7455   48.6484   55.0620 C   0  0  0  0  0  3  0  0  0  0  0  0
    8.9022   49.6613   55.4562 C   0  0  0  0  0  3  0  0  0  0  0  0
    7.5863   49.6140   55.0863 C   0  0  0  0  0  0  0  0  0  0  0  0
    7.1104   48.5561   54.3225 C   0  0  0  0  0  3  0  0  0  0  0  0
    7.3956   46.4410   53.1165 C   0  0  0  0  0  2  0  0  0  0  0  0
    8.4124   45.8430   52.2803 N   0  0  0  0  0  0  0  0  0  0  0  0
    8.1397   44.8749   51.2857 C   0  0  0  0  0  0  0  0  0  0  0  0
    9.1151   44.5240   50.3465 C   0  0  0  0  0  0  0  0  0  0  0  0
    8.7976   43.5949   49.4222 N   0  0  0  0  0  0  0  0  0  0  0  0
    7.5948   43.0107   49.3815 C   0  0  0  0  0  0  0  0  0  0  0  0
    6.9399   44.2776   51.2280 N   0  0  0  0  0  0  0  0  0  0  0  0
    7.2973   42.0527   48.4123 C   0  0  0  0  0  3  0  0  0  0  0  0
    6.6185   43.3445   50.3010 C   0  0  0  0  0  0  0  0  0  0  0  0
    6.0556   41.4489   48.3694 C   0  0  0  0  0  3  0  0  0  0  0  0
    5.3703   42.7415   50.2626 C   0  0  0  0  0  3  0  0  0  0  0  0
    5.0848   41.7852   49.2889 C   0  0  0  0  0  3  0  0  0  0  0  0
   10.4656   45.1534   50.3609 C   0  0  0  0  0  1  0  0  0  0  0  0
    6.6791   50.5977   55.4462 O   0  0  0  0  0  0  0  0  0  0  0  0
    5.3912   50.5388   54.8268 C   0  0  0  0  0  2  0  0  0  0  0  0
    5.1414   51.8059   54.0360 C   0  0  0  0  0  3  0  0  0  0  0  0
    3.8168   51.6178   53.3111 C   0  0  0  0  0  2  0  0  0  0  0  0
    4.8170   52.8419   54.9122 O   0  0  0  0  0  0  0  0  0  0  0  0
    2.8451   51.6765   54.4930 C   0  0  0  0  0  2  0  0  0  0  0  0
    3.7055   52.3315   55.5690 C   0  0  0  0  0  2  0  0  0  0  0  0
  1  7  1  0
  1  2  2  0
  3  2  1  0
  4  3  2  0
  5  6  2  0
  5  4  1  0
  6  1  1  0
  8  7  1  0
  9  8  1  0
  9 13  1  0
 10  9  2  0
 11 10  1  0
 11 12  2  0
 12 15  1  0
 14 12  1  0
 14 16  2  0
 15 13  2  0
 15 17  1  0
 16 18  1  0
 18 17  2  0
 19 10  1  0
 20  5  1  0
 21 20  1  0
 22 21  1  0
 23 22  1  0
 24 22  1  0
 25 23  1  0
 26 25  1  0
 26 24  1  0
M  RAD  8   2   2   3   2   4   2   6   2   7   3  14   2  16   2  17   2
M  RAD  7  18   2  19   2  21   3  22   2  23   3  25   3  26   3
M  END
>  <REMARK>  (1) 
 SMILES Cc1nc2ccccc2nc1NCc1cccc(OCC2CCCO2)c1
 SMILES IDX 14 1 15 2 16 3 17 4 18 5 26 6 13 7 12 8 11 10 2 11 3 12 4 13
 SMILES IDX 10 14 5 15 9 16 6 17 8 18 7 19 1 20 19 21 20 22 21 23 22 24
 SMILES IDX 25 25 23 26 24 27
 H PARENT 12 9

>  <TORSDO>  (1) 
F 6

$$$$
