/home/pchatterjee/Documents/git/vs_workflow/DiffDock/diffdock_run/pdbqt_scrubbed/Z646268634.pdbqt
     RDKit          3D

 26 29  0  0  1  0  0  0  0  0999 V2000
    8.4169   48.0205   53.9742 C   0  0  0  0  0  0  0  0  0  0  0  0
    9.6192   47.6410   54.5296 C   0  0  0  0  0  3  0  0  0  0  0  0
   10.1577   48.4686   55.5135 C   0  0  0  0  0  3  0  0  0  0  0  0
    9.5385   49.6228   55.9340 C   0  0  0  0  0  3  0  0  0  0  0  0
    8.3454   49.9819   55.3699 C   0  0  0  0  0  0  0  0  0  0  0  0
    7.7687   49.1896   54.3856 C   0  0  0  0  0  3  0  0  0  0  0  0
    7.7311   47.2290   52.9146 C   0  0  0  0  0  2  0  0  0  0  0  0
    8.6400   46.2502   52.3609 N   0  0  0  0  0  0  0  0  0  0  0  0
    8.2500   45.2530   51.4366 C   0  0  0  0  0  0  0  0  0  0  0  0
    9.1446   44.7937   50.4644 C   0  0  0  0  0  0  0  0  0  0  0  0
    8.7165   43.8418   49.6105 N   0  0  0  0  0  0  0  0  0  0  0  0
    7.4799   43.3347   49.6688 C   0  0  0  0  0  0  0  0  0  0  0  0
    7.0146   44.7318   51.4784 N   0  0  0  0  0  0  0  0  0  0  0  0
    7.0673   42.3505   48.7706 C   0  0  0  0  0  3  0  0  0  0  0  0
    6.5822   43.7761   50.6223 C   0  0  0  0  0  0  0  0  0  0  0  0
    5.7907   41.8263   48.8299 C   0  0  0  0  0  3  0  0  0  0  0  0
    5.2994   43.2533   50.6864 C   0  0  0  0  0  3  0  0  0  0  0  0
    4.8986   42.2698   49.7830 C   0  0  0  0  0  3  0  0  0  0  0  0
   10.5295   45.3350   50.3692 C   0  0  0  0  0  1  0  0  0  0  0  0
    7.6645   51.1297   55.7429 O   0  0  0  0  0  0  0  0  0  0  0  0
    6.3357   50.9525   56.2418 C   0  0  0  0  0  2  0  0  0  0  0  0
    5.3979   51.9330   55.5692 C   0  0  0  0  0  3  0  0  0  0  0  0
    4.2013   52.1018   56.4940 C   0  0  0  0  0  2  0  0  0  0  0  0
    5.9519   53.2124   55.6197 O   0  0  0  0  0  0  0  0  0  0  0  0
    4.8487   52.8795   57.6432 C   0  0  0  0  0  2  0  0  0  0  0  0
    6.1208   53.4038   56.9843 C   0  0  0  0  0  2  0  0  0  0  0  0
  1  7  1  0
  1  2  2  0
  3  2  1  0
  4  3  2  0
  5  6  2  0
  5  4  1  0
  6  1  1  0
  8  7  1  0
  9  8  1  0
  9 13  1  0
 10  9  2  0
 11 10  1  0
 11 12  2  0
 12 15  1  0
 14 12  1  0
 14 16  2  0
 15 13  2  0
 15 17  1  0
 16 18  1  0
 18 17  2  0
 19 10  1  0
 20  5  1  0
 21 20  1  0
 22 21  1  0
 23 22  1  0
 24 22  1  0
 25 23  1  0
 26 25  1  0
 26 24  1  0
M  RAD  8   2   2   3   2   4   2   6   2   7   3  14   2  16   2  17   2
M  RAD  7  18   2  19   2  21   3  22   2  23   3  25   3  26   3
M  END
>  <REMARK>  (1) 
 SMILES Cc1nc2ccccc2nc1NCc1cccc(OCC2CCCO2)c1
 SMILES IDX 14 1 15 2 16 3 17 4 18 5 26 6 13 7 12 8 11 10 2 11 3 12 4 13
 SMILES IDX 10 14 5 15 9 16 6 17 8 18 7 19 1 20 19 21 20 22 21 23 22 24
 SMILES IDX 25 25 23 26 24 27
 H PARENT 12 9

>  <TORSDO>  (1) 
F 6

$$$$
