/home/pchatterjee/Documents/git/vs_workflow/DiffDock/diffdock_run/pdbqt_scrubbed/Z646268634.pdbqt
     RDKit          3D

 26 29  0  0  1  0  0  0  0  0999 V2000
    8.3821   47.9267   53.9309 C   0  0  0  0  0  0  0  0  0  0  0  0
    9.5952   47.4963   54.4219 C   0  0  0  0  0  3  0  0  0  0  0  0
   10.1626   48.2346   55.4592 C   0  0  0  0  0  3  0  0  0  0  0  0
    9.5609   49.3513   55.9917 C   0  0  0  0  0  3  0  0  0  0  0  0
    8.3566   49.7620   55.4900 C   0  0  0  0  0  0  0  0  0  0  0  0
    7.7513   49.0590   54.4563 C   0  0  0  0  0  3  0  0  0  0  0  0
    7.6659   47.2313   52.8249 C   0  0  0  0  0  2  0  0  0  0  0  0
    8.5712   46.3443   52.1290 N   0  0  0  0  0  0  0  0  0  0  0  0
    8.1478   45.3532   51.2127 C   0  0  0  0  0  0  0  0  0  0  0  0
    8.9925   44.9285   50.1819 C   0  0  0  0  0  0  0  0  0  0  0  0
    8.5343   43.9809   49.3390 N   0  0  0  0  0  0  0  0  0  0  0  0
    7.3141   43.4464   49.4616 C   0  0  0  0  0  0  0  0  0  0  0  0
    6.9281   44.8049   51.3186 N   0  0  0  0  0  0  0  0  0  0  0  0
    6.8694   42.4674   48.5730 C   0  0  0  0  0  3  0  0  0  0  0  0
    6.4656   43.8534   50.4736 C   0  0  0  0  0  0  0  0  0  0  0  0
    5.6097   41.9149   48.6987 C   0  0  0  0  0  3  0  0  0  0  0  0
    5.1999   43.3020   50.6045 C   0  0  0  0  0  3  0  0  0  0  0  0
    4.7666   42.3242   49.7100 C   0  0  0  0  0  3  0  0  0  0  0  0
   10.3579   45.5010   50.0143 C   0  0  0  0  0  1  0  0  0  0  0  0
    7.6921   50.8765   55.9762 O   0  0  0  0  0  0  0  0  0  0  0  0
    6.3262   50.6916   56.3585 C   0  0  0  0  0  2  0  0  0  0  0  0
    5.5237   51.9298   56.0177 C   0  0  0  0  0  3  0  0  0  0  0  0
    4.1540   51.7557   56.6573 C   0  0  0  0  0  2  0  0  0  0  0  0
    6.0167   53.0149   56.7429 O   0  0  0  0  0  0  0  0  0  0  0  0
    4.5202   51.9015   58.1369 C   0  0  0  0  0  2  0  0  0  0  0  0
    5.8870   52.5738   58.0528 C   0  0  0  0  0  2  0  0  0  0  0  0
  1  7  1  0
  1  2  2  0
  3  2  1  0
  4  3  2  0
  5  6  2  0
  5  4  1  0
  6  1  1  0
  8  7  1  0
  9  8  1  0
  9 13  1  0
 10  9  2  0
 11 10  1  0
 11 12  2  0
 12 15  1  0
 14 12  1  0
 14 16  2  0
 15 13  2  0
 15 17  1  0
 16 18  1  0
 18 17  2  0
 19 10  1  0
 20  5  1  0
 21 20  1  0
 22 21  1  0
 23 22  1  0
 24 22  1  0
 25 23  1  0
 26 25  1  0
 26 24  1  0
M  RAD  8   2   2   3   2   4   2   6   2   7   3  14   2  16   2  17   2
M  RAD  7  18   2  19   2  21   3  22   2  23   3  25   3  26   3
M  END
>  <REMARK>  (1) 
 SMILES Cc1nc2ccccc2nc1NCc1cccc(OCC2CCCO2)c1
 SMILES IDX 14 1 15 2 16 3 17 4 18 5 26 6 13 7 12 8 11 10 2 11 3 12 4 13
 SMILES IDX 10 14 5 15 9 16 6 17 8 18 7 19 1 20 19 21 20 22 21 23 22 24
 SMILES IDX 25 25 23 26 24 27
 H PARENT 12 9

>  <TORSDO>  (1) 
F 6

$$$$
