/home/pchatterjee/Documents/git/vs_workflow/DiffDock/diffdock_run/pdbqt_scrubbed/Z646268634.pdbqt
     RDKit          3D

 26 29  0  0  1  0  0  0  0  0999 V2000
    7.9472   47.5967   53.9923 C   0  0  0  0  0  0  0  0  0  0  0  0
    9.2794   47.5551   54.3411 C   0  0  0  0  0  3  0  0  0  0  0  0
    9.7427   48.5405   55.2113 C   0  0  0  0  0  3  0  0  0  0  0  0
    8.9285   49.5269   55.7179 C   0  0  0  0  0  3  0  0  0  0  0  0
    7.6089   49.5505   55.3592 C   0  0  0  0  0  0  0  0  0  0  0  0
    7.1002   48.5899   54.4946 C   0  0  0  0  0  3  0  0  0  0  0  0
    7.3221   46.6060   53.0718 C   0  0  0  0  0  2  0  0  0  0  0  0
    8.3472   45.8572   52.3797 N   0  0  0  0  0  0  0  0  0  0  0  0
    8.0731   44.8671   51.4072 C   0  0  0  0  0  0  0  0  0  0  0  0
    9.0763   44.4242   50.5390 C   0  0  0  0  0  0  0  0  0  0  0  0
    8.7559   43.4785   49.6327 N   0  0  0  0  0  0  0  0  0  0  0  0
    7.5248   42.9624   49.5446 C   0  0  0  0  0  0  0  0  0  0  0  0
    6.8451   44.3372   51.3028 N   0  0  0  0  0  0  0  0  0  0  0  0
    7.2251   41.9850   48.5957 C   0  0  0  0  0  3  0  0  0  0  0  0
    6.5208   43.3876   50.3938 C   0  0  0  0  0  0  0  0  0  0  0  0
    5.9542   41.4515   48.5039 C   0  0  0  0  0  3  0  0  0  0  0  0
    5.2432   42.8555   50.3061 C   0  0  0  0  0  3  0  0  0  0  0  0
    4.9558   41.8788   49.3533 C   0  0  0  0  0  3  0  0  0  0  0  0
   10.4587   44.9759   50.6076 C   0  0  0  0  0  1  0  0  0  0  0  0
    6.7298   50.5130   55.8293 O   0  0  0  0  0  0  0  0  0  0  0  0
    5.4812   50.6305   55.1416 C   0  0  0  0  0  2  0  0  0  0  0  0
    5.2729   52.0618   54.6930 C   0  0  0  0  0  3  0  0  0  0  0  0
    4.3429   52.0144   53.4896 C   0  0  0  0  0  2  0  0  0  0  0  0
    4.4692   52.7253   55.6206 O   0  0  0  0  0  0  0  0  0  0  0  0
    3.0332   51.6054   54.1693 C   0  0  0  0  0  2  0  0  0  0  0  0
    3.3241   51.9404   55.6289 C   0  0  0  0  0  2  0  0  0  0  0  0
  1  7  1  0
  1  2  2  0
  3  2  1  0
  4  3  2  0
  5  6  2  0
  5  4  1  0
  6  1  1  0
  8  7  1  0
  9  8  1  0
  9 13  1  0
 10  9  2  0
 11 10  1  0
 11 12  2  0
 12 15  1  0
 14 12  1  0
 14 16  2  0
 15 13  2  0
 15 17  1  0
 16 18  1  0
 18 17  2  0
 19 10  1  0
 20  5  1  0
 21 20  1  0
 22 21  1  0
 23 22  1  0
 24 22  1  0
 25 23  1  0
 26 25  1  0
 26 24  1  0
M  RAD  8   2   2   3   2   4   2   6   2   7   3  14   2  16   2  17   2
M  RAD  7  18   2  19   2  21   3  22   2  23   3  25   3  26   3
M  END
>  <REMARK>  (1) 
 SMILES Cc1nc2ccccc2nc1NCc1cccc(OCC2CCCO2)c1
 SMILES IDX 14 1 15 2 16 3 17 4 18 5 26 6 13 7 12 8 11 10 2 11 3 12 4 13
 SMILES IDX 10 14 5 15 9 16 6 17 8 18 7 19 1 20 19 21 20 22 21 23 22 24
 SMILES IDX 25 25 23 26 24 27
 H PARENT 12 9

>  <TORSDO>  (1) 
F 6

$$$$
