/home/pchatterjee/Documents/git/vs_workflow/DiffDock/diffdock_run/pdbqt_scrubbed/Z646268634.pdbqt
     RDKit          3D

 26 29  0  0  1  0  0  0  0  0999 V2000
    8.5413   48.2345   54.0098 C   0  0  0  0  0  0  0  0  0  0  0  0
    9.6130   47.7826   54.7482 C   0  0  0  0  0  3  0  0  0  0  0  0
   10.1740   48.6677   55.6673 C   0  0  0  0  0  3  0  0  0  0  0  0
    9.6999   49.9458   55.8524 C   0  0  0  0  0  3  0  0  0  0  0  0
    8.6350   50.3751   55.1093 C   0  0  0  0  0  0  0  0  0  0  0  0
    8.0419   49.5297   54.1805 C   0  0  0  0  0  3  0  0  0  0  0  0
    7.8482   47.3933   52.9941 C   0  0  0  0  0  2  0  0  0  0  0  0
    8.7533   46.3889   52.4816 N   0  0  0  0  0  0  0  0  0  0  0  0
    8.3564   45.3468   51.6112 C   0  0  0  0  0  0  0  0  0  0  0  0
    9.2798   44.7502   50.7465 C   0  0  0  0  0  0  0  0  0  0  0  0
    8.8434   43.7616   49.9399 N   0  0  0  0  0  0  0  0  0  0  0  0
    7.5723   43.3446   49.9457 C   0  0  0  0  0  0  0  0  0  0  0  0
    7.0865   44.9144   51.6019 N   0  0  0  0  0  0  0  0  0  0  0  0
    7.1519   42.3191   49.0987 C   0  0  0  0  0  3  0  0  0  0  0  0
    6.6457   43.9220   50.7931 C   0  0  0  0  0  0  0  0  0  0  0  0
    5.8397   41.8877   49.1040 C   0  0  0  0  0  3  0  0  0  0  0  0
    5.3270   43.4929   50.8025 C   0  0  0  0  0  3  0  0  0  0  0  0
    4.9189   42.4669   49.9511 C   0  0  0  0  0  3  0  0  0  0  0  0
   10.7035   45.1883   50.7122 C   0  0  0  0  0  1  0  0  0  0  0  0
    8.1037   51.6481   55.2413 O   0  0  0  0  0  0  0  0  0  0  0  0
    7.2005   51.8553   56.3308 C   0  0  0  0  0  2  0  0  0  0  0  0
    6.1359   52.8567   55.9342 C   0  0  0  0  0  3  0  0  0  0  0  0
    5.5726   53.4338   57.2245 C   0  0  0  0  0  2  0  0  0  0  0  0
    6.7442   53.9856   55.3846 O   0  0  0  0  0  0  0  0  0  0  0  0
    6.7649   54.2711   57.6956 C   0  0  0  0  0  2  0  0  0  0  0  0
    7.5815   54.3959   56.4131 C   0  0  0  0  0  2  0  0  0  0  0  0
  1  7  1  0
  1  2  2  0
  3  2  1  0
  4  3  2  0
  5  6  2  0
  5  4  1  0
  6  1  1  0
  8  7  1  0
  9  8  1  0
  9 13  1  0
 10  9  2  0
 11 10  1  0
 11 12  2  0
 12 15  1  0
 14 12  1  0
 14 16  2  0
 15 13  2  0
 15 17  1  0
 16 18  1  0
 18 17  2  0
 19 10  1  0
 20  5  1  0
 21 20  1  0
 22 21  1  0
 23 22  1  0
 24 22  1  0
 25 23  1  0
 26 25  1  0
 26 24  1  0
M  RAD  8   2   2   3   2   4   2   6   2   7   3  14   2  16   2  17   2
M  RAD  7  18   2  19   2  21   3  22   2  23   3  25   3  26   3
M  END
>  <REMARK>  (1) 
 SMILES Cc1nc2ccccc2nc1NCc1cccc(OCC2CCCO2)c1
 SMILES IDX 14 1 15 2 16 3 17 4 18 5 26 6 13 7 12 8 11 10 2 11 3 12 4 13
 SMILES IDX 10 14 5 15 9 16 6 17 8 18 7 19 1 20 19 21 20 22 21 23 22 24
 SMILES IDX 25 25 23 26 24 27
 H PARENT 12 9

>  <TORSDO>  (1) 
F 6

$$$$
