/home/pchatterjee/Documents/git/vs_workflow/DiffDock/diffdock_run/pdbqt_scrubbed/Z646268634.pdbqt
     RDKit          3D

 26 29  0  0  1  0  0  0  0  0999 V2000
    8.7428   48.0723   54.1446 C   0  0  0  0  0  0  0  0  0  0  0  0
    9.8050   47.5112   54.8190 C   0  0  0  0  0  3  0  0  0  0  0  0
   10.4396   48.2981   55.7788 C   0  0  0  0  0  3  0  0  0  0  0  0
   10.0452   49.5849   56.0634 C   0  0  0  0  0  3  0  0  0  0  0  0
    8.9883   50.1234   55.3825 C   0  0  0  0  0  0  0  0  0  0  0  0
    8.3237   49.3786   54.4168 C   0  0  0  0  0  3  0  0  0  0  0  0
    7.9764   47.3433   53.0954 C   0  0  0  0  0  2  0  0  0  0  0  0
    8.8405   46.4075   52.4110 N   0  0  0  0  0  0  0  0  0  0  0  0
    8.3787   45.4597   51.4678 C   0  0  0  0  0  0  0  0  0  0  0  0
    9.2345   44.9635   50.4790 C   0  0  0  0  0  0  0  0  0  0  0  0
    8.7382   44.0620   49.6075 N   0  0  0  0  0  0  0  0  0  0  0  0
    7.4707   43.6378   49.6639 C   0  0  0  0  0  0  0  0  0  0  0  0
    7.1113   45.0219   51.5074 N   0  0  0  0  0  0  0  0  0  0  0  0
    6.9874   42.7040   48.7474 C   0  0  0  0  0  3  0  0  0  0  0  0
    6.6105   44.1168   50.6338 C   0  0  0  0  0  0  0  0  0  0  0  0
    5.6788   42.2654   48.8047 C   0  0  0  0  0  3  0  0  0  0  0  0
    5.2958   43.6800   50.6960 C   0  0  0  0  0  3  0  0  0  0  0  0
    4.8243   42.7461   49.7741 C   0  0  0  0  0  3  0  0  0  0  0  0
   10.6521   45.4127   50.3853 C   0  0  0  0  0  1  0  0  0  0  0  0
    8.5353   51.4121   55.6155 O   0  0  0  0  0  0  0  0  0  0  0  0
    7.4242   51.5492   56.5059 C   0  0  0  0  0  2  0  0  0  0  0  0
    6.6472   52.8049   56.1706 C   0  0  0  0  0  3  0  0  0  0  0  0
    5.9518   53.2464   57.4500 C   0  0  0  0  0  2  0  0  0  0  0  0
    7.5369   53.8619   55.9765 O   0  0  0  0  0  0  0  0  0  0  0  0
    7.1560   53.7187   58.2693 C   0  0  0  0  0  2  0  0  0  0  0  0
    8.2160   53.8978   57.1868 C   0  0  0  0  0  2  0  0  0  0  0  0
  1  7  1  0
  1  2  2  0
  3  2  1  0
  4  3  2  0
  5  6  2  0
  5  4  1  0
  6  1  1  0
  8  7  1  0
  9  8  1  0
  9 13  1  0
 10  9  2  0
 11 10  1  0
 11 12  2  0
 12 15  1  0
 14 12  1  0
 14 16  2  0
 15 13  2  0
 15 17  1  0
 16 18  1  0
 18 17  2  0
 19 10  1  0
 20  5  1  0
 21 20  1  0
 22 21  1  0
 23 22  1  0
 24 22  1  0
 25 23  1  0
 26 25  1  0
 26 24  1  0
M  RAD  8   2   2   3   2   4   2   6   2   7   3  14   2  16   2  17   2
M  RAD  7  18   2  19   2  21   3  22   2  23   3  25   3  26   3
M  END
>  <REMARK>  (1) 
 SMILES Cc1nc2ccccc2nc1NCc1cccc(OCC2CCCO2)c1
 SMILES IDX 14 1 15 2 16 3 17 4 18 5 26 6 13 7 12 8 11 10 2 11 3 12 4 13
 SMILES IDX 10 14 5 15 9 16 6 17 8 18 7 19 1 20 19 21 20 22 21 23 22 24
 SMILES IDX 25 25 23 26 24 27
 H PARENT 12 9

>  <TORSDO>  (1) 
F 6

$$$$
