/home/pchatterjee/Documents/git/vs_workflow/DiffDock/diffdock_run/pdbqt_scrubbed/76328458.pdbqt
     RDKit          3D

 24 27  0  0  1  0  0  0  0  0999 V2000
    9.5222   45.4701   50.1121 C   0  0  0  0  0  0  0  0  0  0  0  0
    8.6227   46.0447   51.0685 N   0  0  0  0  0  0  0  0  0  0  0  0
    7.5294   45.4108   51.4550 C   0  0  0  0  0  0  0  0  0  0  0  0
    7.2425   44.1488   50.9274 C   0  0  0  0  0  3  0  0  0  0  0  0
    6.0141   43.5132   50.8280 N   0  0  0  0  0  0  0  0  0  0  0  0
    6.3210   42.1731   50.2546 C   0  0  0  0  0  3  0  0  0  0  0  0
    7.5895   42.4403   49.5595 N   0  0  0  0  0  0  0  0  0  0  0  0
    8.1121   43.5564   49.9362 C   0  0  0  0  0  0  0  0  0  0  0  0
    9.2962   44.2965   49.5724 N   0  0  0  0  0  0  0  0  0  0  0  0
   10.7021   46.1679   49.7166 N   0  0  0  0  0  0  0  0  0  0  0  0
    6.7176   46.0492   52.3786 O   0  0  0  0  0  0  0  0  0  0  0  0
    7.0961   47.3468   52.8624 C   0  0  0  0  0  2  0  0  0  0  0  0
    6.0226   47.8467   53.8336 C   0  0  0  0  0  3  0  0  0  0  0  0
    4.7069   47.2186   53.4455 C   0  0  0  0  0  2  0  0  0  0  0  0
    5.9495   49.3372   53.7542 C   0  0  0  0  0  2  0  0  0  0  0  0
    3.5121   48.0899   53.6557 C   0  0  0  0  0  2  0  0  0  0  0  0
    4.9229   49.8665   54.7196 C   0  0  0  0  0  2  0  0  0  0  0  0
    3.6600   49.0668   54.7775 C   0  0  0  0  0  2  0  0  0  0  0  0
    5.2604   41.7116   49.3634 C   0  0  0  0  0  0  0  0  0  0  0  0
    5.6118   41.0917   48.1828 C   0  0  0  0  0  3  0  0  0  0  0  0
    3.9132   41.8665   49.6470 C   0  0  0  0  0  3  0  0  0  0  0  0
    4.6606   40.6392   47.3100 C   0  0  0  0  0  3  0  0  0  0  0  0
    2.9626   41.4063   48.7596 C   0  0  0  0  0  3  0  0  0  0  0  0
    3.3254   40.7956   47.5965 C   0  0  0  0  0  3  0  0  0  0  0  0
  1 10  1  0
  2  1  1  0
  3  2  2  0
  4  3  1  0
  4  8  1  0
  5  6  1  0
  5  4  1  0
  6 19  1  0
  6  7  1  0
  7  8  2  0
  8  9  1  0
  9  1  2  0
 11 12  1  0
 11  3  1  0
 12 13  1  0
 13 15  1  0
 14 16  1  0
 14 13  1  0
 15 17  1  0
 16 18  1  0
 18 17  1  0
 19 20  2  0
 21 19  1  0
 22 20  1  0
 23 24  1  0
 23 21  2  0
 24 22  2  0
M  RAD  8   4   2   6   2  12   3  13   2  14   3  15   3  16   3  17   3
M  RAD  6  18   3  20   2  21   2  22   2  23   2  24   2
M  END
>  <REMARK>  (1) 
 SMILES Nc1nc(OCC2CCCCC2)c2[nH]c(-c3ccccc3)nc2n1
 SMILES IDX 2 1 3 2 4 3 13 4 14 5 15 6 22 7 23 8 24 9 1 11 5 14 6 15
 SMILES IDX 7 16 8 17 12 18 9 19 11 20 10 21 16 22 17 23 21 24 18 25
 SMILES IDX 20 26 19 27
 H PARENT 14 10 1 12 1 13

>  <TORSDO>  (1) 
F 5

$$$$
