/home/pchatterjee/Documents/git/vs_workflow/DiffDock/diffdock_run/pdbqt_scrubbed/76328458.pdbqt
     RDKit          3D

 24 27  0  0  1  0  0  0  0  0999 V2000
    9.4536   45.2661   50.1746 C   0  0  0  0  0  0  0  0  0  0  0  0
    8.6055   45.7330   51.2313 N   0  0  0  0  0  0  0  0  0  0  0  0
    7.5193   45.0702   51.5883 C   0  0  0  0  0  0  0  0  0  0  0  0
    7.1893   43.8832   50.9283 C   0  0  0  0  0  3  0  0  0  0  0  0
    5.9474   43.2779   50.8091 N   0  0  0  0  0  0  0  0  0  0  0  0
    6.2072   42.0122   50.0681 C   0  0  0  0  0  3  0  0  0  0  0  0
    7.4491   42.3457   49.3538 N   0  0  0  0  0  0  0  0  0  0  0  0
    8.0057   43.4031   49.8363 C   0  0  0  0  0  0  0  0  0  0  0  0
    9.1853   44.1677   49.5103 N   0  0  0  0  0  0  0  0  0  0  0  0
   10.6269   45.9926   49.8123 N   0  0  0  0  0  0  0  0  0  0  0  0
    6.7585   45.6033   52.6162 O   0  0  0  0  0  0  0  0  0  0  0  0
    6.2594   46.9437   52.4931 C   0  0  0  0  0  2  0  0  0  0  0  0
    4.7981   46.9728   52.9506 C   0  0  0  0  0  3  0  0  0  0  0  0
    4.0670   45.8454   52.2646 C   0  0  0  0  0  2  0  0  0  0  0  0
    4.2015   48.2954   52.5924 C   0  0  0  0  0  2  0  0  0  0  0  0
    2.6469   46.1445   51.9114 C   0  0  0  0  0  2  0  0  0  0  0  0
    2.7709   48.3706   53.0549 C   0  0  0  0  0  2  0  0  0  0  0  0
    1.9829   47.1192   52.8299 C   0  0  0  0  0  2  0  0  0  0  0  0
    5.1020   41.6720   49.1766 C   0  0  0  0  0  0  0  0  0  0  0  0
    3.8120   41.7771   49.6526 C   0  0  0  0  0  3  0  0  0  0  0  0
    5.2865   41.2472   47.8709 C   0  0  0  0  0  3  0  0  0  0  0  0
    2.7382   41.4716   48.8620 C   0  0  0  0  0  3  0  0  0  0  0  0
    4.1964   40.9418   47.0827 C   0  0  0  0  0  3  0  0  0  0  0  0
    2.9273   41.0506   47.5673 C   0  0  0  0  0  3  0  0  0  0  0  0
  1 10  1  0
  2  1  1  0
  3  2  2  0
  4  3  1  0
  4  8  1  0
  5  6  1  0
  5  4  1  0
  6 19  1  0
  6  7  1  0
  7  8  2  0
  8  9  1  0
  9  1  2  0
 11 12  1  0
 11  3  1  0
 12 13  1  0
 13 15  1  0
 14 16  1  0
 14 13  1  0
 15 17  1  0
 16 18  1  0
 18 17  1  0
 19 20  2  0
 21 19  1  0
 22 20  1  0
 23 24  1  0
 23 21  2  0
 24 22  2  0
M  RAD  8   4   2   6   2  12   3  13   2  14   3  15   3  16   3  17   3
M  RAD  6  18   3  20   2  21   2  22   2  23   2  24   2
M  END
>  <REMARK>  (1) 
 SMILES Nc1nc(OCC2CCCCC2)c2[nH]c(-c3ccccc3)nc2n1
 SMILES IDX 2 1 3 2 4 3 13 4 14 5 15 6 22 7 23 8 24 9 1 11 5 14 6 15
 SMILES IDX 7 16 8 17 12 18 9 19 11 20 10 21 16 22 17 23 21 24 18 25
 SMILES IDX 20 26 19 27
 H PARENT 14 10 1 12 1 13

>  <TORSDO>  (1) 
F 5

$$$$
