/home/pchatterjee/Documents/git/vs_workflow/DiffDock/diffdock_run/pdbqt_scrubbed/76328458.pdbqt
     RDKit          3D

 24 27  0  0  1  0  0  0  0  0999 V2000
    9.4850   45.4564   50.1865 C   0  0  0  0  0  0  0  0  0  0  0  0
    8.5999   45.9003   51.2225 N   0  0  0  0  0  0  0  0  0  0  0  0
    7.5490   45.1858   51.5855 C   0  0  0  0  0  0  0  0  0  0  0  0
    7.2943   43.9660   50.9526 C   0  0  0  0  0  3  0  0  0  0  0  0
    6.0901   43.2882   50.8364 N   0  0  0  0  0  0  0  0  0  0  0  0
    6.4296   42.0214   50.1304 C   0  0  0  0  0  3  0  0  0  0  0  0
    7.6586   42.4072   49.4203 N   0  0  0  0  0  0  0  0  0  0  0  0
    8.1489   43.5062   49.8813 C   0  0  0  0  0  0  0  0  0  0  0  0
    9.2870   44.3283   49.5478 N   0  0  0  0  0  0  0  0  0  0  0  0
   10.6193   46.2393   49.8176 N   0  0  0  0  0  0  0  0  0  0  0  0
    6.7476   45.7001   52.5919 O   0  0  0  0  0  0  0  0  0  0  0  0
    6.6979   47.1213   52.7876 C   0  0  0  0  0  2  0  0  0  0  0  0
    5.4178   47.4723   53.5518 C   0  0  0  0  0  3  0  0  0  0  0  0
    4.2843   46.6664   52.9674 C   0  0  0  0  0  2  0  0  0  0  0  0
    5.1576   48.9380   53.4197 C   0  0  0  0  0  2  0  0  0  0  0  0
    2.9641   47.3648   52.9507 C   0  0  0  0  0  2  0  0  0  0  0  0
    3.9204   49.3245   54.1850 C   0  0  0  0  0  2  0  0  0  0  0  0
    2.7862   48.3579   54.0537 C   0  0  0  0  0  2  0  0  0  0  0  0
    5.3556   41.5968   49.2369 C   0  0  0  0  0  0  0  0  0  0  0  0
    5.6887   41.0545   48.0135 C   0  0  0  0  0  3  0  0  0  0  0  0
    4.0132   41.7126   49.5592 C   0  0  0  0  0  3  0  0  0  0  0  0
    4.7243   40.6397   47.1364 C   0  0  0  0  0  3  0  0  0  0  0  0
    3.0493   41.2911   48.6671 C   0  0  0  0  0  3  0  0  0  0  0  0
    3.3940   40.7570   47.4615 C   0  0  0  0  0  3  0  0  0  0  0  0
  1 10  1  0
  2  1  1  0
  3  2  2  0
  4  3  1  0
  4  8  1  0
  5  6  1  0
  5  4  1  0
  6 19  1  0
  6  7  1  0
  7  8  2  0
  8  9  1  0
  9  1  2  0
 11 12  1  0
 11  3  1  0
 12 13  1  0
 13 15  1  0
 14 16  1  0
 14 13  1  0
 15 17  1  0
 16 18  1  0
 18 17  1  0
 19 20  2  0
 21 19  1  0
 22 20  1  0
 23 24  1  0
 23 21  2  0
 24 22  2  0
M  RAD  8   4   2   6   2  12   3  13   2  14   3  15   3  16   3  17   3
M  RAD  6  18   3  20   2  21   2  22   2  23   2  24   2
M  END
>  <REMARK>  (1) 
 SMILES Nc1nc(OCC2CCCCC2)c2[nH]c(-c3ccccc3)nc2n1
 SMILES IDX 2 1 3 2 4 3 13 4 14 5 15 6 22 7 23 8 24 9 1 11 5 14 6 15
 SMILES IDX 7 16 8 17 12 18 9 19 11 20 10 21 16 22 17 23 21 24 18 25
 SMILES IDX 20 26 19 27
 H PARENT 14 10 1 12 1 13

>  <TORSDO>  (1) 
F 5

$$$$
