/home/pchatterjee/Documents/git/vs_workflow/DiffDock/diffdock_run/pdbqt_scrubbed/76328458.pdbqt
     RDKit          3D

 24 27  0  0  1  0  0  0  0  0999 V2000
    9.4333   45.4631   50.2036 C   0  0  0  0  0  0  0  0  0  0  0  0
    8.5349   46.0864   51.1300 N   0  0  0  0  0  0  0  0  0  0  0  0
    7.4159   45.4949   51.5104 C   0  0  0  0  0  0  0  0  0  0  0  0
    7.1000   44.2304   51.0060 C   0  0  0  0  0  3  0  0  0  0  0  0
    5.8547   43.6300   50.8981 N   0  0  0  0  0  0  0  0  0  0  0  0
    6.1306   42.2685   50.3608 C   0  0  0  0  0  3  0  0  0  0  0  0
    7.4189   42.4811   49.6835 N   0  0  0  0  0  0  0  0  0  0  0  0
    7.9686   43.5893   50.0446 C   0  0  0  0  0  0  0  0  0  0  0  0
    9.1812   44.2847   49.6863 N   0  0  0  0  0  0  0  0  0  0  0  0
   10.6409   46.1156   49.8144 N   0  0  0  0  0  0  0  0  0  0  0  0
    6.6078   46.1786   52.4043 O   0  0  0  0  0  0  0  0  0  0  0  0
    7.0111   47.4802   52.8560 C   0  0  0  0  0  2  0  0  0  0  0  0
    6.1003   47.9088   54.0104 C   0  0  0  0  0  3  0  0  0  0  0  0
    4.7126   47.3849   53.7351 C   0  0  0  0  0  2  0  0  0  0  0  0
    6.1016   49.4003   54.1044 C   0  0  0  0  0  2  0  0  0  0  0  0
    3.6053   48.2749   54.1964 C   0  0  0  0  0  2  0  0  0  0  0  0
    5.2382   49.8568   55.2499 C   0  0  0  0  0  2  0  0  0  0  0  0
    3.9501   49.1088   55.3881 C   0  0  0  0  0  2  0  0  0  0  0  0
    5.0724   41.8187   49.4607 C   0  0  0  0  0  0  0  0  0  0  0  0
    5.4270   41.2090   48.2757 C   0  0  0  0  0  3  0  0  0  0  0  0
    3.7245   41.9752   49.7399 C   0  0  0  0  0  3  0  0  0  0  0  0
    4.4782   40.7679   47.3945 C   0  0  0  0  0  3  0  0  0  0  0  0
    2.7764   41.5266   48.8441 C   0  0  0  0  0  3  0  0  0  0  0  0
    3.1423   40.9258   47.6768 C   0  0  0  0  0  3  0  0  0  0  0  0
  1 10  1  0
  2  1  1  0
  3  2  2  0
  4  3  1  0
  4  8  1  0
  5  6  1  0
  5  4  1  0
  6 19  1  0
  6  7  1  0
  7  8  2  0
  8  9  1  0
  9  1  2  0
 11 12  1  0
 11  3  1  0
 12 13  1  0
 13 15  1  0
 14 16  1  0
 14 13  1  0
 15 17  1  0
 16 18  1  0
 18 17  1  0
 19 20  2  0
 21 19  1  0
 22 20  1  0
 23 24  1  0
 23 21  2  0
 24 22  2  0
M  RAD  8   4   2   6   2  12   3  13   2  14   3  15   3  16   3  17   3
M  RAD  6  18   3  20   2  21   2  22   2  23   2  24   2
M  END
>  <REMARK>  (1) 
 SMILES Nc1nc(OCC2CCCCC2)c2[nH]c(-c3ccccc3)nc2n1
 SMILES IDX 2 1 3 2 4 3 13 4 14 5 15 6 22 7 23 8 24 9 1 11 5 14 6 15
 SMILES IDX 7 16 8 17 12 18 9 19 11 20 10 21 16 22 17 23 21 24 18 25
 SMILES IDX 20 26 19 27
 H PARENT 14 10 1 12 1 13

>  <TORSDO>  (1) 
F 5

$$$$
