/home/pchatterjee/Documents/git/vs_workflow/DiffDock/diffdock_run/pdbqt_scrubbed/76328458.pdbqt
     RDKit          3D

 24 27  0  0  1  0  0  0  0  0999 V2000
    9.3397   45.6603   50.2921 C   0  0  0  0  0  0  0  0  0  0  0  0
    8.3408   46.2009   51.1660 N   0  0  0  0  0  0  0  0  0  0  0  0
    7.2669   45.5066   51.4997 C   0  0  0  0  0  0  0  0  0  0  0  0
    7.1000   44.2132   50.9971 C   0  0  0  0  0  3  0  0  0  0  0  0
    5.9254   43.4938   50.8372 N   0  0  0  0  0  0  0  0  0  0  0  0
    6.3577   42.1612   50.3314 C   0  0  0  0  0  3  0  0  0  0  0  0
    7.6511   42.4925   49.7142 N   0  0  0  0  0  0  0  0  0  0  0  0
    8.0726   43.6518   50.0870 C   0  0  0  0  0  0  0  0  0  0  0  0
    9.2284   44.4588   49.7785 N   0  0  0  0  0  0  0  0  0  0  0  0
   10.4962   46.4240   49.9531 N   0  0  0  0  0  0  0  0  0  0  0  0
    6.3534   46.1158   52.3447 O   0  0  0  0  0  0  0  0  0  0  0  0
    6.8042   47.1516   53.2305 C   0  0  0  0  0  2  0  0  0  0  0  0
    5.5869   47.9133   53.7632 C   0  0  0  0  0  3  0  0  0  0  0  0
    4.3466   47.2961   53.1659 C   0  0  0  0  0  2  0  0  0  0  0  0
    5.7070   49.3530   53.3806 C   0  0  0  0  0  2  0  0  0  0  0  0
    3.2450   48.2621   52.8759 C   0  0  0  0  0  2  0  0  0  0  0  0
    4.5396   50.1392   53.9146 C   0  0  0  0  0  2  0  0  0  0  0  0
    3.2193   49.4480   53.7856 C   0  0  0  0  0  2  0  0  0  0  0  0
    5.3935   41.6033   49.3873 C   0  0  0  0  0  0  0  0  0  0  0  0
    4.0550   41.6265   49.7178 C   0  0  0  0  0  3  0  0  0  0  0  0
    5.7591   41.0498   48.1710 C   0  0  0  0  0  3  0  0  0  0  0  0
    3.1076   41.1181   48.8720 C   0  0  0  0  0  3  0  0  0  0  0  0
    4.7954   40.5402   47.3259 C   0  0  0  0  0  3  0  0  0  0  0  0
    3.4761   40.5702   47.6665 C   0  0  0  0  0  3  0  0  0  0  0  0
  1 10  1  0
  2  1  1  0
  3  2  2  0
  4  3  1  0
  4  8  1  0
  5  6  1  0
  5  4  1  0
  6 19  1  0
  6  7  1  0
  7  8  2  0
  8  9  1  0
  9  1  2  0
 11 12  1  0
 11  3  1  0
 12 13  1  0
 13 15  1  0
 14 16  1  0
 14 13  1  0
 15 17  1  0
 16 18  1  0
 18 17  1  0
 19 20  2  0
 21 19  1  0
 22 20  1  0
 23 24  1  0
 23 21  2  0
 24 22  2  0
M  RAD  8   4   2   6   2  12   3  13   2  14   3  15   3  16   3  17   3
M  RAD  6  18   3  20   2  21   2  22   2  23   2  24   2
M  END
>  <REMARK>  (1) 
 SMILES Nc1nc(OCC2CCCCC2)c2[nH]c(-c3ccccc3)nc2n1
 SMILES IDX 2 1 3 2 4 3 13 4 14 5 15 6 22 7 23 8 24 9 1 11 5 14 6 15
 SMILES IDX 7 16 8 17 12 18 9 19 11 20 10 21 16 22 17 23 21 24 18 25
 SMILES IDX 20 26 19 27
 H PARENT 14 10 1 12 1 13

>  <TORSDO>  (1) 
F 5

$$$$
