/home/pchatterjee/Documents/git/vs_workflow/DiffDock/diffdock_run/pdbqt_scrubbed/76328458.pdbqt
     RDKit          3D

 24 27  0  0  1  0  0  0  0  0999 V2000
    9.5874   45.3240   50.2631 C   0  0  0  0  0  0  0  0  0  0  0  0
    8.6567   45.9680   51.1422 N   0  0  0  0  0  0  0  0  0  0  0  0
    7.5162   45.3927   51.4812 C   0  0  0  0  0  0  0  0  0  0  0  0
    7.2089   44.1251   50.9791 C   0  0  0  0  0  3  0  0  0  0  0  0
    5.9631   43.5360   50.8249 N   0  0  0  0  0  0  0  0  0  0  0  0
    6.2473   42.1651   50.3166 C   0  0  0  0  0  3  0  0  0  0  0  0
    7.5657   42.3562   49.6929 N   0  0  0  0  0  0  0  0  0  0  0  0
    8.1111   43.4633   50.0639 C   0  0  0  0  0  0  0  0  0  0  0  0
    9.3453   44.1418   49.7497 N   0  0  0  0  0  0  0  0  0  0  0  0
   10.8175   45.9594   49.9184 N   0  0  0  0  0  0  0  0  0  0  0  0
    6.6777   46.0957   52.3309 O   0  0  0  0  0  0  0  0  0  0  0  0
    7.2060   47.2049   53.0735 C   0  0  0  0  0  2  0  0  0  0  0  0
    6.1587   47.6634   54.0927 C   0  0  0  0  0  3  0  0  0  0  0  0
    4.8279   47.0717   53.6994 C   0  0  0  0  0  2  0  0  0  0  0  0
    6.1020   49.1568   54.0950 C   0  0  0  0  0  2  0  0  0  0  0  0
    3.6482   47.9434   53.9812 C   0  0  0  0  0  2  0  0  0  0  0  0
    5.1019   49.6445   55.1090 C   0  0  0  0  0  2  0  0  0  0  0  0
    3.8309   48.8566   55.1505 C   0  0  0  0  0  2  0  0  0  0  0  0
    5.2241   41.7148   49.3772 C   0  0  0  0  0  0  0  0  0  0  0  0
    3.8982   41.8314   49.7376 C   0  0  0  0  0  3  0  0  0  0  0  0
    5.5213   41.1740   48.1368 C   0  0  0  0  0  3  0  0  0  0  0  0
    2.8976   41.4258   48.8976 C   0  0  0  0  0  3  0  0  0  0  0  0
    4.5043   40.7684   47.2978 C   0  0  0  0  0  3  0  0  0  0  0  0
    3.1983   40.8900   47.6681 C   0  0  0  0  0  3  0  0  0  0  0  0
  1 10  1  0
  2  1  1  0
  3  2  2  0
  4  3  1  0
  4  8  1  0
  5  6  1  0
  5  4  1  0
  6 19  1  0
  6  7  1  0
  7  8  2  0
  8  9  1  0
  9  1  2  0
 11 12  1  0
 11  3  1  0
 12 13  1  0
 13 15  1  0
 14 16  1  0
 14 13  1  0
 15 17  1  0
 16 18  1  0
 18 17  1  0
 19 20  2  0
 21 19  1  0
 22 20  1  0
 23 24  1  0
 23 21  2  0
 24 22  2  0
M  RAD  8   4   2   6   2  12   3  13   2  14   3  15   3  16   3  17   3
M  RAD  6  18   3  20   2  21   2  22   2  23   2  24   2
M  END
>  <REMARK>  (1) 
 SMILES Nc1nc(OCC2CCCCC2)c2[nH]c(-c3ccccc3)nc2n1
 SMILES IDX 2 1 3 2 4 3 13 4 14 5 15 6 22 7 23 8 24 9 1 11 5 14 6 15
 SMILES IDX 7 16 8 17 12 18 9 19 11 20 10 21 16 22 17 23 21 24 18 25
 SMILES IDX 20 26 19 27
 H PARENT 14 10 1 12 1 13

>  <TORSDO>  (1) 
F 5

$$$$
