/home/pchatterjee/Documents/git/vs_workflow/DiffDock/diffdock_run/pdbqt_scrubbed/76328458.pdbqt
     RDKit          3D

 24 27  0  0  1  0  0  0  0  0999 V2000
    9.5664   45.4688   50.0777 C   0  0  0  0  0  0  0  0  0  0  0  0
    8.6651   46.1045   50.9928 N   0  0  0  0  0  0  0  0  0  0  0  0
    7.5458   45.5175   51.3788 C   0  0  0  0  0  0  0  0  0  0  0  0
    7.2324   44.2454   50.8920 C   0  0  0  0  0  3  0  0  0  0  0  0
    5.9879   43.6423   50.7897 N   0  0  0  0  0  0  0  0  0  0  0  0
    6.2665   42.2734   50.2727 C   0  0  0  0  0  3  0  0  0  0  0  0
    7.5563   42.4776   49.5957 N   0  0  0  0  0  0  0  0  0  0  0  0
    8.1040   43.5915   49.9421 C   0  0  0  0  0  0  0  0  0  0  0  0
    9.3167   44.2829   49.5768 N   0  0  0  0  0  0  0  0  0  0  0  0
   10.7743   46.1170   49.6822 N   0  0  0  0  0  0  0  0  0  0  0  0
    6.7346   46.2132   52.2607 O   0  0  0  0  0  0  0  0  0  0  0  0
    7.3154   47.2322   53.0885 C   0  0  0  0  0  2  0  0  0  0  0  0
    6.2562   47.7336   54.0745 C   0  0  0  0  0  3  0  0  0  0  0  0
    4.9474   47.0607   53.7427 C   0  0  0  0  0  2  0  0  0  0  0  0
    6.1417   49.2188   53.9532 C   0  0  0  0  0  2  0  0  0  0  0  0
    3.7362   47.9071   53.9608 C   0  0  0  0  0  2  0  0  0  0  0  0
    5.1284   49.7506   54.9313 C   0  0  0  0  0  2  0  0  0  0  0  0
    3.8892   48.9209   55.0485 C   0  0  0  0  0  2  0  0  0  0  0  0
    5.2111   41.8097   49.3766 C   0  0  0  0  0  0  0  0  0  0  0  0
    5.5693   41.1976   48.1939 C   0  0  0  0  0  3  0  0  0  0  0  0
    3.8622   41.9550   49.6573 C   0  0  0  0  0  3  0  0  0  0  0  0
    4.6231   40.7435   47.3165 C   0  0  0  0  0  3  0  0  0  0  0  0
    2.9168   41.4934   48.7653 C   0  0  0  0  0  3  0  0  0  0  0  0
    3.2863   40.8904   47.6003 C   0  0  0  0  0  3  0  0  0  0  0  0
  1 10  1  0
  2  1  1  0
  3  2  2  0
  4  3  1  0
  4  8  1  0
  5  6  1  0
  5  4  1  0
  6 19  1  0
  6  7  1  0
  7  8  2  0
  8  9  1  0
  9  1  2  0
 11 12  1  0
 11  3  1  0
 12 13  1  0
 13 15  1  0
 14 16  1  0
 14 13  1  0
 15 17  1  0
 16 18  1  0
 18 17  1  0
 19 20  2  0
 21 19  1  0
 22 20  1  0
 23 24  1  0
 23 21  2  0
 24 22  2  0
M  RAD  8   4   2   6   2  12   3  13   2  14   3  15   3  16   3  17   3
M  RAD  6  18   3  20   2  21   2  22   2  23   2  24   2
M  END
>  <REMARK>  (1) 
 SMILES Nc1nc(OCC2CCCCC2)c2[nH]c(-c3ccccc3)nc2n1
 SMILES IDX 2 1 3 2 4 3 13 4 14 5 15 6 22 7 23 8 24 9 1 11 5 14 6 15
 SMILES IDX 7 16 8 17 12 18 9 19 11 20 10 21 16 22 17 23 21 24 18 25
 SMILES IDX 20 26 19 27
 H PARENT 14 10 1 12 1 13

>  <TORSDO>  (1) 
F 5

$$$$
