/home/pchatterjee/Documents/git/vs_workflow/DiffDock/diffdock_run/pdbqt_scrubbed/76328458.pdbqt
     RDKit          3D

 24 27  0  0  1  0  0  0  0  0999 V2000
    9.7692   45.4660   50.0979 C   0  0  0  0  0  0  0  0  0  0  0  0
    8.9455   46.2427   50.9766 N   0  0  0  0  0  0  0  0  0  0  0  0
    7.7939   45.7804   51.4311 C   0  0  0  0  0  0  0  0  0  0  0  0
    7.3681   44.5035   51.0548 C   0  0  0  0  0  3  0  0  0  0  0  0
    6.0776   43.9969   51.0265 N   0  0  0  0  0  0  0  0  0  0  0  0
    6.2332   42.5736   50.6161 C   0  0  0  0  0  3  0  0  0  0  0  0
    7.5167   42.6187   49.8991 N   0  0  0  0  0  0  0  0  0  0  0  0
    8.1598   43.7084   50.1436 C   0  0  0  0  0  0  0  0  0  0  0  0
    9.4134   44.2683   49.6994 N   0  0  0  0  0  0  0  0  0  0  0  0
   11.0138   45.9810   49.6273 N   0  0  0  0  0  0  0  0  0  0  0  0
    7.0640   46.6068   52.2701 O   0  0  0  0  0  0  0  0  0  0  0  0
    7.7215   47.7132   52.9059 C   0  0  0  0  0  2  0  0  0  0  0  0
    7.0495   47.9804   54.2560 C   0  0  0  0  0  3  0  0  0  0  0  0
    5.5965   47.5899   54.1445 C   0  0  0  0  0  2  0  0  0  0  0  0
    7.1911   49.4296   54.5927 C   0  0  0  0  0  2  0  0  0  0  0  0
    4.6574   48.4437   54.9320 C   0  0  0  0  0  2  0  0  0  0  0  0
    6.5665   49.7231   55.9305 C   0  0  0  0  0  2  0  0  0  0  0  0
    5.2599   49.0340   56.1662 C   0  0  0  0  0  2  0  0  0  0  0  0
    5.1210   42.1276   49.7816 C   0  0  0  0  0  0  0  0  0  0  0  0
    3.8338   42.3189   50.2378 C   0  0  0  0  0  3  0  0  0  0  0  0
    5.2964   41.5194   48.5493 C   0  0  0  0  0  3  0  0  0  0  0  0
    2.7539   41.9211   49.4983 C   0  0  0  0  0  3  0  0  0  0  0  0
    4.2001   41.1224   47.8121 C   0  0  0  0  0  3  0  0  0  0  0  0
    2.9338   41.3182   48.2763 C   0  0  0  0  0  3  0  0  0  0  0  0
  1 10  1  0
  2  1  1  0
  3  2  2  0
  4  3  1  0
  4  8  1  0
  5  6  1  0
  5  4  1  0
  6 19  1  0
  6  7  1  0
  7  8  2  0
  8  9  1  0
  9  1  2  0
 11 12  1  0
 11  3  1  0
 12 13  1  0
 13 15  1  0
 14 16  1  0
 14 13  1  0
 15 17  1  0
 16 18  1  0
 18 17  1  0
 19 20  2  0
 21 19  1  0
 22 20  1  0
 23 24  1  0
 23 21  2  0
 24 22  2  0
M  RAD  8   4   2   6   2  12   3  13   2  14   3  15   3  16   3  17   3
M  RAD  6  18   3  20   2  21   2  22   2  23   2  24   2
M  END
>  <REMARK>  (1) 
 SMILES Nc1nc(OCC2CCCCC2)c2[nH]c(-c3ccccc3)nc2n1
 SMILES IDX 2 1 3 2 4 3 13 4 14 5 15 6 22 7 23 8 24 9 1 11 5 14 6 15
 SMILES IDX 7 16 8 17 12 18 9 19 11 20 10 21 16 22 17 23 21 24 18 25
 SMILES IDX 20 26 19 27
 H PARENT 14 10 1 12 1 13

>  <TORSDO>  (1) 
F 5

$$$$
