/home/pchatterjee/Documents/git/vs_workflow/DiffDock/diffdock_run/pdbqt_scrubbed/76328458.pdbqt
     RDKit          3D

 24 27  0  0  1  0  0  0  0  0999 V2000
    9.6281   45.3594   50.2023 C   0  0  0  0  0  0  0  0  0  0  0  0
    8.6989   46.0737   51.0269 N   0  0  0  0  0  0  0  0  0  0  0  0
    7.5432   45.5419   51.3847 C   0  0  0  0  0  0  0  0  0  0  0  0
    7.2177   44.2516   50.9574 C   0  0  0  0  0  3  0  0  0  0  0  0
    5.9627   43.6774   50.8224 N   0  0  0  0  0  0  0  0  0  0  0  0
    6.2268   42.2726   50.4035 C   0  0  0  0  0  3  0  0  0  0  0  0
    7.5565   42.4001   49.7878 N   0  0  0  0  0  0  0  0  0  0  0  0
    8.1185   43.5177   50.0975 C   0  0  0  0  0  0  0  0  0  0  0  0
    9.3696   44.1524   49.7594 N   0  0  0  0  0  0  0  0  0  0  0  0
   10.8747   45.9492   49.8363 N   0  0  0  0  0  0  0  0  0  0  0  0
    6.7076   46.3117   52.1777 O   0  0  0  0  0  0  0  0  0  0  0  0
    7.2663   47.3971   52.9331 C   0  0  0  0  0  2  0  0  0  0  0  0
    6.3250   47.7292   54.0947 C   0  0  0  0  0  3  0  0  0  0  0  0
    4.9516   47.2071   53.7522 C   0  0  0  0  0  2  0  0  0  0  0  0
    6.3013   49.2100   54.2948 C   0  0  0  0  0  2  0  0  0  0  0  0
    3.8213   48.0463   54.2513 C   0  0  0  0  0  2  0  0  0  0  0  0
    5.4071   49.5712   55.4507 C   0  0  0  0  0  2  0  0  0  0  0  0
    4.1281   48.7974   55.5068 C   0  0  0  0  0  2  0  0  0  0  0  0
    5.2071   41.7842   49.4795 C   0  0  0  0  0  0  0  0  0  0  0  0
    3.8831   41.8539   49.8586 C   0  0  0  0  0  3  0  0  0  0  0  0
    5.5059   41.2520   48.2357 C   0  0  0  0  0  3  0  0  0  0  0  0
    2.8858   41.4113   49.0334 C   0  0  0  0  0  3  0  0  0  0  0  0
    4.4922   40.8087   47.4119 C   0  0  0  0  0  3  0  0  0  0  0  0
    3.1881   40.8842   47.8005 C   0  0  0  0  0  3  0  0  0  0  0  0
  1 10  1  0
  2  1  1  0
  3  2  2  0
  4  3  1  0
  4  8  1  0
  5  6  1  0
  5  4  1  0
  6 19  1  0
  6  7  1  0
  7  8  2  0
  8  9  1  0
  9  1  2  0
 11 12  1  0
 11  3  1  0
 12 13  1  0
 13 15  1  0
 14 16  1  0
 14 13  1  0
 15 17  1  0
 16 18  1  0
 18 17  1  0
 19 20  2  0
 21 19  1  0
 22 20  1  0
 23 24  1  0
 23 21  2  0
 24 22  2  0
M  RAD  8   4   2   6   2  12   3  13   2  14   3  15   3  16   3  17   3
M  RAD  6  18   3  20   2  21   2  22   2  23   2  24   2
M  END
>  <REMARK>  (1) 
 SMILES Nc1nc(OCC2CCCCC2)c2[nH]c(-c3ccccc3)nc2n1
 SMILES IDX 2 1 3 2 4 3 13 4 14 5 15 6 22 7 23 8 24 9 1 11 5 14 6 15
 SMILES IDX 7 16 8 17 12 18 9 19 11 20 10 21 16 22 17 23 21 24 18 25
 SMILES IDX 20 26 19 27
 H PARENT 14 10 1 12 1 13

>  <TORSDO>  (1) 
F 5

$$$$
