/home/pchatterjee/Documents/git/vs_workflow/DiffDock/diffdock_run/pdbqt_scrubbed/76328458.pdbqt
     RDKit          3D

 24 27  0  0  1  0  0  0  0  0999 V2000
    9.3297   45.2754   50.1279 C   0  0  0  0  0  0  0  0  0  0  0  0
    8.5363   45.6304   51.2673 N   0  0  0  0  0  0  0  0  0  0  0  0
    7.4843   44.9152   51.6255 C   0  0  0  0  0  0  0  0  0  0  0  0
    7.1370   43.7827   50.8839 C   0  0  0  0  0  3  0  0  0  0  0  0
    5.9010   43.1625   50.7821 N   0  0  0  0  0  0  0  0  0  0  0  0
    6.1392   41.9716   49.9199 C   0  0  0  0  0  3  0  0  0  0  0  0
    7.3316   42.3930   49.1688 N   0  0  0  0  0  0  0  0  0  0  0  0
    7.8969   43.4168   49.7099 C   0  0  0  0  0  0  0  0  0  0  0  0
    9.0424   44.2327   49.3863 N   0  0  0  0  0  0  0  0  0  0  0  0
   10.4674   46.0562   49.7652 N   0  0  0  0  0  0  0  0  0  0  0  0
    6.7752   45.3407   52.7372 O   0  0  0  0  0  0  0  0  0  0  0  0
    6.3760   46.7167   52.8266 C   0  0  0  0  0  2  0  0  0  0  0  0
    5.0025   46.7920   53.5000 C   0  0  0  0  0  3  0  0  0  0  0  0
    4.9985   45.8395   54.6699 C   0  0  0  0  0  2  0  0  0  0  0  0
    3.9507   46.4231   52.5045 C   0  0  0  0  0  2  0  0  0  0  0  0
    3.6882   45.1702   54.9268 C   0  0  0  0  0  2  0  0  0  0  0  0
    2.5823   46.5154   53.1252 C   0  0  0  0  0  2  0  0  0  0  0  0
    2.4999   45.9806   54.5198 C   0  0  0  0  0  2  0  0  0  0  0  0
    4.9901   41.6852   49.0655 C   0  0  0  0  0  0  0  0  0  0  0  0
    5.2157   41.3058   47.7591 C   0  0  0  0  0  3  0  0  0  0  0  0
    3.6794   41.7762   49.5049 C   0  0  0  0  0  3  0  0  0  0  0  0
    4.1774   41.0253   46.9137 C   0  0  0  0  0  3  0  0  0  0  0  0
    2.6403   41.4910   48.6437 C   0  0  0  0  0  3  0  0  0  0  0  0
    2.8790   41.1173   47.3551 C   0  0  0  0  0  3  0  0  0  0  0  0
  1 10  1  0
  2  1  1  0
  3  2  2  0
  4  3  1  0
  4  8  1  0
  5  6  1  0
  5  4  1  0
  6 19  1  0
  6  7  1  0
  7  8  2  0
  8  9  1  0
  9  1  2  0
 11 12  1  0
 11  3  1  0
 12 13  1  0
 13 15  1  0
 14 16  1  0
 14 13  1  0
 15 17  1  0
 16 18  1  0
 18 17  1  0
 19 20  2  0
 21 19  1  0
 22 20  1  0
 23 24  1  0
 23 21  2  0
 24 22  2  0
M  RAD  8   4   2   6   2  12   3  13   2  14   3  15   3  16   3  17   3
M  RAD  6  18   3  20   2  21   2  22   2  23   2  24   2
M  END
>  <REMARK>  (1) 
 SMILES Nc1nc(OCC2CCCCC2)c2[nH]c(-c3ccccc3)nc2n1
 SMILES IDX 2 1 3 2 4 3 13 4 14 5 15 6 22 7 23 8 24 9 1 11 5 14 6 15
 SMILES IDX 7 16 8 17 12 18 9 19 11 20 10 21 16 22 17 23 21 24 18 25
 SMILES IDX 20 26 19 27
 H PARENT 14 10 1 12 1 13

>  <TORSDO>  (1) 
F 5

$$$$
