/home/pchatterjee/Documents/git/vs_workflow/DiffDock/diffdock_run/pdbqt_scrubbed/5329555.pdbqt
     RDKit          3D

 26 29  0  0  1  0  0  0  0  0999 V2000
    7.0710   42.7792   48.8697 N   0  0  0  0  0  0  0  0  0  0  0  0
    5.8977   42.0584   48.6149 C   0  0  0  0  0  0  0  0  0  0  0  0
    3.7144   41.2318   49.2081 C   0  0  0  0  0  0  0  0  0  0  0  0
    3.6480   40.6012   47.9702 C   0  0  0  0  0  3  0  0  0  0  0  0
    4.8490   41.9618   49.5230 C   0  0  0  0  0  3  0  0  0  0  0  0
    4.6776   40.6852   47.0561 C   0  0  0  0  0  3  0  0  0  0  0  0
    5.7852   41.4128   47.3945 C   0  0  0  0  0  3  0  0  0  0  0  0
    2.5627   41.0806   50.1119 C   0  0  0  0  0  2  0  0  0  0  0  0
    2.4236   42.1345   50.9963 O   0  0  0  0  0  0  0  0  0  0  0  0
    7.6346   42.9083   50.1798 C   0  0  0  0  0  3  0  0  0  0  0  0
    6.8424   43.7301   51.0383 N   0  0  0  0  0  0  0  0  0  0  0  0
    9.0061   43.3187   50.2134 N   0  0  0  0  0  0  0  0  0  0  0  0
    7.0694   44.9858   51.2915 C   0  0  0  0  0  0  0  0  0  0  0  0
    9.2887   44.5550   50.4240 C   0  0  0  0  0  0  0  0  0  0  0  0
    8.2353   45.6010   50.6389 C   0  0  0  0  0  3  0  0  0  0  0  0
   10.5211   45.2691   50.5153 N   0  0  0  0  0  0  0  0  0  0  0  0
    8.9809   46.5002   51.5305 N   0  0  0  0  0  0  0  0  0  0  0  0
   10.3598   46.3849   51.1465 C   0  0  0  0  0  3  0  0  0  0  0  0
    6.2567   45.7298   52.1390 O   0  0  0  0  0  0  0  0  0  0  0  0
    4.8562   45.4375   52.0301 C   0  0  0  0  0  2  0  0  0  0  0  0
    4.1745   46.6048   52.7569 C   0  0  0  0  0  3  0  0  0  0  0  0
    2.6963   46.5095   52.4138 C   0  0  0  0  0  2  0  0  0  0  0  0
    4.4305   46.3999   54.2225 C   0  0  0  0  0  2  0  0  0  0  0  0
    2.2277   45.1311   52.8006 C   0  0  0  0  0  2  0  0  0  0  0  0
    3.2210   45.9284   54.9727 C   0  0  0  0  0  2  0  0  0  0  0  0
    2.5097   44.8026   54.2521 C   0  0  0  0  0  2  0  0  0  0  0  0
  2  7  1  0
  2  1  1  0
  3  4  2  0
  3  5  1  0
  4  6  1  0
  5  2  2  0
  6  7  2  0
  8  3  1  0
  9  8  1  0
 10  1  1  0
 10 11  1  0
 10 12  1  0
 11 13  2  0
 12 14  2  0
 13 19  1  0
 14 15  1  0
 14 16  1  0
 15 13  1  0
 15 17  1  0
 16 18  2  0
 17 18  1  0
 20 21  1  0
 20 19  1  0
 21 22  1  0
 22 24  1  0
 23 21  1  0
 23 25  1  0
 25 26  1  0
 26 24  1  0
M  RAD  8   4   2   5   2   6   2   7   2   8   3  10   2  15   2  18   2
M  RAD  7  20   3  21   2  22   3  23   3  24   3  25   3  26   3
M  END
>  <REMARK>  (1) 
 SMILES OCc1cccc(Nc2nc(OCC3CCCCC3)c3[nH]cnc3n2)c1
 SMILES IDX 8 1 7 3 3 4 4 5 26 6 5 7 6 8 2 9 1 10 9 12 10 13 25 14 11 15
 SMILES IDX 24 16 20 17 23 18 21 19 22 20 12 22 13 23 14 24 15 25 19 26
 SMILES IDX 16 27 18 28 17 29
 H PARENT 8 2 1 11 21 21

>  <TORSDO>  (1) 
F 7

$$$$
