/home/pchatterjee/Documents/git/vs_workflow/DiffDock/diffdock_run/pdbqt_scrubbed/5329555.pdbqt
     RDKit          3D

 26 29  0  0  1  0  0  0  0  0999 V2000
    7.1047   42.6254   48.9013 N   0  0  0  0  0  0  0  0  0  0  0  0
    5.9033   41.9662   48.6132 C   0  0  0  0  0  0  0  0  0  0  0  0
    4.3561   40.8774   47.1223 C   0  0  0  0  0  0  0  0  0  0  0  0
    3.4990   40.6820   48.2001 C   0  0  0  0  0  3  0  0  0  0  0  0
    5.5620   41.5238   47.3398 C   0  0  0  0  0  3  0  0  0  0  0  0
    3.8195   41.1134   49.4705 C   0  0  0  0  0  3  0  0  0  0  0  0
    5.0169   41.7485   49.6550 C   0  0  0  0  0  3  0  0  0  0  0  0
    3.9210   40.3794   45.8075 C   0  0  0  0  0  2  0  0  0  0  0  0
    4.6022   40.9601   44.7536 O   0  0  0  0  0  0  0  0  0  0  0  0
    7.6049   42.7819   50.2340 C   0  0  0  0  0  3  0  0  0  0  0  0
    6.7352   43.5595   51.0577 N   0  0  0  0  0  0  0  0  0  0  0  0
    8.9504   43.2637   50.3253 N   0  0  0  0  0  0  0  0  0  0  0  0
    6.8849   44.8250   51.3196 C   0  0  0  0  0  0  0  0  0  0  0  0
    9.1584   44.5129   50.5468 C   0  0  0  0  0  0  0  0  0  0  0  0
    8.0434   45.5017   50.7164 C   0  0  0  0  0  3  0  0  0  0  0  0
   10.3466   45.2906   50.6896 N   0  0  0  0  0  0  0  0  0  0  0  0
    8.7024   46.4374   51.6381 N   0  0  0  0  0  0  0  0  0  0  0  0
   10.1004   46.3954   51.3127 C   0  0  0  0  0  3  0  0  0  0  0  0
    5.9992   45.5240   52.1316 O   0  0  0  0  0  0  0  0  0  0  0  0
    4.6635   45.0000   52.1458 C   0  0  0  0  0  2  0  0  0  0  0  0
    4.1701   45.2768   53.5725 C   0  0  0  0  0  3  0  0  0  0  0  0
    3.4559   46.6181   53.5188 C   0  0  0  0  0  2  0  0  0  0  0  0
    3.2389   44.1526   53.9253 C   0  0  0  0  0  2  0  0  0  0  0  0
    2.3877   46.5223   52.4611 C   0  0  0  0  0  2  0  0  0  0  0  0
    1.7956   44.5585   53.9216 C   0  0  0  0  0  2  0  0  0  0  0  0
    1.4365   45.3664   52.6923 C   0  0  0  0  0  2  0  0  0  0  0  0
  2  7  1  0
  2  1  1  0
  3  4  2  0
  3  5  1  0
  4  6  1  0
  5  2  2  0
  6  7  2  0
  8  3  1  0
  9  8  1  0
 10  1  1  0
 10 11  1  0
 10 12  1  0
 11 13  2  0
 12 14  2  0
 13 19  1  0
 14 15  1  0
 14 16  1  0
 15 13  1  0
 15 17  1  0
 16 18  2  0
 17 18  1  0
 20 21  1  0
 20 19  1  0
 21 22  1  0
 22 24  1  0
 23 21  1  0
 23 25  1  0
 25 26  1  0
 26 24  1  0
M  RAD  8   4   2   5   2   6   2   7   2   8   3  10   2  15   2  18   2
M  RAD  7  20   3  21   2  22   3  23   3  24   3  25   3  26   3
M  END
>  <REMARK>  (1) 
 SMILES OCc1cccc(Nc2nc(OCC3CCCCC3)c3[nH]cnc3n2)c1
 SMILES IDX 8 1 7 3 3 4 4 5 26 6 5 7 6 8 2 9 1 10 9 12 10 13 25 14 11 15
 SMILES IDX 24 16 20 17 23 18 21 19 22 20 12 22 13 23 14 24 15 25 19 26
 SMILES IDX 16 27 18 28 17 29
 H PARENT 8 2 1 11 21 21

>  <TORSDO>  (1) 
F 7

$$$$
