/home/pchatterjee/Documents/git/vs_workflow/DiffDock/diffdock_run/pdbqt_scrubbed/5329555.pdbqt
     RDKit          3D

 26 29  0  0  1  0  0  0  0  0999 V2000
    7.0189   42.7068   48.8717 N   0  0  0  0  0  0  0  0  0  0  0  0
    5.7919   42.0811   48.6193 C   0  0  0  0  0  0  0  0  0  0  0  0
    3.5116   41.5286   49.1643 C   0  0  0  0  0  0  0  0  0  0  0  0
    3.4385   40.7917   47.9869 C   0  0  0  0  0  3  0  0  0  0  0  0
    4.6984   42.1730   49.4735 C   0  0  0  0  0  3  0  0  0  0  0  0
    4.5120   40.6886   47.1269 C   0  0  0  0  0  3  0  0  0  0  0  0
    5.6708   41.3354   47.4582 C   0  0  0  0  0  3  0  0  0  0  0  0
    2.3104   41.5760   50.0134 C   0  0  0  0  0  2  0  0  0  0  0  0
    2.4191   42.4737   51.0595 O   0  0  0  0  0  0  0  0  0  0  0  0
    7.5817   42.8128   50.1843 C   0  0  0  0  0  3  0  0  0  0  0  0
    6.7823   43.6087   51.0603 N   0  0  0  0  0  0  0  0  0  0  0  0
    8.9494   43.2348   50.2267 N   0  0  0  0  0  0  0  0  0  0  0  0
    6.9979   44.8606   51.3406 C   0  0  0  0  0  0  0  0  0  0  0  0
    9.2208   44.4689   50.4639 C   0  0  0  0  0  0  0  0  0  0  0  0
    8.1580   45.5003   50.7013 C   0  0  0  0  0  3  0  0  0  0  0  0
   10.4467   45.1920   50.5705 N   0  0  0  0  0  0  0  0  0  0  0  0
    8.8956   46.3869   51.6121 N   0  0  0  0  0  0  0  0  0  0  0  0
   10.2754   46.2924   51.2255 C   0  0  0  0  0  3  0  0  0  0  0  0
    6.1787   45.5788   52.2040 O   0  0  0  0  0  0  0  0  0  0  0  0
    4.7787   45.2931   52.0727 C   0  0  0  0  0  2  0  0  0  0  0  0
    4.0975   46.3658   52.9334 C   0  0  0  0  0  3  0  0  0  0  0  0
    2.6824   46.5030   52.3942 C   0  0  0  0  0  2  0  0  0  0  0  0
    4.1188   45.8538   54.3452 C   0  0  0  0  0  2  0  0  0  0  0  0
    2.0497   45.1364   52.4249 C   0  0  0  0  0  2  0  0  0  0  0  0
    2.7778   45.3829   54.8226 C   0  0  0  0  0  2  0  0  0  0  0  0
    2.0884   44.5037   53.8006 C   0  0  0  0  0  2  0  0  0  0  0  0
  2  7  1  0
  2  1  1  0
  3  4  2  0
  3  5  1  0
  4  6  1  0
  5  2  2  0
  6  7  2  0
  8  3  1  0
  9  8  1  0
 10  1  1  0
 10 11  1  0
 10 12  1  0
 11 13  2  0
 12 14  2  0
 13 19  1  0
 14 15  1  0
 14 16  1  0
 15 13  1  0
 15 17  1  0
 16 18  2  0
 17 18  1  0
 20 21  1  0
 20 19  1  0
 21 22  1  0
 22 24  1  0
 23 21  1  0
 23 25  1  0
 25 26  1  0
 26 24  1  0
M  RAD  8   4   2   5   2   6   2   7   2   8   3  10   2  15   2  18   2
M  RAD  7  20   3  21   2  22   3  23   3  24   3  25   3  26   3
M  END
>  <REMARK>  (1) 
 SMILES OCc1cccc(Nc2nc(OCC3CCCCC3)c3[nH]cnc3n2)c1
 SMILES IDX 8 1 7 3 3 4 4 5 26 6 5 7 6 8 2 9 1 10 9 12 10 13 25 14 11 15
 SMILES IDX 24 16 20 17 23 18 21 19 22 20 12 22 13 23 14 24 15 25 19 26
 SMILES IDX 16 27 18 28 17 29
 H PARENT 8 2 1 11 21 21

>  <TORSDO>  (1) 
F 7

$$$$
