/home/pchatterjee/Documents/git/vs_workflow/DiffDock/diffdock_run/pdbqt_scrubbed/5329555.pdbqt
     RDKit          3D

 26 29  0  0  1  0  0  0  0  0999 V2000
    7.0925   42.6713   48.8626 N   0  0  0  0  0  0  0  0  0  0  0  0
    5.8819   42.0042   48.6382 C   0  0  0  0  0  0  0  0  0  0  0  0
    3.5993   41.4578   49.1799 C   0  0  0  0  0  0  0  0  0  0  0  0
    3.5649   40.6234   48.0677 C   0  0  0  0  0  3  0  0  0  0  0  0
    4.7682   42.1475   49.4585 C   0  0  0  0  0  3  0  0  0  0  0  0
    4.6590   40.4679   47.2422 C   0  0  0  0  0  3  0  0  0  0  0  0
    5.7992   41.1615   47.5420 C   0  0  0  0  0  3  0  0  0  0  0  0
    2.3788   41.5544   49.9966 C   0  0  0  0  0  2  0  0  0  0  0  0
    1.7872   40.3279   50.2371 O   0  0  0  0  0  0  0  0  0  0  0  0
    7.6460   42.8582   50.1701 C   0  0  0  0  0  3  0  0  0  0  0  0
    6.7977   43.6332   51.0183 N   0  0  0  0  0  0  0  0  0  0  0  0
    8.9849   43.3657   50.1962 N   0  0  0  0  0  0  0  0  0  0  0  0
    6.9347   44.9052   51.2541 C   0  0  0  0  0  0  0  0  0  0  0  0
    9.1787   44.6218   50.3895 C   0  0  0  0  0  0  0  0  0  0  0  0
    8.0535   45.5929   50.5915 C   0  0  0  0  0  3  0  0  0  0  0  0
   10.3571   45.4230   50.4693 N   0  0  0  0  0  0  0  0  0  0  0  0
    8.7336   46.5551   51.4697 N   0  0  0  0  0  0  0  0  0  0  0  0
   10.1170   46.5331   51.0854 C   0  0  0  0  0  3  0  0  0  0  0  0
    6.0714   45.6011   52.0925 O   0  0  0  0  0  0  0  0  0  0  0  0
    4.6906   45.2327   51.9644 C   0  0  0  0  0  2  0  0  0  0  0  0
    3.9435   46.3009   52.7746 C   0  0  0  0  0  3  0  0  0  0  0  0
    2.4769   46.1681   52.3961 C   0  0  0  0  0  2  0  0  0  0  0  0
    4.1863   45.9826   54.2221 C   0  0  0  0  0  2  0  0  0  0  0  0
    2.0679   44.7416   52.6549 C   0  0  0  0  0  2  0  0  0  0  0  0
    2.9890   45.3936   54.9059 C   0  0  0  0  0  2  0  0  0  0  0  0
    2.3427   44.3027   54.0784 C   0  0  0  0  0  2  0  0  0  0  0  0
  2  7  1  0
  2  1  1  0
  3  4  2  0
  3  5  1  0
  4  6  1  0
  5  2  2  0
  6  7  2  0
  8  3  1  0
  9  8  1  0
 10  1  1  0
 10 11  1  0
 10 12  1  0
 11 13  2  0
 12 14  2  0
 13 19  1  0
 14 15  1  0
 14 16  1  0
 15 13  1  0
 15 17  1  0
 16 18  2  0
 17 18  1  0
 20 21  1  0
 20 19  1  0
 21 22  1  0
 22 24  1  0
 23 21  1  0
 23 25  1  0
 25 26  1  0
 26 24  1  0
M  RAD  8   4   2   5   2   6   2   7   2   8   3  10   2  15   2  18   2
M  RAD  7  20   3  21   2  22   3  23   3  24   3  25   3  26   3
M  END
>  <REMARK>  (1) 
 SMILES OCc1cccc(Nc2nc(OCC3CCCCC3)c3[nH]cnc3n2)c1
 SMILES IDX 8 1 7 3 3 4 4 5 26 6 5 7 6 8 2 9 1 10 9 12 10 13 25 14 11 15
 SMILES IDX 24 16 20 17 23 18 21 19 22 20 12 22 13 23 14 24 15 25 19 26
 SMILES IDX 16 27 18 28 17 29
 H PARENT 8 2 1 11 21 21

>  <TORSDO>  (1) 
F 7

$$$$
