/home/pchatterjee/Documents/git/vs_workflow/DiffDock/diffdock_run/pdbqt_scrubbed/5329555.pdbqt
     RDKit          3D

 26 29  0  0  1  0  0  0  0  0999 V2000
    7.0818   42.8076   48.7673 N   0  0  0  0  0  0  0  0  0  0  0  0
    5.9912   41.9935   48.4377 C   0  0  0  0  0  0  0  0  0  0  0  0
    3.8838   40.9298   48.9172 C   0  0  0  0  0  0  0  0  0  0  0  0
    3.9111   40.3665   47.6458 C   0  0  0  0  0  3  0  0  0  0  0  0
    4.9336   41.7460   49.3061 C   0  0  0  0  0  3  0  0  0  0  0  0
    4.9510   40.6000   46.7702 C   0  0  0  0  0  3  0  0  0  0  0  0
    5.9736   41.4099   47.1816 C   0  0  0  0  0  3  0  0  0  0  0  0
    2.7293   40.6185   49.7751 C   0  0  0  0  0  2  0  0  0  0  0  0
    1.7894   41.6321   49.8108 O   0  0  0  0  0  0  0  0  0  0  0  0
    7.5952   42.9169   50.0997 C   0  0  0  0  0  3  0  0  0  0  0  0
    6.7413   43.6779   50.9549 N   0  0  0  0  0  0  0  0  0  0  0  0
    8.9467   43.3809   50.1939 N   0  0  0  0  0  0  0  0  0  0  0  0
    6.9074   44.9330   51.2546 C   0  0  0  0  0  0  0  0  0  0  0  0
    9.1705   44.6202   50.4523 C   0  0  0  0  0  0  0  0  0  0  0  0
    8.0682   45.6154   50.6625 C   0  0  0  0  0  3  0  0  0  0  0  0
   10.3686   45.3800   50.6086 N   0  0  0  0  0  0  0  0  0  0  0  0
    8.7455   46.5147   51.6069 N   0  0  0  0  0  0  0  0  0  0  0  0
   10.1401   46.4675   51.2679 C   0  0  0  0  0  3  0  0  0  0  0  0
    6.0366   45.6159   52.0958 O   0  0  0  0  0  0  0  0  0  0  0  0
    4.7326   45.0279   52.2080 C   0  0  0  0  0  2  0  0  0  0  0  0
    3.8127   46.0213   51.4852 C   0  0  0  0  0  3  0  0  0  0  0  0
    2.5514   45.2486   51.1332 C   0  0  0  0  0  2  0  0  0  0  0  0
    3.5429   47.1342   52.4568 C   0  0  0  0  0  2  0  0  0  0  0  0
    2.0086   44.6589   52.4086 C   0  0  0  0  0  2  0  0  0  0  0  0
    2.1583   47.0942   53.0305 C   0  0  0  0  0  2  0  0  0  0  0  0
    1.7709   45.7016   53.4813 C   0  0  0  0  0  2  0  0  0  0  0  0
  2  7  1  0
  2  1  1  0
  3  4  2  0
  3  5  1  0
  4  6  1  0
  5  2  2  0
  6  7  2  0
  8  3  1  0
  9  8  1  0
 10  1  1  0
 10 11  1  0
 10 12  1  0
 11 13  2  0
 12 14  2  0
 13 19  1  0
 14 15  1  0
 14 16  1  0
 15 13  1  0
 15 17  1  0
 16 18  2  0
 17 18  1  0
 20 21  1  0
 20 19  1  0
 21 22  1  0
 22 24  1  0
 23 21  1  0
 23 25  1  0
 25 26  1  0
 26 24  1  0
M  RAD  8   4   2   5   2   6   2   7   2   8   3  10   2  15   2  18   2
M  RAD  7  20   3  21   2  22   3  23   3  24   3  25   3  26   3
M  END
>  <REMARK>  (1) 
 SMILES OCc1cccc(Nc2nc(OCC3CCCCC3)c3[nH]cnc3n2)c1
 SMILES IDX 8 1 7 3 3 4 4 5 26 6 5 7 6 8 2 9 1 10 9 12 10 13 25 14 11 15
 SMILES IDX 24 16 20 17 23 18 21 19 22 20 12 22 13 23 14 24 15 25 19 26
 SMILES IDX 16 27 18 28 17 29
 H PARENT 8 2 1 11 21 21

>  <TORSDO>  (1) 
F 7

$$$$
