/home/pchatterjee/Documents/git/vs_workflow/DiffDock/diffdock_run/pdbqt_scrubbed/5329555.pdbqt
     RDKit          3D

 26 29  0  0  1  0  0  0  0  0999 V2000
    6.8677   42.8964   48.8271 N   0  0  0  0  0  0  0  0  0  0  0  0
    5.6934   42.1597   48.6288 C   0  0  0  0  0  0  0  0  0  0  0  0
    3.4935   41.4141   49.2665 C   0  0  0  0  0  0  0  0  0  0  0  0
    3.4438   40.6557   48.1016 C   0  0  0  0  0  3  0  0  0  0  0  0
    4.6282   42.1666   49.5227 C   0  0  0  0  0  3  0  0  0  0  0  0
    4.4899   40.6358   47.2028 C   0  0  0  0  0  3  0  0  0  0  0  0
    5.5972   41.3886   47.4822 C   0  0  0  0  0  3  0  0  0  0  0  0
    2.3250   41.3669   50.1600 C   0  0  0  0  0  2  0  0  0  0  0  0
    2.3616   42.3272   51.1542 O   0  0  0  0  0  0  0  0  0  0  0  0
    7.4716   43.0643   50.1146 C   0  0  0  0  0  3  0  0  0  0  0  0
    6.6837   43.8745   50.9878 N   0  0  0  0  0  0  0  0  0  0  0  0
    8.8297   43.5180   50.0941 N   0  0  0  0  0  0  0  0  0  0  0  0
    6.8790   45.1407   51.2140 C   0  0  0  0  0  0  0  0  0  0  0  0
    9.0797   44.7659   50.2761 C   0  0  0  0  0  0  0  0  0  0  0  0
    8.0015   45.7816   50.5118 C   0  0  0  0  0  3  0  0  0  0  0  0
   10.2911   45.5196   50.3135 N   0  0  0  0  0  0  0  0  0  0  0  0
    8.7483   46.7180   51.3632 N   0  0  0  0  0  0  0  0  0  0  0  0
   10.1161   46.6399   50.9330 C   0  0  0  0  0  3  0  0  0  0  0  0
    6.0727   45.8725   52.0780 O   0  0  0  0  0  0  0  0  0  0  0  0
    4.6786   45.5377   52.0193 C   0  0  0  0  0  2  0  0  0  0  0  0
    3.9809   46.7296   52.6887 C   0  0  0  0  0  3  0  0  0  0  0  0
    2.4935   46.4151   52.6649 C   0  0  0  0  0  2  0  0  0  0  0  0
    4.5215   46.8070   54.0877 C   0  0  0  0  0  2  0  0  0  0  0  0
    2.3003   45.0798   53.3347 C   0  0  0  0  0  2  0  0  0  0  0  0
    3.5444   46.3400   55.1247 C   0  0  0  0  0  2  0  0  0  0  0  0
    2.8811   45.0365   54.7330 C   0  0  0  0  0  2  0  0  0  0  0  0
  2  7  1  0
  2  1  1  0
  3  4  2  0
  3  5  1  0
  4  6  1  0
  5  2  2  0
  6  7  2  0
  8  3  1  0
  9  8  1  0
 10  1  1  0
 10 11  1  0
 10 12  1  0
 11 13  2  0
 12 14  2  0
 13 19  1  0
 14 15  1  0
 14 16  1  0
 15 13  1  0
 15 17  1  0
 16 18  2  0
 17 18  1  0
 20 21  1  0
 20 19  1  0
 21 22  1  0
 22 24  1  0
 23 21  1  0
 23 25  1  0
 25 26  1  0
 26 24  1  0
M  RAD  8   4   2   5   2   6   2   7   2   8   3  10   2  15   2  18   2
M  RAD  7  20   3  21   2  22   3  23   3  24   3  25   3  26   3
M  END
>  <REMARK>  (1) 
 SMILES OCc1cccc(Nc2nc(OCC3CCCCC3)c3[nH]cnc3n2)c1
 SMILES IDX 8 1 7 3 3 4 4 5 26 6 5 7 6 8 2 9 1 10 9 12 10 13 25 14 11 15
 SMILES IDX 24 16 20 17 23 18 21 19 22 20 12 22 13 23 14 24 15 25 19 26
 SMILES IDX 16 27 18 28 17 29
 H PARENT 8 2 1 11 21 21

>  <TORSDO>  (1) 
F 7

$$$$
