/home/pchatterjee/Documents/git/vs_workflow/DiffDock/diffdock_run/pdbqt_scrubbed/5329555.pdbqt
     RDKit          3D

 26 29  0  0  1  0  0  0  0  0999 V2000
   12.5350   86.5810   68.2965 N   0  0  0  0  0  0  0  0  0  0  0  0
   12.1493   87.7363   67.6055 C   0  0  0  0  0  0  0  0  0  0  0  0
   10.6844   89.6039   67.1950 C   0  0  0  0  0  0  0  0  0  0  0  0
   11.5190   89.9929   66.1525 C   0  0  0  0  0  3  0  0  0  0  0  0
   11.0095   88.4686   67.9193 C   0  0  0  0  0  3  0  0  0  0  0  0
   12.6538   89.2800   65.8259 C   0  0  0  0  0  3  0  0  0  0  0  0
   12.9494   88.1634   66.5585 C   0  0  0  0  0  3  0  0  0  0  0  0
    9.4982   90.4327   67.4630 C   0  0  0  0  0  2  0  0  0  0  0  0
    8.8041   90.0395   68.5925 O   0  0  0  0  0  0  0  0  0  0  0  0
   12.4627   86.4678   69.7222 C   0  0  0  0  0  3  0  0  0  0  0  0
   13.5738   85.7588   70.2723 N   0  0  0  0  0  0  0  0  0  0  0  0
   11.2297   85.9443   70.2284 N   0  0  0  0  0  0  0  0  0  0  0  0
   13.5680   84.5020   70.6083 C   0  0  0  0  0  0  0  0  0  0  0  0
   11.1556   84.7000   70.5430 C   0  0  0  0  0  0  0  0  0  0  0  0
   12.3152   83.7590   70.4027 C   0  0  0  0  0  3  0  0  0  0  0  0
   10.1015   83.8889   71.0608 N   0  0  0  0  0  0  0  0  0  0  0  0
   12.0053   82.8437   71.5098 N   0  0  0  0  0  0  0  0  0  0  0  0
   10.5735   82.8226   71.6173 C   0  0  0  0  0  3  0  0  0  0  0  0
   14.6871   83.8715   71.1399 O   0  0  0  0  0  0  0  0  0  0  0  0
   15.9311   84.5291   70.8591 C   0  0  0  0  0  2  0  0  0  0  0  0
   16.4235   83.8591   69.5690 C   0  0  0  0  0  3  0  0  0  0  0  0
   17.7195   84.5619   69.1972 C   0  0  0  0  0  2  0  0  0  0  0  0
   16.6391   82.4100   69.8989 C   0  0  0  0  0  2  0  0  0  0  0  0
   18.6449   84.4660   70.3819 C   0  0  0  0  0  2  0  0  0  0  0  0
   18.0876   82.0389   70.0094 C   0  0  0  0  0  2  0  0  0  0  0  0
   18.8678   83.0385   70.8368 C   0  0  0  0  0  2  0  0  0  0  0  0
  2  7  1  0
  2  1  1  0
  3  4  2  0
  3  5  1  0
  4  6  1  0
  5  2  2  0
  6  7  2  0
  8  3  1  0
  9  8  1  0
 10  1  1  0
 10 11  1  0
 10 12  1  0
 11 13  2  0
 12 14  2  0
 13 19  1  0
 14 15  1  0
 14 16  1  0
 15 13  1  0
 15 17  1  0
 16 18  2  0
 17 18  1  0
 20 21  1  0
 20 19  1  0
 21 22  1  0
 22 24  1  0
 23 21  1  0
 23 25  1  0
 25 26  1  0
 26 24  1  0
M  RAD  8   4   2   5   2   6   2   7   2   8   3  10   2  15   2  18   2
M  RAD  7  20   3  21   2  22   3  23   3  24   3  25   3  26   3
M  END
>  <REMARK>  (1) 
 SMILES OCc1cccc(Nc2nc(OCC3CCCCC3)c3[nH]cnc3n2)c1
 SMILES IDX 8 1 7 3 3 4 4 5 26 6 5 7 6 8 2 9 1 10 9 12 10 13 25 14 11 15
 SMILES IDX 24 16 20 17 23 18 21 19 22 20 12 22 13 23 14 24 15 25 19 26
 SMILES IDX 16 27 18 28 17 29
 H PARENT 8 2 1 11 21 21

>  <TORSDO>  (1) 
F 7

$$$$
