/home/pchatterjee/Documents/git/vs_workflow/DiffDock/diffdock_run/pdbqt_scrubbed/5329555.pdbqt
     RDKit          3D

 26 29  0  0  1  0  0  0  0  0999 V2000
    7.0237   42.8018   48.7543 N   0  0  0  0  0  0  0  0  0  0  0  0
    5.8290   42.1166   48.5010 C   0  0  0  0  0  0  0  0  0  0  0  0
    3.5938   41.4180   49.0651 C   0  0  0  0  0  0  0  0  0  0  0  0
    3.5399   40.7184   47.8642 C   0  0  0  0  0  3  0  0  0  0  0  0
    4.7484   42.1176   49.3763 C   0  0  0  0  0  3  0  0  0  0  0  0
    4.6011   40.7051   46.9830 C   0  0  0  0  0  3  0  0  0  0  0  0
    5.7279   41.4049   47.3170 C   0  0  0  0  0  3  0  0  0  0  0  0
    2.4082   41.3687   49.9355 C   0  0  0  0  0  2  0  0  0  0  0  0
    2.3738   42.3911   50.8659 O   0  0  0  0  0  0  0  0  0  0  0  0
    7.5830   42.9298   50.0664 C   0  0  0  0  0  3  0  0  0  0  0  0
    6.7474   43.6823   50.9469 N   0  0  0  0  0  0  0  0  0  0  0  0
    8.9287   43.4177   50.1082 N   0  0  0  0  0  0  0  0  0  0  0  0
    6.9024   44.9422   51.2319 C   0  0  0  0  0  0  0  0  0  0  0  0
    9.1401   44.6626   50.3500 C   0  0  0  0  0  0  0  0  0  0  0  0
    8.0288   45.6402   50.5933 C   0  0  0  0  0  3  0  0  0  0  0  0
   10.3295   45.4441   50.4575 N   0  0  0  0  0  0  0  0  0  0  0  0
    8.7240   46.5579   51.5065 N   0  0  0  0  0  0  0  0  0  0  0  0
   10.1061   46.5323   51.1173 C   0  0  0  0  0  3  0  0  0  0  0  0
    6.0507   45.6162   52.0995 O   0  0  0  0  0  0  0  0  0  0  0  0
    4.6841   45.1817   52.0503 C   0  0  0  0  0  2  0  0  0  0  0  0
    3.8984   46.3553   52.6512 C   0  0  0  0  0  3  0  0  0  0  0  0
    2.4281   45.9957   52.5078 C   0  0  0  0  0  2  0  0  0  0  0  0
    4.3196   46.4560   54.0893 C   0  0  0  0  0  2  0  0  0  0  0  0
    2.2204   44.6585   53.1695 C   0  0  0  0  0  2  0  0  0  0  0  0
    3.2749   45.9648   55.0461 C   0  0  0  0  0  2  0  0  0  0  0  0
    2.6852   44.6398   54.6110 C   0  0  0  0  0  2  0  0  0  0  0  0
  2  7  1  0
  2  1  1  0
  3  4  2  0
  3  5  1  0
  4  6  1  0
  5  2  2  0
  6  7  2  0
  8  3  1  0
  9  8  1  0
 10  1  1  0
 10 11  1  0
 10 12  1  0
 11 13  2  0
 12 14  2  0
 13 19  1  0
 14 15  1  0
 14 16  1  0
 15 13  1  0
 15 17  1  0
 16 18  2  0
 17 18  1  0
 20 21  1  0
 20 19  1  0
 21 22  1  0
 22 24  1  0
 23 21  1  0
 23 25  1  0
 25 26  1  0
 26 24  1  0
M  RAD  8   4   2   5   2   6   2   7   2   8   3  10   2  15   2  18   2
M  RAD  7  20   3  21   2  22   3  23   3  24   3  25   3  26   3
M  END
>  <REMARK>  (1) 
 SMILES OCc1cccc(Nc2nc(OCC3CCCCC3)c3[nH]cnc3n2)c1
 SMILES IDX 8 1 7 3 3 4 4 5 26 6 5 7 6 8 2 9 1 10 9 12 10 13 25 14 11 15
 SMILES IDX 24 16 20 17 23 18 21 19 22 20 12 22 13 23 14 24 15 25 19 26
 SMILES IDX 16 27 18 28 17 29
 H PARENT 8 2 1 11 21 21

>  <TORSDO>  (1) 
F 7

$$$$
