/home/pchatterjee/Documents/git/vs_workflow/DiffDock/diffdock_run/pdbqt_scrubbed/5329555.pdbqt
     RDKit          3D

 26 29  0  0  1  0  0  0  0  0999 V2000
   12.6196   86.1382   68.1670 N   0  0  0  0  0  0  0  0  0  0  0  0
   13.7303   86.6844   67.5120 C   0  0  0  0  0  0  0  0  0  0  0  0
   15.8740   86.5257   66.4251 C   0  0  0  0  0  0  0  0  0  0  0  0
   15.8488   87.9036   66.2368 C   0  0  0  0  0  3  0  0  0  0  0  0
   14.8048   85.9222   67.0669 C   0  0  0  0  0  3  0  0  0  0  0  0
   14.7922   88.6768   66.6710 C   0  0  0  0  0  3  0  0  0  0  0  0
   13.7507   88.0534   67.3015 C   0  0  0  0  0  3  0  0  0  0  0  0
   17.0473   85.7916   65.9247 C   0  0  0  0  0  2  0  0  0  0  0  0
   17.1764   84.5309   66.4780 O   0  0  0  0  0  0  0  0  0  0  0  0
   12.4312   86.2281   69.5838 C   0  0  0  0  0  3  0  0  0  0  0  0
   13.5143   85.6555   70.3177 N   0  0  0  0  0  0  0  0  0  0  0  0
   11.1775   85.7286   70.0628 N   0  0  0  0  0  0  0  0  0  0  0  0
   13.5210   84.4611   70.8333 C   0  0  0  0  0  0  0  0  0  0  0  0
   11.1175   84.5404   70.5500 C   0  0  0  0  0  0  0  0  0  0  0  0
   12.3147   83.6415   70.6412 C   0  0  0  0  0  3  0  0  0  0  0  0
   10.0504   83.7663   71.0969 N   0  0  0  0  0  0  0  0  0  0  0  0
   11.9425   82.8820   71.8429 N   0  0  0  0  0  0  0  0  0  0  0  0
   10.5081   82.8131   71.8394 C   0  0  0  0  0  3  0  0  0  0  0  0
   14.6111   83.9639   71.5381 O   0  0  0  0  0  0  0  0  0  0  0  0
   15.8466   84.6485   71.2854 C   0  0  0  0  0  2  0  0  0  0  0  0
   16.3255   84.0705   69.9467 C   0  0  0  0  0  3  0  0  0  0  0  0
   17.5919   84.8316   69.5879 C   0  0  0  0  0  2  0  0  0  0  0  0
   16.5895   82.6113   70.1846 C   0  0  0  0  0  2  0  0  0  0  0  0
   18.5485   84.6931   70.7432 C   0  0  0  0  0  2  0  0  0  0  0  0
   18.0501   82.2769   70.2395 C   0  0  0  0  0  2  0  0  0  0  0  0
   18.8222   83.2485   71.1070 C   0  0  0  0  0  2  0  0  0  0  0  0
  2  7  1  0
  2  1  1  0
  3  4  2  0
  3  5  1  0
  4  6  1  0
  5  2  2  0
  6  7  2  0
  8  3  1  0
  9  8  1  0
 10  1  1  0
 10 11  1  0
 10 12  1  0
 11 13  2  0
 12 14  2  0
 13 19  1  0
 14 15  1  0
 14 16  1  0
 15 13  1  0
 15 17  1  0
 16 18  2  0
 17 18  1  0
 20 21  1  0
 20 19  1  0
 21 22  1  0
 22 24  1  0
 23 21  1  0
 23 25  1  0
 25 26  1  0
 26 24  1  0
M  RAD  8   4   2   5   2   6   2   7   2   8   3  10   2  15   2  18   2
M  RAD  7  20   3  21   2  22   3  23   3  24   3  25   3  26   3
M  END
>  <REMARK>  (1) 
 SMILES OCc1cccc(Nc2nc(OCC3CCCCC3)c3[nH]cnc3n2)c1
 SMILES IDX 8 1 7 3 3 4 4 5 26 6 5 7 6 8 2 9 1 10 9 12 10 13 25 14 11 15
 SMILES IDX 24 16 20 17 23 18 21 19 22 20 12 22 13 23 14 24 15 25 19 26
 SMILES IDX 16 27 18 28 17 29
 H PARENT 8 2 1 11 21 21

>  <TORSDO>  (1) 
F 7

$$$$
