/home/pchatterjee/Documents/git/vs_workflow/DiffDock/diffdock_run/pdbqt_scrubbed/5329555.pdbqt
     RDKit          3D

 26 29  0  0  1  0  0  0  0  0999 V2000
    6.8997   42.8857   48.7616 N   0  0  0  0  0  0  0  0  0  0  0  0
    5.7176   42.1615   48.5641 C   0  0  0  0  0  0  0  0  0  0  0  0
    3.4811   41.4975   49.1638 C   0  0  0  0  0  0  0  0  0  0  0  0
    3.4561   40.6729   48.0441 C   0  0  0  0  0  3  0  0  0  0  0  0
    4.6220   42.2417   49.4168 C   0  0  0  0  0  3  0  0  0  0  0  0
    4.5325   40.5797   47.1865 C   0  0  0  0  0  3  0  0  0  0  0  0
    5.6452   41.3261   47.4616 C   0  0  0  0  0  3  0  0  0  0  0  0
    2.2812   41.5257   50.0155 C   0  0  0  0  0  2  0  0  0  0  0  0
    1.8132   40.2650   50.3374 O   0  0  0  0  0  0  0  0  0  0  0  0
    7.5084   43.0439   50.0482 C   0  0  0  0  0  3  0  0  0  0  0  0
    6.7158   43.8338   50.9356 N   0  0  0  0  0  0  0  0  0  0  0  0
    8.8611   43.5132   50.0267 N   0  0  0  0  0  0  0  0  0  0  0  0
    6.8980   45.0991   51.1772 C   0  0  0  0  0  0  0  0  0  0  0  0
    9.0979   44.7614   50.2236 C   0  0  0  0  0  0  0  0  0  0  0  0
    8.0095   45.7617   50.4778 C   0  0  0  0  0  3  0  0  0  0  0  0
   10.3009   45.5284   50.2646 N   0  0  0  0  0  0  0  0  0  0  0  0
    8.7500   46.6956   51.3375 N   0  0  0  0  0  0  0  0  0  0  0  0
   10.1165   46.6385   50.8995 C   0  0  0  0  0  3  0  0  0  0  0  0
    6.0879   45.8105   52.0548 O   0  0  0  0  0  0  0  0  0  0  0  0
    4.6930   45.4833   51.9762 C   0  0  0  0  0  2  0  0  0  0  0  0
    3.9980   46.6365   52.7128 C   0  0  0  0  0  3  0  0  0  0  0  0
    2.5046   46.3905   52.5675 C   0  0  0  0  0  2  0  0  0  0  0  0
    4.4485   46.5592   54.1434 C   0  0  0  0  0  2  0  0  0  0  0  0
    2.2184   45.0080   53.0927 C   0  0  0  0  0  2  0  0  0  0  0  0
    3.3890   46.0401   55.0686 C   0  0  0  0  0  2  0  0  0  0  0  0
    2.7045   44.8090   54.5134 C   0  0  0  0  0  2  0  0  0  0  0  0
  2  7  1  0
  2  1  1  0
  3  4  2  0
  3  5  1  0
  4  6  1  0
  5  2  2  0
  6  7  2  0
  8  3  1  0
  9  8  1  0
 10  1  1  0
 10 11  1  0
 10 12  1  0
 11 13  2  0
 12 14  2  0
 13 19  1  0
 14 15  1  0
 14 16  1  0
 15 13  1  0
 15 17  1  0
 16 18  2  0
 17 18  1  0
 20 21  1  0
 20 19  1  0
 21 22  1  0
 22 24  1  0
 23 21  1  0
 23 25  1  0
 25 26  1  0
 26 24  1  0
M  RAD  8   4   2   5   2   6   2   7   2   8   3  10   2  15   2  18   2
M  RAD  7  20   3  21   2  22   3  23   3  24   3  25   3  26   3
M  END
>  <REMARK>  (1) 
 SMILES OCc1cccc(Nc2nc(OCC3CCCCC3)c3[nH]cnc3n2)c1
 SMILES IDX 8 1 7 3 3 4 4 5 26 6 5 7 6 8 2 9 1 10 9 12 10 13 25 14 11 15
 SMILES IDX 24 16 20 17 23 18 21 19 22 20 12 22 13 23 14 24 15 25 19 26
 SMILES IDX 16 27 18 28 17 29
 H PARENT 8 2 1 11 21 21

>  <TORSDO>  (1) 
F 7

$$$$
