/home/pchatterjee/Documents/git/vs_workflow/DiffDock/diffdock_run/pdbqt_scrubbed/Z1212176114.pdbqt
     RDKit          3D

 26 29  0  0  0  0  0  0  0  0999 V2000
    7.2150   49.6733   55.6152 O   0  0  0  0  0  0  0  0  0  0  0  0
    8.4602   49.6983   55.3283 C   0  0  0  0  0  0  0  0  0  0  0  0
    8.9275   48.6334   54.5358 N   0  0  0  0  0  0  0  0  0  0  0  0
    9.2221   50.8014   55.8428 C   0  0  0  0  0  0  0  0  0  0  0  0
   10.6172   50.6630   55.8341 C   0  0  0  0  0  3  0  0  0  0  0  0
    8.7424   51.9746   56.3423 C   0  0  0  0  0  0  0  0  0  0  0  0
   11.4647   51.6426   56.2996 C   0  0  0  0  0  3  0  0  0  0  0  0
    9.5667   52.9947   56.8256 C   0  0  0  0  0  3  0  0  0  0  0  0
   10.9168   52.8001   56.7912 C   0  0  0  0  0  3  0  0  0  0  0  0
    7.3834   52.2296   56.3958 O   0  0  0  0  0  0  0  0  0  0  0  0
    7.0493   53.5230   56.9418 C   0  0  0  0  0  2  0  0  0  0  0  0
    5.5310   53.6706   57.0353 C   0  0  0  0  0  3  0  0  0  0  0  0
    4.9148   54.1024   58.3408 C   0  0  0  0  0  2  0  0  0  0  0  0
    5.1035   55.0932   57.2535 C   0  0  0  0  0  2  0  0  0  0  0  0
    8.0416   47.7435   53.7856 C   0  0  0  0  0  2  0  0  0  0  0  0
    8.7815   46.9493   52.7850 C   0  0  0  0  0  0  0  0  0  0  0  0
   10.1343   47.0834   52.5432 C   0  0  0  0  0  3  0  0  0  0  0  0
    8.0782   46.0156   52.0460 C   0  0  0  0  0  3  0  0  0  0  0  0
   10.7782   46.3023   51.5825 C   0  0  0  0  0  3  0  0  0  0  0  0
    8.7046   45.2309   51.0865 C   0  0  0  0  0  0  0  0  0  0  0  0
   10.0435   45.3798   50.8634 C   0  0  0  0  0  3  0  0  0  0  0  0
    7.9267   44.2559   50.3269 C   0  0  0  0  0  0  0  0  0  0  0  0
    8.3570   43.5434   49.2735 N   0  0  0  0  0  0  0  0  0  0  0  0
    6.6520   43.8698   50.5084 N   0  0  0  0  0  0  0  0  0  0  0  0
    7.4044   42.7556   48.8214 N   0  0  0  0  0  0  0  0  0  0  0  0
    6.3290   42.9519   49.5889 C   0  0  0  0  0  3  0  0  0  0  0  0
  2  1  2  0
  2  3  1  0
  3 15  1  0
  4  2  1  0
  5  4  2  0
  6  4  1  0
  6 10  1  0
  7  5  1  0
  8  6  2  0
  9  7  2  0
  9  8  1  0
 11 10  1  0
 11 12  1  0
 12 13  1  0
 12 14  1  0
 13 14  1  0
 15 16  1  0
 16 18  1  0
 16 17  2  0
 17 19  1  0
 18 20  2  0
 19 21  2  0
 20 21  1  0
 20 22  1  0
 22 23  2  0
 23 25  1  0
 24 22  1  0
 24 26  1  0
 26 25  2  0
M  RAD  8   5   2   7   2   8   2   9   2  11   3  12   2  13   3  14   3
M  RAD  6  15   3  17   2  18   2  19   2  21   2  26   2
M  END
>  <REMARK>  (1) 
 SMILES O=C(NCc1cccc(-c2nnc[nH]2)c1)c1ccccc1OCC1CC1
 SMILES IDX 1 1 2 2 3 3 16 5 17 6 21 7 18 8 20 9 19 10 22 11 23 12 24 13
 SMILES IDX 25 14 26 15 4 16 5 17 6 18 15 19 7 20 9 21 8 22 10 23 11 24
 SMILES IDX 14 25 12 26 13 27
 H PARENT 3 4 14 28

>  <TORSDO>  (1) 
F 7

$$$$
