/home/pchatterjee/Documents/git/vs_workflow/DiffDock/diffdock_run/pdbqt_scrubbed/Z1212176114.pdbqt
     RDKit          3D

 26 29  0  0  0  0  0  0  0  0999 V2000
    6.7327   48.6523   55.3387 O   0  0  0  0  0  0  0  0  0  0  0  0
    6.3136   48.0855   54.2726 C   0  0  0  0  0  0  0  0  0  0  0  0
    7.1353   47.0657   53.7577 N   0  0  0  0  0  0  0  0  0  0  0  0
    5.0656   48.5527   53.7374 C   0  0  0  0  0  0  0  0  0  0  0  0
    4.2433   47.5954   53.1268 C   0  0  0  0  0  3  0  0  0  0  0  0
    4.5857   49.8276   53.7542 C   0  0  0  0  0  0  0  0  0  0  0  0
    3.0232   47.9083   52.5720 C   0  0  0  0  0  3  0  0  0  0  0  0
    3.3535   50.1889   53.2023 C   0  0  0  0  0  3  0  0  0  0  0  0
    2.5988   49.2119   52.6211 C   0  0  0  0  0  3  0  0  0  0  0  0
    5.3043   50.8575   54.3355 O   0  0  0  0  0  0  0  0  0  0  0  0
    4.5291   52.0500   54.5796 C   0  0  0  0  0  2  0  0  0  0  0  0
    5.3558   53.0503   55.3871 C   0  0  0  0  0  3  0  0  0  0  0  0
    5.4934   52.8566   56.8750 C   0  0  0  0  0  2  0  0  0  0  0  0
    6.5926   52.4336   55.9737 C   0  0  0  0  0  2  0  0  0  0  0  0
    8.5958   47.1454   53.7393 C   0  0  0  0  0  2  0  0  0  0  0  0
    9.1675   46.4606   52.5630 C   0  0  0  0  0  0  0  0  0  0  0  0
   10.4425   46.6881   52.0843 C   0  0  0  0  0  3  0  0  0  0  0  0
    8.3796   45.5366   51.9014 C   0  0  0  0  0  3  0  0  0  0  0  0
   10.9271   46.0083   50.9659 C   0  0  0  0  0  3  0  0  0  0  0  0
    8.8475   44.8521   50.7871 C   0  0  0  0  0  0  0  0  0  0  0  0
   10.1117   45.0923   50.3304 C   0  0  0  0  0  3  0  0  0  0  0  0
    7.9843   43.8839   50.1161 C   0  0  0  0  0  0  0  0  0  0  0  0
    8.3225   43.1050   49.0762 N   0  0  0  0  0  0  0  0  0  0  0  0
    6.7048   43.5694   50.3823 N   0  0  0  0  0  0  0  0  0  0  0  0
    7.3106   42.3458   48.7122 N   0  0  0  0  0  0  0  0  0  0  0  0
    6.2893   42.6286   49.5253 C   0  0  0  0  0  3  0  0  0  0  0  0
  2  1  2  0
  2  3  1  0
  3 15  1  0
  4  2  1  0
  5  4  2  0
  6  4  1  0
  6 10  1  0
  7  5  1  0
  8  6  2  0
  9  7  2  0
  9  8  1  0
 11 10  1  0
 11 12  1  0
 12 13  1  0
 12 14  1  0
 13 14  1  0
 15 16  1  0
 16 18  1  0
 16 17  2  0
 17 19  1  0
 18 20  2  0
 19 21  2  0
 20 21  1  0
 20 22  1  0
 22 23  2  0
 23 25  1  0
 24 22  1  0
 24 26  1  0
 26 25  2  0
M  RAD  8   5   2   7   2   8   2   9   2  11   3  12   2  13   3  14   3
M  RAD  6  15   3  17   2  18   2  19   2  21   2  26   2
M  END
>  <REMARK>  (1) 
 SMILES O=C(NCc1cccc(-c2nnc[nH]2)c1)c1ccccc1OCC1CC1
 SMILES IDX 1 1 2 2 3 3 16 5 17 6 21 7 18 8 20 9 19 10 22 11 23 12 24 13
 SMILES IDX 25 14 26 15 4 16 5 17 6 18 15 19 7 20 9 21 8 22 10 23 11 24
 SMILES IDX 14 25 12 26 13 27
 H PARENT 3 4 14 28

>  <TORSDO>  (1) 
F 7

$$$$
