/home/pchatterjee/Documents/git/vs_workflow/DiffDock/diffdock_run/pdbqt_scrubbed/Z1212176114.pdbqt
     RDKit          3D

 26 29  0  0  0  0  0  0  0  0999 V2000
    7.9665   42.7030   47.8692 O   0  0  0  0  0  0  0  0  0  0  0  0
    7.4655   42.8330   49.0379 C   0  0  0  0  0  0  0  0  0  0  0  0
    8.2242   43.5916   49.9485 N   0  0  0  0  0  0  0  0  0  0  0  0
    6.2000   42.1971   49.2752 C   0  0  0  0  0  0  0  0  0  0  0  0
    5.6607   42.3265   50.5628 C   0  0  0  0  0  3  0  0  0  0  0  0
    5.4583   41.4773   48.3876 C   0  0  0  0  0  0  0  0  0  0  0  0
    4.4572   41.7654   50.9249 C   0  0  0  0  0  3  0  0  0  0  0  0
    4.2324   40.8902   48.7133 C   0  0  0  0  0  3  0  0  0  0  0  0
    3.7605   41.0511   49.9835 C   0  0  0  0  0  3  0  0  0  0  0  0
    5.8838   41.2870   47.0847 O   0  0  0  0  0  0  0  0  0  0  0  0
    4.9007   40.6654   46.2304 C   0  0  0  0  0  2  0  0  0  0  0  0
    5.4808   40.4666   44.8305 C   0  0  0  0  0  3  0  0  0  0  0  0
    4.5494   40.4475   43.6462 C   0  0  0  0  0  2  0  0  0  0  0  0
    5.3135   41.6790   43.9609 C   0  0  0  0  0  2  0  0  0  0  0  0
    8.4947   45.0184   49.7735 C   0  0  0  0  0  2  0  0  0  0  0  0
    8.8644   45.6666   51.0473 C   0  0  0  0  0  0  0  0  0  0  0  0
   10.1548   45.7256   51.5348 C   0  0  0  0  0  3  0  0  0  0  0  0
    7.8587   46.2494   51.7967 C   0  0  0  0  0  3  0  0  0  0  0  0
   10.4417   46.3536   52.7477 C   0  0  0  0  0  3  0  0  0  0  0  0
    8.1282   46.8779   53.0055 C   0  0  0  0  0  0  0  0  0  0  0  0
    9.4117   46.9248   53.4693 C   0  0  0  0  0  3  0  0  0  0  0  0
    7.0382   47.4814   53.7674 C   0  0  0  0  0  0  0  0  0  0  0  0
    7.1638   48.3723   54.7638 N   0  0  0  0  0  0  0  0  0  0  0  0
    5.7143   47.2850   53.6436 N   0  0  0  0  0  0  0  0  0  0  0  0
    5.9839   48.7141   55.2369 N   0  0  0  0  0  0  0  0  0  0  0  0
    5.0660   48.0376   54.5412 C   0  0  0  0  0  3  0  0  0  0  0  0
  2  1  2  0
  2  3  1  0
  3 15  1  0
  4  2  1  0
  5  4  2  0
  6  4  1  0
  6 10  1  0
  7  5  1  0
  8  6  2  0
  9  7  2  0
  9  8  1  0
 11 10  1  0
 11 12  1  0
 12 13  1  0
 12 14  1  0
 13 14  1  0
 15 16  1  0
 16 18  1  0
 16 17  2  0
 17 19  1  0
 18 20  2  0
 19 21  2  0
 20 21  1  0
 20 22  1  0
 22 23  2  0
 23 25  1  0
 24 22  1  0
 24 26  1  0
 26 25  2  0
M  RAD  8   5   2   7   2   8   2   9   2  11   3  12   2  13   3  14   3
M  RAD  6  15   3  17   2  18   2  19   2  21   2  26   2
M  END
>  <REMARK>  (1) 
 SMILES O=C(NCc1cccc(-c2nnc[nH]2)c1)c1ccccc1OCC1CC1
 SMILES IDX 1 1 2 2 3 3 16 5 17 6 21 7 18 8 20 9 19 10 22 11 23 12 24 13
 SMILES IDX 25 14 26 15 4 16 5 17 6 18 15 19 7 20 9 21 8 22 10 23 11 24
 SMILES IDX 14 25 12 26 13 27
 H PARENT 3 4 14 28

>  <TORSDO>  (1) 
F 7

$$$$
