/home/pchatterjee/Documents/git/vs_workflow/DiffDock/diffdock_run/pdbqt_scrubbed/Z1212176114.pdbqt
     RDKit          3D

 26 29  0  0  0  0  0  0  0  0999 V2000
    8.7896   44.8242   49.0647 O   0  0  0  0  0  0  0  0  0  0  0  0
    8.4775   44.4458   50.2449 C   0  0  0  0  0  0  0  0  0  0  0  0
    7.9113   43.1615   50.3466 N   0  0  0  0  0  0  0  0  0  0  0  0
    8.7430   45.3683   51.3130 C   0  0  0  0  0  0  0  0  0  0  0  0
   10.0794   45.7479   51.5010 C   0  0  0  0  0  3  0  0  0  0  0  0
    7.8399   45.9203   52.1708 C   0  0  0  0  0  0  0  0  0  0  0  0
   10.4722   46.6228   52.4883 C   0  0  0  0  0  3  0  0  0  0  0  0
    8.1954   46.8116   53.1870 C   0  0  0  0  0  3  0  0  0  0  0  0
    9.5126   47.1420   53.3199 C   0  0  0  0  0  3  0  0  0  0  0  0
    6.4907   45.6270   52.0790 O   0  0  0  0  0  0  0  0  0  0  0  0
    5.7163   46.0613   53.2168 C   0  0  0  0  0  2  0  0  0  0  0  0
    4.2500   45.6760   53.0243 C   0  0  0  0  0  3  0  0  0  0  0  0
    3.2234   46.7636   52.8411 C   0  0  0  0  0  2  0  0  0  0  0  0
    3.7365   46.0301   51.6586 C   0  0  0  0  0  2  0  0  0  0  0  0
    6.5140   42.9279   50.7108 C   0  0  0  0  0  2  0  0  0  0  0  0
    5.7901   42.1860   49.6597 C   0  0  0  0  0  0  0  0  0  0  0  0
    6.3565   41.8001   48.4610 C   0  0  0  0  0  3  0  0  0  0  0  0
    4.4664   41.8579   49.8890 C   0  0  0  0  0  3  0  0  0  0  0  0
    5.6194   41.0993   47.5053 C   0  0  0  0  0  3  0  0  0  0  0  0
    3.7198   41.1610   48.9479 C   0  0  0  0  0  0  0  0  0  0  0  0
    4.2995   40.7890   47.7689 C   0  0  0  0  0  3  0  0  0  0  0  0
    2.3244   40.8334   49.2279 C   0  0  0  0  0  0  0  0  0  0  0  0
    1.5725   39.9348   48.5725 N   0  0  0  0  0  0  0  0  0  0  0  0
    1.5127   41.3418   50.1710 N   0  0  0  0  0  0  0  0  0  0  0  0
    0.3581   39.8840   49.0777 N   0  0  0  0  0  0  0  0  0  0  0  0
    0.3087   40.7632   50.0821 C   0  0  0  0  0  3  0  0  0  0  0  0
  2  1  2  0
  2  3  1  0
  3 15  1  0
  4  2  1  0
  5  4  2  0
  6  4  1  0
  6 10  1  0
  7  5  1  0
  8  6  2  0
  9  7  2  0
  9  8  1  0
 11 10  1  0
 11 12  1  0
 12 13  1  0
 12 14  1  0
 13 14  1  0
 15 16  1  0
 16 18  1  0
 16 17  2  0
 17 19  1  0
 18 20  2  0
 19 21  2  0
 20 21  1  0
 20 22  1  0
 22 23  2  0
 23 25  1  0
 24 22  1  0
 24 26  1  0
 26 25  2  0
M  RAD  8   5   2   7   2   8   2   9   2  11   3  12   2  13   3  14   3
M  RAD  6  15   3  17   2  18   2  19   2  21   2  26   2
M  END
>  <REMARK>  (1) 
 SMILES O=C(NCc1cccc(-c2nnc[nH]2)c1)c1ccccc1OCC1CC1
 SMILES IDX 1 1 2 2 3 3 16 5 17 6 21 7 18 8 20 9 19 10 22 11 23 12 24 13
 SMILES IDX 25 14 26 15 4 16 5 17 6 18 15 19 7 20 9 21 8 22 10 23 11 24
 SMILES IDX 14 25 12 26 13 27
 H PARENT 3 4 14 28

>  <TORSDO>  (1) 
F 7

$$$$
