/home/pchatterjee/Documents/git/vs_workflow/DiffDock/diffdock_run/pdbqt_scrubbed/Z1212176114.pdbqt
     RDKit          3D

 26 29  0  0  0  0  0  0  0  0999 V2000
    6.6368   48.3779   54.5951 O   0  0  0  0  0  0  0  0  0  0  0  0
    7.8827   48.1083   54.5031 C   0  0  0  0  0  0  0  0  0  0  0  0
    8.2389   47.1964   53.4922 N   0  0  0  0  0  0  0  0  0  0  0  0
    8.7587   48.7654   55.4322 C   0  0  0  0  0  0  0  0  0  0  0  0
   10.0135   48.1760   55.6408 C   0  0  0  0  0  3  0  0  0  0  0  0
    8.5089   49.9027   56.1394 C   0  0  0  0  0  0  0  0  0  0  0  0
   10.9472   48.7009   56.5051 C   0  0  0  0  0  3  0  0  0  0  0  0
    9.4277   50.4689   57.0275 C   0  0  0  0  0  3  0  0  0  0  0  0
   10.6322   49.8481   57.1882 C   0  0  0  0  0  3  0  0  0  0  0  0
    7.3080   50.5782   56.0118 O   0  0  0  0  0  0  0  0  0  0  0  0
    7.0422   51.5111   57.0803 C   0  0  0  0  0  2  0  0  0  0  0  0
    5.6346   52.0869   56.9286 C   0  0  0  0  0  3  0  0  0  0  0  0
    4.5243   51.1921   56.4418 C   0  0  0  0  0  2  0  0  0  0  0  0
    4.6568   51.4774   57.8911 C   0  0  0  0  0  2  0  0  0  0  0  0
    7.2715   46.6079   52.5662 C   0  0  0  0  0  2  0  0  0  0  0  0
    7.9326   45.7957   51.5257 C   0  0  0  0  0  0  0  0  0  0  0  0
    9.2192   46.0188   51.0769 C   0  0  0  0  0  3  0  0  0  0  0  0
    7.2213   44.7493   50.9673 C   0  0  0  0  0  3  0  0  0  0  0  0
    9.7901   45.2151   50.0890 C   0  0  0  0  0  3  0  0  0  0  0  0
    7.7756   43.9407   49.9835 C   0  0  0  0  0  0  0  0  0  0  0  0
    9.0497   44.1789   49.5541 C   0  0  0  0  0  3  0  0  0  0  0  0
    6.9916   42.8455   49.4189 C   0  0  0  0  0  0  0  0  0  0  0  0
    7.3532   42.0551   48.3957 N   0  0  0  0  0  0  0  0  0  0  0  0
    5.7769   42.4024   49.7861 N   0  0  0  0  0  0  0  0  0  0  0  0
    6.4166   41.1669   48.1375 N   0  0  0  0  0  0  0  0  0  0  0  0
    5.4218   41.3753   49.0042 C   0  0  0  0  0  3  0  0  0  0  0  0
  2  1  2  0
  2  3  1  0
  3 15  1  0
  4  2  1  0
  5  4  2  0
  6  4  1  0
  6 10  1  0
  7  5  1  0
  8  6  2  0
  9  7  2  0
  9  8  1  0
 11 10  1  0
 11 12  1  0
 12 13  1  0
 12 14  1  0
 13 14  1  0
 15 16  1  0
 16 18  1  0
 16 17  2  0
 17 19  1  0
 18 20  2  0
 19 21  2  0
 20 21  1  0
 20 22  1  0
 22 23  2  0
 23 25  1  0
 24 22  1  0
 24 26  1  0
 26 25  2  0
M  RAD  8   5   2   7   2   8   2   9   2  11   3  12   2  13   3  14   3
M  RAD  6  15   3  17   2  18   2  19   2  21   2  26   2
M  END
>  <REMARK>  (1) 
 SMILES O=C(NCc1cccc(-c2nnc[nH]2)c1)c1ccccc1OCC1CC1
 SMILES IDX 1 1 2 2 3 3 16 5 17 6 21 7 18 8 20 9 19 10 22 11 23 12 24 13
 SMILES IDX 25 14 26 15 4 16 5 17 6 18 15 19 7 20 9 21 8 22 10 23 11 24
 SMILES IDX 14 25 12 26 13 27
 H PARENT 3 4 14 28

>  <TORSDO>  (1) 
F 7

$$$$
