/home/pchatterjee/Documents/git/vs_workflow/DiffDock/diffdock_run/pdbqt_scrubbed/Z1212176114.pdbqt
     RDKit          3D

 26 29  0  0  0  0  0  0  0  0999 V2000
    7.8384   44.7661   51.1622 O   0  0  0  0  0  0  0  0  0  0  0  0
    6.5916   44.5662   51.3594 C   0  0  0  0  0  0  0  0  0  0  0  0
    5.9885   43.5988   50.5343 N   0  0  0  0  0  0  0  0  0  0  0  0
    5.9654   45.3442   52.3913 C   0  0  0  0  0  0  0  0  0  0  0  0
    4.5905   45.1478   52.5829 C   0  0  0  0  0  3  0  0  0  0  0  0
    6.5572   46.2577   53.2107 C   0  0  0  0  0  0  0  0  0  0  0  0
    3.8675   45.8293   53.5354 C   0  0  0  0  0  3  0  0  0  0  0  0
    5.8609   46.9720   54.1897 C   0  0  0  0  0  3  0  0  0  0  0  0
    4.5239   46.7371   54.3273 C   0  0  0  0  0  3  0  0  0  0  0  0
    7.9106   46.5318   53.1210 O   0  0  0  0  0  0  0  0  0  0  0  0
    8.3434   47.6318   53.9489 C   0  0  0  0  0  2  0  0  0  0  0  0
    9.8660   47.7531   53.8966 C   0  0  0  0  0  3  0  0  0  0  0  0
   10.5067   48.4514   52.7252 C   0  0  0  0  0  2  0  0  0  0  0  0
   10.3340   49.1753   54.0080 C   0  0  0  0  0  2  0  0  0  0  0  0
    6.7243   42.8294   49.5312 C   0  0  0  0  0  2  0  0  0  0  0  0
    5.8316   41.9478   48.7531 C   0  0  0  0  0  0  0  0  0  0  0  0
    6.1927   41.3401   47.5671 C   0  0  0  0  0  3  0  0  0  0  0  0
    4.5584   41.7168   49.2411 C   0  0  0  0  0  3  0  0  0  0  0  0
    5.3028   40.5159   46.8766 C   0  0  0  0  0  3  0  0  0  0  0  0
    3.6616   40.8992   48.5656 C   0  0  0  0  0  0  0  0  0  0  0  0
    4.0392   40.3080   47.3941 C   0  0  0  0  0  3  0  0  0  0  0  0
    2.3258   40.6803   49.1139 C   0  0  0  0  0  0  0  0  0  0  0  0
    1.4298   39.7768   48.6858 N   0  0  0  0  0  0  0  0  0  0  0  0
    1.7195   41.3130   50.1331 N   0  0  0  0  0  0  0  0  0  0  0  0
    0.3244   39.8410   49.3977 N   0  0  0  0  0  0  0  0  0  0  0  0
    0.4947   40.8021   50.3096 C   0  0  0  0  0  3  0  0  0  0  0  0
  2  1  2  0
  2  3  1  0
  3 15  1  0
  4  2  1  0
  5  4  2  0
  6  4  1  0
  6 10  1  0
  7  5  1  0
  8  6  2  0
  9  7  2  0
  9  8  1  0
 11 10  1  0
 11 12  1  0
 12 13  1  0
 12 14  1  0
 13 14  1  0
 15 16  1  0
 16 18  1  0
 16 17  2  0
 17 19  1  0
 18 20  2  0
 19 21  2  0
 20 21  1  0
 20 22  1  0
 22 23  2  0
 23 25  1  0
 24 22  1  0
 24 26  1  0
 26 25  2  0
M  RAD  8   5   2   7   2   8   2   9   2  11   3  12   2  13   3  14   3
M  RAD  6  15   3  17   2  18   2  19   2  21   2  26   2
M  END
>  <REMARK>  (1) 
 SMILES O=C(NCc1cccc(-c2nnc[nH]2)c1)c1ccccc1OCC1CC1
 SMILES IDX 1 1 2 2 3 3 16 5 17 6 21 7 18 8 20 9 19 10 22 11 23 12 24 13
 SMILES IDX 25 14 26 15 4 16 5 17 6 18 15 19 7 20 9 21 8 22 10 23 11 24
 SMILES IDX 14 25 12 26 13 27
 H PARENT 3 4 14 28

>  <TORSDO>  (1) 
F 7

$$$$
