/home/pchatterjee/Documents/git/vs_workflow/DiffDock/diffdock_run/pdbqt_scrubbed/Z1212176114.pdbqt
     RDKit          3D

 26 29  0  0  0  0  0  0  0  0999 V2000
    8.4026   45.3353   51.1674 O   0  0  0  0  0  0  0  0  0  0  0  0
    7.1650   45.0317   51.0685 C   0  0  0  0  0  0  0  0  0  0  0  0
    6.8618   43.9763   50.1884 N   0  0  0  0  0  0  0  0  0  0  0  0
    6.2444   45.7961   51.8625 C   0  0  0  0  0  0  0  0  0  0  0  0
    4.8929   45.7357   51.4944 C   0  0  0  0  0  3  0  0  0  0  0  0
    6.5349   46.5788   52.9390 C   0  0  0  0  0  0  0  0  0  0  0  0
    3.9074   46.4207   52.1682 C   0  0  0  0  0  3  0  0  0  0  0  0
    5.5659   47.2914   53.6509 C   0  0  0  0  0  3  0  0  0  0  0  0
    4.2674   47.1927   53.2435 C   0  0  0  0  0  3  0  0  0  0  0  0
    7.8326   46.7111   53.4009 O   0  0  0  0  0  0  0  0  0  0  0  0
    8.0059   47.7642   54.3724 C   0  0  0  0  0  2  0  0  0  0  0  0
    9.4188   47.7081   54.9523 C   0  0  0  0  0  3  0  0  0  0  0  0
   10.5984   47.7438   54.0155 C   0  0  0  0  0  2  0  0  0  0  0  0
   10.1850   48.9790   54.7246 C   0  0  0  0  0  2  0  0  0  0  0  0
    6.3149   42.6943   50.6323 C   0  0  0  0  0  2  0  0  0  0  0  0
    5.5722   42.0121   49.5541 C   0  0  0  0  0  0  0  0  0  0  0  0
    6.1150   41.7011   48.3232 C   0  0  0  0  0  3  0  0  0  0  0  0
    4.2549   41.6640   49.7908 C   0  0  0  0  0  3  0  0  0  0  0  0
    5.3609   41.0543   47.3429 C   0  0  0  0  0  3  0  0  0  0  0  0
    3.4916   41.0202   48.8255 C   0  0  0  0  0  0  0  0  0  0  0  0
    4.0481   40.7219   47.6148 C   0  0  0  0  0  3  0  0  0  0  0  0
    2.1037   40.6693   49.1143 C   0  0  0  0  0  0  0  0  0  0  0  0
    1.3306   39.8347   48.4013 N   0  0  0  0  0  0  0  0  0  0  0  0
    1.3208   41.0897   50.1228 N   0  0  0  0  0  0  0  0  0  0  0  0
    0.1309   39.7386   48.9344 N   0  0  0  0  0  0  0  0  0  0  0  0
    0.1130   40.5223   50.0159 C   0  0  0  0  0  3  0  0  0  0  0  0
  2  1  2  0
  2  3  1  0
  3 15  1  0
  4  2  1  0
  5  4  2  0
  6  4  1  0
  6 10  1  0
  7  5  1  0
  8  6  2  0
  9  7  2  0
  9  8  1  0
 11 10  1  0
 11 12  1  0
 12 13  1  0
 12 14  1  0
 13 14  1  0
 15 16  1  0
 16 18  1  0
 16 17  2  0
 17 19  1  0
 18 20  2  0
 19 21  2  0
 20 21  1  0
 20 22  1  0
 22 23  2  0
 23 25  1  0
 24 22  1  0
 24 26  1  0
 26 25  2  0
M  RAD  8   5   2   7   2   8   2   9   2  11   3  12   2  13   3  14   3
M  RAD  6  15   3  17   2  18   2  19   2  21   2  26   2
M  END
>  <REMARK>  (1) 
 SMILES O=C(NCc1cccc(-c2nnc[nH]2)c1)c1ccccc1OCC1CC1
 SMILES IDX 1 1 2 2 3 3 16 5 17 6 21 7 18 8 20 9 19 10 22 11 23 12 24 13
 SMILES IDX 25 14 26 15 4 16 5 17 6 18 15 19 7 20 9 21 8 22 10 23 11 24
 SMILES IDX 14 25 12 26 13 27
 H PARENT 3 4 14 28

>  <TORSDO>  (1) 
F 7

$$$$
