/home/pchatterjee/Documents/git/vs_workflow/DiffDock/diffdock_run/pdbqt_scrubbed/Z1212176114.pdbqt
     RDKit          3D

 26 29  0  0  0  0  0  0  0  0999 V2000
    7.0608   44.7906   50.9332 O   0  0  0  0  0  0  0  0  0  0  0  0
    5.9391   44.4110   51.4139 C   0  0  0  0  0  0  0  0  0  0  0  0
    5.3879   43.2505   50.8397 N   0  0  0  0  0  0  0  0  0  0  0  0
    5.3851   45.2067   52.4732 C   0  0  0  0  0  0  0  0  0  0  0  0
    4.0533   44.9475   52.8265 C   0  0  0  0  0  3  0  0  0  0  0  0
    6.0084   46.1913   53.1789 C   0  0  0  0  0  0  0  0  0  0  0  0
    3.4002   45.6377   53.8222 C   0  0  0  0  0  3  0  0  0  0  0  0
    5.3828   46.9170   54.1966 C   0  0  0  0  0  3  0  0  0  0  0  0
    4.0849   46.6186   54.4937 C   0  0  0  0  0  3  0  0  0  0  0  0
    7.3254   46.5321   52.9257 O   0  0  0  0  0  0  0  0  0  0  0  0
    7.5483   47.9509   52.7838 C   0  0  0  0  0  2  0  0  0  0  0  0
    9.0485   48.2426   52.7778 C   0  0  0  0  0  3  0  0  0  0  0  0
   10.0081   47.1607   53.2011 C   0  0  0  0  0  2  0  0  0  0  0  0
    9.7893   47.4262   51.7585 C   0  0  0  0  0  2  0  0  0  0  0  0
    5.9277   42.6173   49.6366 C   0  0  0  0  0  2  0  0  0  0  0  0
    4.9117   41.7999   48.9444 C   0  0  0  0  0  0  0  0  0  0  0  0
    3.7966   41.2714   49.5636 C   0  0  0  0  0  3  0  0  0  0  0  0
    5.0873   41.5485   47.5958 C   0  0  0  0  0  3  0  0  0  0  0  0
    2.8704   40.5053   48.8543 C   0  0  0  0  0  3  0  0  0  0  0  0
    4.1746   40.7880   46.8764 C   0  0  0  0  0  0  0  0  0  0  0  0
    3.0784   40.2748   47.5085 C   0  0  0  0  0  3  0  0  0  0  0  0
    4.3959   40.5452   45.4534 C   0  0  0  0  0  0  0  0  0  0  0  0
    3.4547   40.5197   44.4963 N   0  0  0  0  0  0  0  0  0  0  0  0
    5.5506   40.3019   44.8099 N   0  0  0  0  0  0  0  0  0  0  0  0
    3.9912   40.2741   43.3196 N   0  0  0  0  0  0  0  0  0  0  0  0
    5.3069   40.1355   43.5041 C   0  0  0  0  0  3  0  0  0  0  0  0
  2  1  2  0
  2  3  1  0
  3 15  1  0
  4  2  1  0
  5  4  2  0
  6  4  1  0
  6 10  1  0
  7  5  1  0
  8  6  2  0
  9  7  2  0
  9  8  1  0
 11 10  1  0
 11 12  1  0
 12 13  1  0
 12 14  1  0
 13 14  1  0
 15 16  1  0
 16 18  1  0
 16 17  2  0
 17 19  1  0
 18 20  2  0
 19 21  2  0
 20 21  1  0
 20 22  1  0
 22 23  2  0
 23 25  1  0
 24 22  1  0
 24 26  1  0
 26 25  2  0
M  RAD  8   5   2   7   2   8   2   9   2  11   3  12   2  13   3  14   3
M  RAD  6  15   3  17   2  18   2  19   2  21   2  26   2
M  END
>  <REMARK>  (1) 
 SMILES O=C(NCc1cccc(-c2nnc[nH]2)c1)c1ccccc1OCC1CC1
 SMILES IDX 1 1 2 2 3 3 16 5 17 6 21 7 18 8 20 9 19 10 22 11 23 12 24 13
 SMILES IDX 25 14 26 15 4 16 5 17 6 18 15 19 7 20 9 21 8 22 10 23 11 24
 SMILES IDX 14 25 12 26 13 27
 H PARENT 3 4 14 28

>  <TORSDO>  (1) 
F 7

$$$$
