/home/pchatterjee/Documents/git/vs_workflow/DiffDock/diffdock_run/pdbqt_scrubbed/Z1212176114.pdbqt
     RDKit          3D

 26 29  0  0  0  0  0  0  0  0999 V2000
    4.7664   47.1574   55.7937 O   0  0  0  0  0  0  0  0  0  0  0  0
    4.7686   47.1692   54.5157 C   0  0  0  0  0  0  0  0  0  0  0  0
    5.9386   47.6634   53.9098 N   0  0  0  0  0  0  0  0  0  0  0  0
    3.5886   46.6784   53.8607 C   0  0  0  0  0  0  0  0  0  0  0  0
    3.4992   46.8930   52.4781 C   0  0  0  0  0  3  0  0  0  0  0  0
    2.5387   46.0245   54.4319 C   0  0  0  0  0  0  0  0  0  0  0  0
    2.4224   46.4760   51.7289 C   0  0  0  0  0  3  0  0  0  0  0  0
    1.4262   45.5849   53.7091 C   0  0  0  0  0  3  0  0  0  0  0  0
    1.3972   45.8242   52.3660 C   0  0  0  0  0  3  0  0  0  0  0  0
    2.5168   45.7487   55.7877 O   0  0  0  0  0  0  0  0  0  0  0  0
    1.4621   44.8482   56.1870 C   0  0  0  0  0  2  0  0  0  0  0  0
    1.5363   44.5971   57.6928 C   0  0  0  0  0  3  0  0  0  0  0  0
    1.3275   45.7501   58.6401 C   0  0  0  0  0  2  0  0  0  0  0  0
    0.2158   44.8046   58.3764 C   0  0  0  0  0  2  0  0  0  0  0  0
    7.2672   47.5344   54.5081 C   0  0  0  0  0  2  0  0  0  0  0  0
    8.2788   47.1245   53.5141 C   0  0  0  0  0  0  0  0  0  0  0  0
    9.5309   47.6969   53.4092 C   0  0  0  0  0  3  0  0  0  0  0  0
    7.9531   46.1071   52.6357 C   0  0  0  0  0  3  0  0  0  0  0  0
   10.4451   47.2652   52.4470 C   0  0  0  0  0  3  0  0  0  0  0  0
    8.8518   45.6666   51.6729 C   0  0  0  0  0  0  0  0  0  0  0  0
   10.0850   46.2465   51.5866 C   0  0  0  0  0  3  0  0  0  0  0  0
    8.4698   44.5894   50.7638 C   0  0  0  0  0  0  0  0  0  0  0  0
    9.2866   43.9279   49.9285 N   0  0  0  0  0  0  0  0  0  0  0  0
    7.2580   44.0413   50.5692 N   0  0  0  0  0  0  0  0  0  0  0  0
    8.6224   43.0167   49.2493 N   0  0  0  0  0  0  0  0  0  0  0  0
    7.3476   43.0786   49.6432 C   0  0  0  0  0  3  0  0  0  0  0  0
  2  1  2  0
  2  3  1  0
  3 15  1  0
  4  2  1  0
  5  4  2  0
  6  4  1  0
  6 10  1  0
  7  5  1  0
  8  6  2  0
  9  7  2  0
  9  8  1  0
 11 10  1  0
 11 12  1  0
 12 13  1  0
 12 14  1  0
 13 14  1  0
 15 16  1  0
 16 18  1  0
 16 17  2  0
 17 19  1  0
 18 20  2  0
 19 21  2  0
 20 21  1  0
 20 22  1  0
 22 23  2  0
 23 25  1  0
 24 22  1  0
 24 26  1  0
 26 25  2  0
M  RAD  8   5   2   7   2   8   2   9   2  11   3  12   2  13   3  14   3
M  RAD  6  15   3  17   2  18   2  19   2  21   2  26   2
M  END
>  <REMARK>  (1) 
 SMILES O=C(NCc1cccc(-c2nnc[nH]2)c1)c1ccccc1OCC1CC1
 SMILES IDX 1 1 2 2 3 3 16 5 17 6 21 7 18 8 20 9 19 10 22 11 23 12 24 13
 SMILES IDX 25 14 26 15 4 16 5 17 6 18 15 19 7 20 9 21 8 22 10 23 11 24
 SMILES IDX 14 25 12 26 13 27
 H PARENT 3 4 14 28

>  <TORSDO>  (1) 
F 7

$$$$
