/home/pchatterjee/Documents/git/vs_workflow/DiffDock/diffdock_run/pdbqt_scrubbed/Z1212176114.pdbqt
     RDKit          3D

 26 29  0  0  0  0  0  0  0  0999 V2000
    7.4515   45.0690   51.0524 O   0  0  0  0  0  0  0  0  0  0  0  0
    6.3870   44.6039   51.5854 C   0  0  0  0  0  0  0  0  0  0  0  0
    5.8189   43.4871   50.9448 N   0  0  0  0  0  0  0  0  0  0  0  0
    5.9071   45.2702   52.7635 C   0  0  0  0  0  0  0  0  0  0  0  0
    4.7046   44.7992   53.3090 C   0  0  0  0  0  3  0  0  0  0  0  0
    6.4894   46.3147   53.4163 C   0  0  0  0  0  0  0  0  0  0  0  0
    4.1328   45.3484   54.4341 C   0  0  0  0  0  3  0  0  0  0  0  0
    5.9430   46.9024   54.5606 C   0  0  0  0  0  3  0  0  0  0  0  0
    4.7698   46.3997   55.0431 C   0  0  0  0  0  3  0  0  0  0  0  0
    7.6823   46.8608   52.9764 O   0  0  0  0  0  0  0  0  0  0  0  0
    8.0165   48.1199   53.5976 C   0  0  0  0  0  2  0  0  0  0  0  0
    9.4533   48.5061   53.2478 C   0  0  0  0  0  3  0  0  0  0  0  0
   10.5580   48.1801   54.2193 C   0  0  0  0  0  2  0  0  0  0  0  0
   10.3361   47.3097   53.0392 C   0  0  0  0  0  2  0  0  0  0  0  0
    6.2338   43.0257   49.6201 C   0  0  0  0  0  2  0  0  0  0  0  0
    5.2371   42.1178   49.0187 C   0  0  0  0  0  0  0  0  0  0  0  0
    4.2120   41.5226   49.7268 C   0  0  0  0  0  3  0  0  0  0  0  0
    5.3359   41.8473   47.6660 C   0  0  0  0  0  3  0  0  0  0  0  0
    3.2994   40.6721   49.1009 C   0  0  0  0  0  3  0  0  0  0  0  0
    4.4356   41.0032   47.0290 C   0  0  0  0  0  0  0  0  0  0  0  0
    3.4292   40.4250   47.7482 C   0  0  0  0  0  3  0  0  0  0  0  0
    4.5740   40.7428   45.5986 C   0  0  0  0  0  0  0  0  0  0  0  0
    3.5718   40.5623   44.7236 N   0  0  0  0  0  0  0  0  0  0  0  0
    5.6962   40.6302   44.8676 N   0  0  0  0  0  0  0  0  0  0  0  0
    4.0414   40.3487   43.5126 N   0  0  0  0  0  0  0  0  0  0  0  0
    5.3743   40.3891   43.5907 C   0  0  0  0  0  3  0  0  0  0  0  0
  2  1  2  0
  2  3  1  0
  3 15  1  0
  4  2  1  0
  5  4  2  0
  6  4  1  0
  6 10  1  0
  7  5  1  0
  8  6  2  0
  9  7  2  0
  9  8  1  0
 11 10  1  0
 11 12  1  0
 12 13  1  0
 12 14  1  0
 13 14  1  0
 15 16  1  0
 16 18  1  0
 16 17  2  0
 17 19  1  0
 18 20  2  0
 19 21  2  0
 20 21  1  0
 20 22  1  0
 22 23  2  0
 23 25  1  0
 24 22  1  0
 24 26  1  0
 26 25  2  0
M  RAD  8   5   2   7   2   8   2   9   2  11   3  12   2  13   3  14   3
M  RAD  6  15   3  17   2  18   2  19   2  21   2  26   2
M  END
>  <REMARK>  (1) 
 SMILES O=C(NCc1cccc(-c2nnc[nH]2)c1)c1ccccc1OCC1CC1
 SMILES IDX 1 1 2 2 3 3 16 5 17 6 21 7 18 8 20 9 19 10 22 11 23 12 24 13
 SMILES IDX 25 14 26 15 4 16 5 17 6 18 15 19 7 20 9 21 8 22 10 23 11 24
 SMILES IDX 14 25 12 26 13 27
 H PARENT 3 4 14 28

>  <TORSDO>  (1) 
F 7

$$$$
