/home/pchatterjee/Documents/git/vs_workflow/DiffDock/diffdock_run/pdbqt_scrubbed/5329573.pdbqt
     RDKit          3D

 27 30  0  0  1  0  0  0  0  0999 V2000
    7.1075   42.8290   48.5717 N   0  0  0  0  0  0  0  0  0  0  0  0
    5.8622   42.1637   48.3697 C   0  0  0  0  0  0  0  0  0  0  0  0
    3.4200   40.8545   47.9622 C   0  0  0  0  0  0  0  0  0  0  0  0
    3.7247   41.4891   49.1469 C   0  0  0  0  0  3  0  0  0  0  0  0
    4.3718   40.8822   46.9600 C   0  0  0  0  0  3  0  0  0  0  0  0
    4.9160   42.1375   49.3691 C   0  0  0  0  0  3  0  0  0  0  0  0
    5.5637   41.5333   47.1880 C   0  0  0  0  0  3  0  0  0  0  0  0
    2.1257   40.1556   47.7341 C   0  0  0  0  0  2  0  0  0  0  0  0
    1.1868   41.1401   47.2021 C   0  0  0  0  0  0  0  0  0  0  0  0
    0.4579   41.9170   46.7870 N   0  0  0  0  0  0  0  0  0  0  0  0
    7.5318   43.0079   49.9477 C   0  0  0  0  0  3  0  0  0  0  0  0
    6.6594   43.8218   50.7279 N   0  0  0  0  0  0  0  0  0  0  0  0
    8.9077   43.4412   49.9226 N   0  0  0  0  0  0  0  0  0  0  0  0
    6.9247   45.0736   50.9868 C   0  0  0  0  0  0  0  0  0  0  0  0
    9.2267   44.6628   50.1563 C   0  0  0  0  0  0  0  0  0  0  0  0
    8.1556   45.6672   50.4624 C   0  0  0  0  0  3  0  0  0  0  0  0
   10.4418   45.4172   50.2135 N   0  0  0  0  0  0  0  0  0  0  0  0
    8.8879   46.4678   51.4523 N   0  0  0  0  0  0  0  0  0  0  0  0
   10.2435   46.4688   50.9689 C   0  0  0  0  0  3  0  0  0  0  0  0
    6.0702   45.8618   51.7479 O   0  0  0  0  0  0  0  0  0  0  0  0
    4.7563   45.4155   52.0016 C   0  0  0  0  0  2  0  0  0  0  0  0
    4.1187   46.3626   52.9954 C   0  0  0  0  0  3  0  0  0  0  0  0
    4.3826   45.9711   54.4152 C   0  0  0  0  0  2  0  0  0  0  0  0
    2.6191   46.3289   52.7121 C   0  0  0  0  0  2  0  0  0  0  0  0
    3.2336   45.1996   55.0279 C   0  0  0  0  0  2  0  0  0  0  0  0
    1.8527   46.9364   53.8843 C   0  0  0  0  0  2  0  0  0  0  0  0
    1.9735   46.0155   55.0951 C   0  0  0  0  0  2  0  0  0  0  0  0
  2  1  1  0
  2  6  2  0
  3  8  1  0
  3  4  2  0
  5  3  1  0
  6  4  1  0
  7  5  2  0
  7  2  1  0
  9  8  1  0
 10  9  3  0
 11 12  1  0
 11  1  1  0
 13 11  1  0
 14 20  1  0
 14 12  2  0
 15 13  2  0
 16 15  1  0
 16 14  1  0
 17 15  1  0
 18 16  1  0
 19 17  2  0
 19 18  1  0
 20 21  1  0
 22 21  1  0
 23 22  1  0
 24 22  1  0
 25 23  1  0
 26 24  1  0
 27 25  1  0
 27 26  1  0
M  RAD  8   4   2   5   2   6   2   7   2   8   3  11   2  16   2  19   2
M  RAD  7  21   3  22   2  23   3  24   3  25   3  26   3  27   3
M  END
>  <REMARK>  (1) 
 SMILES N#CCc1ccc(Nc2nc(OCC3CCCCC3)c3[nH]cnc3n2)cc1
 SMILES IDX 8 1 7 3 4 4 5 5 27 6 6 7 26 8 3 9 2 10 1 11 9 12 10 13 25 14
 SMILES IDX 11 15 24 16 20 17 23 18 21 19 22 20 12 22 13 23 14 24 15 25
 SMILES IDX 19 26 16 27 18 28 17 29
 H PARENT 8 2 21 21

>  <TORSDO>  (1) 
F 7

$$$$
