/home/pchatterjee/Documents/git/vs_workflow/DiffDock/diffdock_run/pdbqt_scrubbed/5329573.pdbqt
     RDKit          3D

 27 30  0  0  1  0  0  0  0  0999 V2000
    7.5047   42.4445   48.7317 N   0  0  0  0  0  0  0  0  0  0  0  0
    6.2493   41.8316   48.4447 C   0  0  0  0  0  0  0  0  0  0  0  0
    3.7874   40.6261   47.8702 C   0  0  0  0  0  0  0  0  0  0  0  0
    4.0895   41.1202   49.1207 C   0  0  0  0  0  3  0  0  0  0  0  0
    4.7521   40.7440   46.8870 C   0  0  0  0  0  3  0  0  0  0  0  0
    5.2903   41.7153   49.4253 C   0  0  0  0  0  3  0  0  0  0  0  0
    5.9535   41.3412   47.1977 C   0  0  0  0  0  3  0  0  0  0  0  0
    2.4827   39.9835   47.5531 C   0  0  0  0  0  2  0  0  0  0  0  0
    1.5924   40.2227   48.6862 C   0  0  0  0  0  0  0  0  0  0  0  0
    0.8899   40.4041   49.5698 N   0  0  0  0  0  0  0  0  0  0  0  0
    7.7849   42.7270   50.1271 C   0  0  0  0  0  3  0  0  0  0  0  0
    6.7755   43.4899   50.7837 N   0  0  0  0  0  0  0  0  0  0  0  0
    9.1126   43.2875   50.1962 N   0  0  0  0  0  0  0  0  0  0  0  0
    6.9019   44.7720   50.9953 C   0  0  0  0  0  0  0  0  0  0  0  0
    9.2972   44.5435   50.3889 C   0  0  0  0  0  0  0  0  0  0  0  0
    8.1164   45.4547   50.5465 C   0  0  0  0  0  3  0  0  0  0  0  0
   10.4289   45.4117   50.5085 N   0  0  0  0  0  0  0  0  0  0  0  0
    8.6806   46.3666   51.5501 N   0  0  0  0  0  0  0  0  0  0  0  0
   10.0687   46.4739   51.1853 C   0  0  0  0  0  3  0  0  0  0  0  0
    5.9142   45.5101   51.6360 O   0  0  0  0  0  0  0  0  0  0  0  0
    4.6257   44.9575   51.7911 C   0  0  0  0  0  2  0  0  0  0  0  0
    3.8704   45.7947   52.8009 C   0  0  0  0  0  3  0  0  0  0  0  0
    2.7822   45.0290   53.4852 C   0  0  0  0  0  2  0  0  0  0  0  0
    3.2777   46.9664   52.0226 C   0  0  0  0  0  2  0  0  0  0  0  0
    1.4223   45.2758   52.8682 C   0  0  0  0  0  2  0  0  0  0  0  0
    2.1939   47.6497   52.8527 C   0  0  0  0  0  2  0  0  0  0  0  0
    0.9973   46.7123   52.9864 C   0  0  0  0  0  2  0  0  0  0  0  0
  2  1  1  0
  2  6  2  0
  3  8  1  0
  3  4  2  0
  5  3  1  0
  6  4  1  0
  7  5  2  0
  7  2  1  0
  9  8  1  0
 10  9  3  0
 11 12  1  0
 11  1  1  0
 13 11  1  0
 14 20  1  0
 14 12  2  0
 15 13  2  0
 16 15  1  0
 16 14  1  0
 17 15  1  0
 18 16  1  0
 19 17  2  0
 19 18  1  0
 20 21  1  0
 22 21  1  0
 23 22  1  0
 24 22  1  0
 25 23  1  0
 26 24  1  0
 27 25  1  0
 27 26  1  0
M  RAD  8   4   2   5   2   6   2   7   2   8   3  11   2  16   2  19   2
M  RAD  7  21   3  22   2  23   3  24   3  25   3  26   3  27   3
M  END
>  <REMARK>  (1) 
 SMILES N#CCc1ccc(Nc2nc(OCC3CCCCC3)c3[nH]cnc3n2)cc1
 SMILES IDX 8 1 7 3 4 4 5 5 27 6 6 7 26 8 3 9 2 10 1 11 9 12 10 13 25 14
 SMILES IDX 11 15 24 16 20 17 23 18 21 19 22 20 12 22 13 23 14 24 15 25
 SMILES IDX 19 26 16 27 18 28 17 29
 H PARENT 8 2 21 21

>  <TORSDO>  (1) 
F 7

$$$$
