/home/pchatterjee/Documents/git/vs_workflow/DiffDock/diffdock_run/pdbqt_scrubbed/5329573.pdbqt
     RDKit          3D

 27 30  0  0  1  0  0  0  0  0999 V2000
    7.1286   43.1452   48.7071 N   0  0  0  0  0  0  0  0  0  0  0  0
    5.9510   42.3621   48.5226 C   0  0  0  0  0  0  0  0  0  0  0  0
    3.6412   40.8227   48.1491 C   0  0  0  0  0  0  0  0  0  0  0  0
    3.9685   41.3723   49.3697 C   0  0  0  0  0  3  0  0  0  0  0  0
    4.5014   41.0566   47.0925 C   0  0  0  0  0  3  0  0  0  0  0  0
    5.0959   42.1305   49.5762 C   0  0  0  0  0  3  0  0  0  0  0  0
    5.6297   41.8171   47.3049 C   0  0  0  0  0  3  0  0  0  0  0  0
    2.4166   40.0031   47.9386 C   0  0  0  0  0  2  0  0  0  0  0  0
    1.3125   40.6907   48.6032 C   0  0  0  0  0  0  0  0  0  0  0  0
    0.4524   41.2367   49.1224 N   0  0  0  0  0  0  0  0  0  0  0  0
    7.6731   43.1914   50.0513 C   0  0  0  0  0  3  0  0  0  0  0  0
    6.8174   43.8110   51.0082 N   0  0  0  0  0  0  0  0  0  0  0  0
    8.9969   43.7582   49.9618 N   0  0  0  0  0  0  0  0  0  0  0  0
    6.9985   45.0406   51.4079 C   0  0  0  0  0  0  0  0  0  0  0  0
    9.2313   44.9664   50.3278 C   0  0  0  0  0  0  0  0  0  0  0  0
    8.1141   45.8138   50.8602 C   0  0  0  0  0  3  0  0  0  0  0  0
   10.3763   45.8239   50.3770 N   0  0  0  0  0  0  0  0  0  0  0  0
    8.8711   46.5525   51.8792 N   0  0  0  0  0  0  0  0  0  0  0  0
   10.1656   46.7480   51.2813 C   0  0  0  0  0  3  0  0  0  0  0  0
    6.1607   45.6390   52.3411 O   0  0  0  0  0  0  0  0  0  0  0  0
    5.0809   44.9052   52.8754 C   0  0  0  0  0  2  0  0  0  0  0  0
    3.8704   45.1375   51.9970 C   0  0  0  0  0  3  0  0  0  0  0  0
    3.3349   46.5301   52.1107 C   0  0  0  0  0  2  0  0  0  0  0  0
    2.8163   44.1315   52.4520 C   0  0  0  0  0  2  0  0  0  0  0  0
    2.1598   46.6246   53.0599 C   0  0  0  0  0  2  0  0  0  0  0  0
    1.4465   44.5284   51.9073 C   0  0  0  0  0  2  0  0  0  0  0  0
    0.9856   45.8115   52.5928 C   0  0  0  0  0  2  0  0  0  0  0  0
  2  1  1  0
  2  6  2  0
  3  8  1  0
  3  4  2  0
  5  3  1  0
  6  4  1  0
  7  5  2  0
  7  2  1  0
  9  8  1  0
 10  9  3  0
 11 12  1  0
 11  1  1  0
 13 11  1  0
 14 20  1  0
 14 12  2  0
 15 13  2  0
 16 15  1  0
 16 14  1  0
 17 15  1  0
 18 16  1  0
 19 17  2  0
 19 18  1  0
 20 21  1  0
 22 21  1  0
 23 22  1  0
 24 22  1  0
 25 23  1  0
 26 24  1  0
 27 25  1  0
 27 26  1  0
M  RAD  8   4   2   5   2   6   2   7   2   8   3  11   2  16   2  19   2
M  RAD  7  21   3  22   2  23   3  24   3  25   3  26   3  27   3
M  END
>  <REMARK>  (1) 
 SMILES N#CCc1ccc(Nc2nc(OCC3CCCCC3)c3[nH]cnc3n2)cc1
 SMILES IDX 8 1 7 3 4 4 5 5 27 6 6 7 26 8 3 9 2 10 1 11 9 12 10 13 25 14
 SMILES IDX 11 15 24 16 20 17 23 18 21 19 22 20 12 22 13 23 14 24 15 25
 SMILES IDX 19 26 16 27 18 28 17 29
 H PARENT 8 2 21 21

>  <TORSDO>  (1) 
F 7

$$$$
