/home/pchatterjee/Documents/git/vs_workflow/DiffDock/diffdock_run/pdbqt_scrubbed/5329573.pdbqt
     RDKit          3D

 27 30  0  0  1  0  0  0  0  0999 V2000
    7.2117   42.9330   48.6881 N   0  0  0  0  0  0  0  0  0  0  0  0
    5.9490   42.3099   48.4614 C   0  0  0  0  0  0  0  0  0  0  0  0
    3.4717   41.0856   48.0048 C   0  0  0  0  0  0  0  0  0  0  0  0
    3.8846   41.4609   49.2648 C   0  0  0  0  0  3  0  0  0  0  0  0
    4.3309   41.3349   46.9508 C   0  0  0  0  0  3  0  0  0  0  0  0
    5.0951   42.0626   49.5124 C   0  0  0  0  0  3  0  0  0  0  0  0
    5.5426   41.9381   47.2045 C   0  0  0  0  0  3  0  0  0  0  0  0
    2.1577   40.4344   47.7498 C   0  0  0  0  0  2  0  0  0  0  0  0
    1.9708   39.4134   48.7776 C   0  0  0  0  0  0  0  0  0  0  0  0
    1.8332   38.6127   49.5821 N   0  0  0  0  0  0  0  0  0  0  0  0
    7.6778   42.9737   50.0617 C   0  0  0  0  0  3  0  0  0  0  0  0
    6.8049   43.6599   50.9556 N   0  0  0  0  0  0  0  0  0  0  0  0
    9.0355   43.4616   50.0428 N   0  0  0  0  0  0  0  0  0  0  0  0
    7.0339   44.8846   51.3460 C   0  0  0  0  0  0  0  0  0  0  0  0
    9.3183   44.6612   50.4030 C   0  0  0  0  0  0  0  0  0  0  0  0
    8.2232   45.5815   50.8539 C   0  0  0  0  0  3  0  0  0  0  0  0
   10.5067   45.4521   50.5071 N   0  0  0  0  0  0  0  0  0  0  0  0
    8.9608   46.2950   51.9047 N   0  0  0  0  0  0  0  0  0  0  0  0
   10.2975   46.4040   51.3825 C   0  0  0  0  0  3  0  0  0  0  0  0
    6.1791   45.5480   52.2176 O   0  0  0  0  0  0  0  0  0  0  0  0
    4.8193   45.1769   52.2728 C   0  0  0  0  0  2  0  0  0  0  0  0
    4.1114   46.1143   53.2273 C   0  0  0  0  0  3  0  0  0  0  0  0
    3.9233   45.5180   54.5867 C   0  0  0  0  0  2  0  0  0  0  0  0
    2.7555   46.4189   52.5959 C   0  0  0  0  0  2  0  0  0  0  0  0
    2.5409   44.9317   54.7772 C   0  0  0  0  0  2  0  0  0  0  0  0
    1.8212   47.0319   53.6361 C   0  0  0  0  0  2  0  0  0  0  0  0
    1.4631   45.9738   54.6756 C   0  0  0  0  0  2  0  0  0  0  0  0
  2  1  1  0
  2  6  2  0
  3  8  1  0
  3  4  2  0
  5  3  1  0
  6  4  1  0
  7  5  2  0
  7  2  1  0
  9  8  1  0
 10  9  3  0
 11 12  1  0
 11  1  1  0
 13 11  1  0
 14 20  1  0
 14 12  2  0
 15 13  2  0
 16 15  1  0
 16 14  1  0
 17 15  1  0
 18 16  1  0
 19 17  2  0
 19 18  1  0
 20 21  1  0
 22 21  1  0
 23 22  1  0
 24 22  1  0
 25 23  1  0
 26 24  1  0
 27 25  1  0
 27 26  1  0
M  RAD  8   4   2   5   2   6   2   7   2   8   3  11   2  16   2  19   2
M  RAD  7  21   3  22   2  23   3  24   3  25   3  26   3  27   3
M  END
>  <REMARK>  (1) 
 SMILES N#CCc1ccc(Nc2nc(OCC3CCCCC3)c3[nH]cnc3n2)cc1
 SMILES IDX 8 1 7 3 4 4 5 5 27 6 6 7 26 8 3 9 2 10 1 11 9 12 10 13 25 14
 SMILES IDX 11 15 24 16 20 17 23 18 21 19 22 20 12 22 13 23 14 24 15 25
 SMILES IDX 19 26 16 27 18 28 17 29
 H PARENT 8 2 21 21

>  <TORSDO>  (1) 
F 7

$$$$
