/home/pchatterjee/Documents/git/vs_workflow/DiffDock/diffdock_run/pdbqt_scrubbed/5329573.pdbqt
     RDKit          3D

 27 30  0  0  1  0  0  0  0  0999 V2000
    7.2770   42.5231   48.7740 N   0  0  0  0  0  0  0  0  0  0  0  0
    6.0030   41.9064   48.5984 C   0  0  0  0  0  0  0  0  0  0  0  0
    3.4980   40.6991   48.2640 C   0  0  0  0  0  0  0  0  0  0  0  0
    4.4825   40.6272   47.3024 C   0  0  0  0  0  3  0  0  0  0  0  0
    3.7863   41.3975   49.4217 C   0  0  0  0  0  3  0  0  0  0  0  0
    5.7183   41.2115   47.4448 C   0  0  0  0  0  3  0  0  0  0  0  0
    5.0261   41.9810   49.5592 C   0  0  0  0  0  3  0  0  0  0  0  0
    2.1632   40.0617   48.0975 C   0  0  0  0  0  2  0  0  0  0  0  0
    1.1811   40.9342   48.7362 C   0  0  0  0  0  0  0  0  0  0  0  0
    0.4066   41.6105   49.2364 N   0  0  0  0  0  0  0  0  0  0  0  0
    7.7058   42.7483   50.1418 C   0  0  0  0  0  3  0  0  0  0  0  0
    6.8202   43.5631   50.9059 N   0  0  0  0  0  0  0  0  0  0  0  0
    9.0715   43.2115   50.0956 N   0  0  0  0  0  0  0  0  0  0  0  0
    7.0588   44.8270   51.1295 C   0  0  0  0  0  0  0  0  0  0  0  0
    9.3641   44.4459   50.2943 C   0  0  0  0  0  0  0  0  0  0  0  0
    8.2726   45.4338   50.5810 C   0  0  0  0  0  3  0  0  0  0  0  0
   10.5623   45.2285   50.3230 N   0  0  0  0  0  0  0  0  0  0  0  0
    8.9929   46.2769   51.5441 N   0  0  0  0  0  0  0  0  0  0  0  0
   10.3450   46.2954   51.0514 C   0  0  0  0  0  3  0  0  0  0  0  0
    6.1915   45.6160   51.8753 O   0  0  0  0  0  0  0  0  0  0  0  0
    4.8434   45.2247   52.0143 C   0  0  0  0  0  2  0  0  0  0  0  0
    4.1812   46.1542   53.0086 C   0  0  0  0  0  3  0  0  0  0  0  0
    4.5308   45.8253   54.4258 C   0  0  0  0  0  2  0  0  0  0  0  0
    2.6775   46.0066   52.7915 C   0  0  0  0  0  2  0  0  0  0  0  0
    3.4662   44.9938   55.1084 C   0  0  0  0  0  2  0  0  0  0  0  0
    1.9185   46.5938   53.9788 C   0  0  0  0  0  2  0  0  0  0  0  0
    2.1547   45.7207   55.2078 C   0  0  0  0  0  2  0  0  0  0  0  0
  2  1  1  0
  2  6  2  0
  3  8  1  0
  3  4  2  0
  5  3  1  0
  6  4  1  0
  7  5  2  0
  7  2  1  0
  9  8  1  0
 10  9  3  0
 11 12  1  0
 11  1  1  0
 13 11  1  0
 14 20  1  0
 14 12  2  0
 15 13  2  0
 16 15  1  0
 16 14  1  0
 17 15  1  0
 18 16  1  0
 19 17  2  0
 19 18  1  0
 20 21  1  0
 22 21  1  0
 23 22  1  0
 24 22  1  0
 25 23  1  0
 26 24  1  0
 27 25  1  0
 27 26  1  0
M  RAD  8   4   2   5   2   6   2   7   2   8   3  11   2  16   2  19   2
M  RAD  7  21   3  22   2  23   3  24   3  25   3  26   3  27   3
M  END
>  <REMARK>  (1) 
 SMILES N#CCc1ccc(Nc2nc(OCC3CCCCC3)c3[nH]cnc3n2)cc1
 SMILES IDX 8 1 7 3 4 4 5 5 27 6 6 7 26 8 3 9 2 10 1 11 9 12 10 13 25 14
 SMILES IDX 11 15 24 16 20 17 23 18 21 19 22 20 12 22 13 23 14 24 15 25
 SMILES IDX 19 26 16 27 18 28 17 29
 H PARENT 8 2 21 21

>  <TORSDO>  (1) 
F 7

$$$$
