/home/pchatterjee/Documents/git/vs_workflow/DiffDock/diffdock_run/pdbqt_scrubbed/5329573.pdbqt
     RDKit          3D

 27 30  0  0  1  0  0  0  0  0999 V2000
    7.4607   42.5276   48.8399 N   0  0  0  0  0  0  0  0  0  0  0  0
    6.1849   41.9320   48.6124 C   0  0  0  0  0  0  0  0  0  0  0  0
    3.6829   40.7593   48.1552 C   0  0  0  0  0  0  0  0  0  0  0  0
    3.9949   41.3853   49.3425 C   0  0  0  0  0  3  0  0  0  0  0  0
    4.6582   40.7252   47.1760 C   0  0  0  0  0  3  0  0  0  0  0  0
    5.2153   41.9672   49.5890 C   0  0  0  0  0  3  0  0  0  0  0  0
    5.8793   41.3099   47.4281 C   0  0  0  0  0  3  0  0  0  0  0  0
    2.3569   40.1327   47.9007 C   0  0  0  0  0  2  0  0  0  0  0  0
    1.4676   40.5389   48.9860 C   0  0  0  0  0  0  0  0  0  0  0  0
    0.7686   40.8486   49.8361 N   0  0  0  0  0  0  0  0  0  0  0  0
    7.7822   42.8681   50.2133 C   0  0  0  0  0  3  0  0  0  0  0  0
    6.8093   43.6881   50.8559 N   0  0  0  0  0  0  0  0  0  0  0  0
    9.1253   43.3951   50.2245 N   0  0  0  0  0  0  0  0  0  0  0  0
    6.9739   44.9749   51.0027 C   0  0  0  0  0  0  0  0  0  0  0  0
    9.3469   44.6534   50.3524 C   0  0  0  0  0  0  0  0  0  0  0  0
    8.1942   45.6026   50.4936 C   0  0  0  0  0  3  0  0  0  0  0  0
   10.5033   45.4955   50.4039 N   0  0  0  0  0  0  0  0  0  0  0  0
    8.8063   46.5454   51.4389 N   0  0  0  0  0  0  0  0  0  0  0  0
   10.1874   46.5978   51.0372 C   0  0  0  0  0  3  0  0  0  0  0  0
    6.0216   45.7689   51.6301 O   0  0  0  0  0  0  0  0  0  0  0  0
    4.7695   45.2143   51.9681 C   0  0  0  0  0  2  0  0  0  0  0  0
    4.1045   46.1270   52.9760 C   0  0  0  0  0  3  0  0  0  0  0  0
    3.9869   45.5012   54.3301 C   0  0  0  0  0  2  0  0  0  0  0  0
    2.7173   46.4359   52.4188 C   0  0  0  0  0  2  0  0  0  0  0  0
    2.6189   44.9021   54.5760 C   0  0  0  0  0  2  0  0  0  0  0  0
    1.8322   47.0210   53.5164 C   0  0  0  0  0  2  0  0  0  0  0  0
    1.5317   45.9391   54.5497 C   0  0  0  0  0  2  0  0  0  0  0  0
  2  1  1  0
  2  6  2  0
  3  8  1  0
  3  4  2  0
  5  3  1  0
  6  4  1  0
  7  5  2  0
  7  2  1  0
  9  8  1  0
 10  9  3  0
 11 12  1  0
 11  1  1  0
 13 11  1  0
 14 20  1  0
 14 12  2  0
 15 13  2  0
 16 15  1  0
 16 14  1  0
 17 15  1  0
 18 16  1  0
 19 17  2  0
 19 18  1  0
 20 21  1  0
 22 21  1  0
 23 22  1  0
 24 22  1  0
 25 23  1  0
 26 24  1  0
 27 25  1  0
 27 26  1  0
M  RAD  8   4   2   5   2   6   2   7   2   8   3  11   2  16   2  19   2
M  RAD  7  21   3  22   2  23   3  24   3  25   3  26   3  27   3
M  END
>  <REMARK>  (1) 
 SMILES N#CCc1ccc(Nc2nc(OCC3CCCCC3)c3[nH]cnc3n2)cc1
 SMILES IDX 8 1 7 3 4 4 5 5 27 6 6 7 26 8 3 9 2 10 1 11 9 12 10 13 25 14
 SMILES IDX 11 15 24 16 20 17 23 18 21 19 22 20 12 22 13 23 14 24 15 25
 SMILES IDX 19 26 16 27 18 28 17 29
 H PARENT 8 2 21 21

>  <TORSDO>  (1) 
F 7

$$$$
