/home/pchatterjee/Documents/git/vs_workflow/DiffDock/diffdock_run/pdbqt_scrubbed/5329573.pdbqt
     RDKit          3D

 27 30  0  0  1  0  0  0  0  0999 V2000
    7.1405   42.8327   48.6843 N   0  0  0  0  0  0  0  0  0  0  0  0
    5.9335   42.1160   48.4325 C   0  0  0  0  0  0  0  0  0  0  0  0
    3.5591   40.7116   47.9483 C   0  0  0  0  0  0  0  0  0  0  0  0
    4.5828   40.7636   47.0273 C   0  0  0  0  0  3  0  0  0  0  0  0
    3.7396   41.3851   49.1421 C   0  0  0  0  0  3  0  0  0  0  0  0
    5.7560   41.4460   47.2431 C   0  0  0  0  0  3  0  0  0  0  0  0
    4.9171   42.0674   49.3531 C   0  0  0  0  0  3  0  0  0  0  0  0
    2.2929   39.9686   47.7023 C   0  0  0  0  0  2  0  0  0  0  0  0
    1.2456   40.9590   47.4655 C   0  0  0  0  0  0  0  0  0  0  0  0
    0.4289   41.7390   47.2869 N   0  0  0  0  0  0  0  0  0  0  0  0
    7.5182   42.9991   50.0754 C   0  0  0  0  0  3  0  0  0  0  0  0
    6.5721   43.7259   50.8555 N   0  0  0  0  0  0  0  0  0  0  0  0
    8.8603   43.5283   50.0983 N   0  0  0  0  0  0  0  0  0  0  0  0
    6.7419   44.9848   51.1569 C   0  0  0  0  0  0  0  0  0  0  0  0
    9.0863   44.7616   50.3749 C   0  0  0  0  0  0  0  0  0  0  0  0
    7.9399   45.6787   50.6817 C   0  0  0  0  0  3  0  0  0  0  0  0
   10.2433   45.5971   50.4851 N   0  0  0  0  0  0  0  0  0  0  0  0
    8.5899   46.4983   51.7127 N   0  0  0  0  0  0  0  0  0  0  0  0
    9.9531   46.6089   51.2648 C   0  0  0  0  0  3  0  0  0  0  0  0
    5.8158   45.6878   51.9178 O   0  0  0  0  0  0  0  0  0  0  0  0
    4.4385   45.5195   51.6641 C   0  0  0  0  0  2  0  0  0  0  0  0
    3.6854   45.7783   52.9513 C   0  0  0  0  0  3  0  0  0  0  0  0
    3.3810   47.2285   53.1590 C   0  0  0  0  0  2  0  0  0  0  0  0
    4.5787   45.2634   54.0769 C   0  0  0  0  0  2  0  0  0  0  0  0
    4.3748   47.9043   54.0791 C   0  0  0  0  0  2  0  0  0  0  0  0
    4.0998   45.8151   55.4174 C   0  0  0  0  0  2  0  0  0  0  0  0
    4.3569   47.3186   55.4629 C   0  0  0  0  0  2  0  0  0  0  0  0
  2  1  1  0
  2  6  2  0
  3  8  1  0
  3  4  2  0
  5  3  1  0
  6  4  1  0
  7  5  2  0
  7  2  1  0
  9  8  1  0
 10  9  3  0
 11 12  1  0
 11  1  1  0
 13 11  1  0
 14 20  1  0
 14 12  2  0
 15 13  2  0
 16 15  1  0
 16 14  1  0
 17 15  1  0
 18 16  1  0
 19 17  2  0
 19 18  1  0
 20 21  1  0
 22 21  1  0
 23 22  1  0
 24 22  1  0
 25 23  1  0
 26 24  1  0
 27 25  1  0
 27 26  1  0
M  RAD  8   4   2   5   2   6   2   7   2   8   3  11   2  16   2  19   2
M  RAD  7  21   3  22   2  23   3  24   3  25   3  26   3  27   3
M  END
>  <REMARK>  (1) 
 SMILES N#CCc1ccc(Nc2nc(OCC3CCCCC3)c3[nH]cnc3n2)cc1
 SMILES IDX 8 1 7 3 4 4 5 5 27 6 6 7 26 8 3 9 2 10 1 11 9 12 10 13 25 14
 SMILES IDX 11 15 24 16 20 17 23 18 21 19 22 20 12 22 13 23 14 24 15 25
 SMILES IDX 19 26 16 27 18 28 17 29
 H PARENT 8 2 21 21

>  <TORSDO>  (1) 
F 7

$$$$
