/home/pchatterjee/Documents/git/vs_workflow/DiffDock/diffdock_run/pdbqt_scrubbed/5329573.pdbqt
     RDKit          3D

 27 30  0  0  1  0  0  0  0  0999 V2000
    7.3334   42.9602   48.6820 N   0  0  0  0  0  0  0  0  0  0  0  0
    6.1142   42.2647   48.4293 C   0  0  0  0  0  0  0  0  0  0  0  0
    3.7166   40.9008   47.9439 C   0  0  0  0  0  0  0  0  0  0  0  0
    4.6763   41.0693   46.9694 C   0  0  0  0  0  3  0  0  0  0  0  0
    3.9746   41.4342   49.1929 C   0  0  0  0  0  3  0  0  0  0  0  0
    5.8595   41.7345   47.1848 C   0  0  0  0  0  3  0  0  0  0  0  0
    5.1617   42.0998   49.4033 C   0  0  0  0  0  3  0  0  0  0  0  0
    2.4388   40.1780   47.6977 C   0  0  0  0  0  2  0  0  0  0  0  0
    1.4080   41.1848   47.4577 C   0  0  0  0  0  0  0  0  0  0  0  0
    0.6068   41.9791   47.2723 N   0  0  0  0  0  0  0  0  0  0  0  0
    7.7851   42.9980   50.0604 C   0  0  0  0  0  3  0  0  0  0  0  0
    6.8684   43.6169   50.9597 N   0  0  0  0  0  0  0  0  0  0  0  0
    9.1141   43.5597   50.0642 N   0  0  0  0  0  0  0  0  0  0  0  0
    7.0266   44.8440   51.3768 C   0  0  0  0  0  0  0  0  0  0  0  0
    9.3276   44.7653   50.4512 C   0  0  0  0  0  0  0  0  0  0  0  0
    8.1800   45.6149   50.9101 C   0  0  0  0  0  3  0  0  0  0  0  0
   10.4699   45.6177   50.5825 N   0  0  0  0  0  0  0  0  0  0  0  0
    8.8686   46.3458   51.9820 N   0  0  0  0  0  0  0  0  0  0  0  0
   10.2016   46.5385   51.4747 C   0  0  0  0  0  3  0  0  0  0  0  0
    6.1294   45.4416   52.2535 O   0  0  0  0  0  0  0  0  0  0  0  0
    4.9527   44.7543   52.6174 C   0  0  0  0  0  2  0  0  0  0  0  0
    3.7778   45.4477   51.9617 C   0  0  0  0  0  3  0  0  0  0  0  0
    3.7101   46.9049   52.2944 C   0  0  0  0  0  2  0  0  0  0  0  0
    2.5269   44.7352   52.4693 C   0  0  0  0  0  2  0  0  0  0  0  0
    2.7380   47.1997   53.4165 C   0  0  0  0  0  2  0  0  0  0  0  0
    1.2904   45.5833   52.1824 C   0  0  0  0  0  2  0  0  0  0  0  0
    1.3258   46.8347   53.0550 C   0  0  0  0  0  2  0  0  0  0  0  0
  2  1  1  0
  2  6  2  0
  3  8  1  0
  3  4  2  0
  5  3  1  0
  6  4  1  0
  7  5  2  0
  7  2  1  0
  9  8  1  0
 10  9  3  0
 11 12  1  0
 11  1  1  0
 13 11  1  0
 14 20  1  0
 14 12  2  0
 15 13  2  0
 16 15  1  0
 16 14  1  0
 17 15  1  0
 18 16  1  0
 19 17  2  0
 19 18  1  0
 20 21  1  0
 22 21  1  0
 23 22  1  0
 24 22  1  0
 25 23  1  0
 26 24  1  0
 27 25  1  0
 27 26  1  0
M  RAD  8   4   2   5   2   6   2   7   2   8   3  11   2  16   2  19   2
M  RAD  7  21   3  22   2  23   3  24   3  25   3  26   3  27   3
M  END
>  <REMARK>  (1) 
 SMILES N#CCc1ccc(Nc2nc(OCC3CCCCC3)c3[nH]cnc3n2)cc1
 SMILES IDX 8 1 7 3 4 4 5 5 27 6 6 7 26 8 3 9 2 10 1 11 9 12 10 13 25 14
 SMILES IDX 11 15 24 16 20 17 23 18 21 19 22 20 12 22 13 23 14 24 15 25
 SMILES IDX 19 26 16 27 18 28 17 29
 H PARENT 8 2 21 21

>  <TORSDO>  (1) 
F 7

$$$$
