/home/pchatterjee/Documents/git/vs_workflow/DiffDock/diffdock_run/pdbqt_scrubbed/5329573.pdbqt
     RDKit          3D

 27 30  0  0  1  0  0  0  0  0999 V2000
    7.2486   42.7863   48.9270 N   0  0  0  0  0  0  0  0  0  0  0  0
    6.0174   42.0989   48.7130 C   0  0  0  0  0  0  0  0  0  0  0  0
    3.6035   40.7455   48.2824 C   0  0  0  0  0  0  0  0  0  0  0  0
    3.8467   41.4666   49.4312 C   0  0  0  0  0  3  0  0  0  0  0  0
    4.6037   40.7074   47.3288 C   0  0  0  0  0  3  0  0  0  0  0  0
    5.0229   42.1382   49.6639 C   0  0  0  0  0  3  0  0  0  0  0  0
    5.7803   41.3822   47.5671 C   0  0  0  0  0  3  0  0  0  0  0  0
    2.3248   40.0222   48.0424 C   0  0  0  0  0  2  0  0  0  0  0  0
    1.2387   40.9120   48.4457 C   0  0  0  0  0  0  0  0  0  0  0  0
    0.3883   41.6043   48.7691 N   0  0  0  0  0  0  0  0  0  0  0  0
    7.6073   43.0607   50.3060 C   0  0  0  0  0  3  0  0  0  0  0  0
    6.6723   43.8818   51.0014 N   0  0  0  0  0  0  0  0  0  0  0  0
    8.9655   43.5475   50.3103 N   0  0  0  0  0  0  0  0  0  0  0  0
    6.8783   45.1562   51.1966 C   0  0  0  0  0  0  0  0  0  0  0  0
    9.2273   44.7925   50.4842 C   0  0  0  0  0  0  0  0  0  0  0  0
    8.1066   45.7683   50.6878 C   0  0  0  0  0  3  0  0  0  0  0  0
   10.4092   45.5976   50.5454 N   0  0  0  0  0  0  0  0  0  0  0  0
    8.7653   46.6534   51.6573 N   0  0  0  0  0  0  0  0  0  0  0  0
   10.1391   46.6819   51.2291 C   0  0  0  0  0  3  0  0  0  0  0  0
    5.9629   45.9512   51.8753 O   0  0  0  0  0  0  0  0  0  0  0  0
    4.6074   45.9362   51.4853 C   0  0  0  0  0  2  0  0  0  0  0  0
    3.8070   45.2669   52.5819 C   0  0  0  0  0  3  0  0  0  0  0  0
    2.3772   45.7072   52.6020 C   0  0  0  0  0  2  0  0  0  0  0  0
    4.4897   45.6414   53.8948 C   0  0  0  0  0  2  0  0  0  0  0  0
    2.1170   46.7883   53.6289 C   0  0  0  0  0  2  0  0  0  0  0  0
    3.5596   45.3475   55.0692 C   0  0  0  0  0  2  0  0  0  0  0  0
    2.3804   46.3153   55.0307 C   0  0  0  0  0  2  0  0  0  0  0  0
  2  1  1  0
  2  6  2  0
  3  8  1  0
  3  4  2  0
  5  3  1  0
  6  4  1  0
  7  5  2  0
  7  2  1  0
  9  8  1  0
 10  9  3  0
 11 12  1  0
 11  1  1  0
 13 11  1  0
 14 20  1  0
 14 12  2  0
 15 13  2  0
 16 15  1  0
 16 14  1  0
 17 15  1  0
 18 16  1  0
 19 17  2  0
 19 18  1  0
 20 21  1  0
 22 21  1  0
 23 22  1  0
 24 22  1  0
 25 23  1  0
 26 24  1  0
 27 25  1  0
 27 26  1  0
M  RAD  8   4   2   5   2   6   2   7   2   8   3  11   2  16   2  19   2
M  RAD  7  21   3  22   2  23   3  24   3  25   3  26   3  27   3
M  END
>  <REMARK>  (1) 
 SMILES N#CCc1ccc(Nc2nc(OCC3CCCCC3)c3[nH]cnc3n2)cc1
 SMILES IDX 8 1 7 3 4 4 5 5 27 6 6 7 26 8 3 9 2 10 1 11 9 12 10 13 25 14
 SMILES IDX 11 15 24 16 20 17 23 18 21 19 22 20 12 22 13 23 14 24 15 25
 SMILES IDX 19 26 16 27 18 28 17 29
 H PARENT 8 2 21 21

>  <TORSDO>  (1) 
F 7

$$$$
