/home/pchatterjee/Documents/git/vs_workflow/DiffDock/diffdock_run/pdbqt_scrubbed/5329573.pdbqt
     RDKit          3D

 27 30  0  0  1  0  0  0  0  0999 V2000
    7.3177   42.8089   48.4977 N   0  0  0  0  0  0  0  0  0  0  0  0
    6.0721   42.1462   48.2894 C   0  0  0  0  0  0  0  0  0  0  0  0
    3.6227   40.8478   47.8910 C   0  0  0  0  0  0  0  0  0  0  0  0
    4.5958   40.8957   46.9166 C   0  0  0  0  0  3  0  0  0  0  0  0
    3.8937   41.4707   49.0951 C   0  0  0  0  0  3  0  0  0  0  0  0
    5.8044   41.5266   47.0896 C   0  0  0  0  0  3  0  0  0  0  0  0
    5.1063   42.1015   49.2632 C   0  0  0  0  0  3  0  0  0  0  0  0
    2.3173   40.1609   47.6909 C   0  0  0  0  0  2  0  0  0  0  0  0
    1.3555   41.1711   47.2572 C   0  0  0  0  0  0  0  0  0  0  0  0
    0.6038   41.9661   46.9252 N   0  0  0  0  0  0  0  0  0  0  0  0
    7.7450   42.9694   49.8750 C   0  0  0  0  0  3  0  0  0  0  0  0
    6.8090   43.6570   50.7015 N   0  0  0  0  0  0  0  0  0  0  0  0
    9.0703   43.5392   49.8526 N   0  0  0  0  0  0  0  0  0  0  0  0
    6.9525   44.9167   51.0132 C   0  0  0  0  0  0  0  0  0  0  0  0
    9.2698   44.7753   50.1370 C   0  0  0  0  0  0  0  0  0  0  0  0
    8.1093   45.6529   50.5011 C   0  0  0  0  0  3  0  0  0  0  0  0
   10.4045   45.6445   50.2132 N   0  0  0  0  0  0  0  0  0  0  0  0
    8.7745   46.4791   51.5169 N   0  0  0  0  0  0  0  0  0  0  0  0
   10.1150   46.6371   51.0175 C   0  0  0  0  0  3  0  0  0  0  0  0
    6.0365   45.5814   51.8194 O   0  0  0  0  0  0  0  0  0  0  0  0
    4.7882   44.9830   52.0903 C   0  0  0  0  0  2  0  0  0  0  0  0
    4.0321   45.8788   53.0479 C   0  0  0  0  0  3  0  0  0  0  0  0
    3.8200   45.2429   54.3856 C   0  0  0  0  0  2  0  0  0  0  0  0
    2.6876   46.1691   52.3860 C   0  0  0  0  0  2  0  0  0  0  0  0
    2.4469   44.6206   54.5215 C   0  0  0  0  0  2  0  0  0  0  0  0
    1.7105   46.7333   53.4144 C   0  0  0  0  0  2  0  0  0  0  0  0
    1.3482   45.6404   54.4158 C   0  0  0  0  0  2  0  0  0  0  0  0
  2  1  1  0
  2  6  2  0
  3  8  1  0
  3  4  2  0
  5  3  1  0
  6  4  1  0
  7  5  2  0
  7  2  1  0
  9  8  1  0
 10  9  3  0
 11 12  1  0
 11  1  1  0
 13 11  1  0
 14 20  1  0
 14 12  2  0
 15 13  2  0
 16 15  1  0
 16 14  1  0
 17 15  1  0
 18 16  1  0
 19 17  2  0
 19 18  1  0
 20 21  1  0
 22 21  1  0
 23 22  1  0
 24 22  1  0
 25 23  1  0
 26 24  1  0
 27 25  1  0
 27 26  1  0
M  RAD  8   4   2   5   2   6   2   7   2   8   3  11   2  16   2  19   2
M  RAD  7  21   3  22   2  23   3  24   3  25   3  26   3  27   3
M  END
>  <REMARK>  (1) 
 SMILES N#CCc1ccc(Nc2nc(OCC3CCCCC3)c3[nH]cnc3n2)cc1
 SMILES IDX 8 1 7 3 4 4 5 5 27 6 6 7 26 8 3 9 2 10 1 11 9 12 10 13 25 14
 SMILES IDX 11 15 24 16 20 17 23 18 21 19 22 20 12 22 13 23 14 24 15 25
 SMILES IDX 19 26 16 27 18 28 17 29
 H PARENT 8 2 21 21

>  <TORSDO>  (1) 
F 7

$$$$
