/home/pchatterjee/Documents/git/vs_workflow/DiffDock/diffdock_run/pdbqt_scrubbed/Z1918494952.pdbqt
     RDKit          3D

 27 30  0  0  1  0  0  0  0  0999 V2000
    8.1414   44.6798   51.2496 N   0  0  0  0  0  0  0  0  0  0  0  0
    9.5126   45.1721   51.2313 C   0  0  0  0  0  2  0  0  0  0  0  0
    9.4428   46.6813   51.2869 C   0  0  0  0  0  2  0  0  0  0  0  0
    8.3794   47.2010   52.2063 C   0  0  0  0  0  3  0  0  0  0  0  0
    7.8101   46.1946   53.1494 C   0  0  0  0  0  2  0  0  0  0  0  0
    7.3888   44.9133   52.4688 C   0  0  0  0  0  2  0  0  0  0  0  0
    7.5521   44.0045   50.1445 C   0  0  0  0  0  0  0  0  0  0  0  0
    5.5613   43.2205   49.1925 C   0  0  0  0  0  0  0  0  0  0  0  0
    6.3287   42.7591   48.1409 C   0  0  0  0  0  3  0  0  0  0  0  0
    6.2034   43.8460   50.1918 N   0  0  0  0  0  0  0  0  0  0  0  0
    7.6978   42.9320   48.1151 C   0  0  0  0  0  3  0  0  0  0  0  0
    8.2955   43.5610   49.1320 N   0  0  0  0  0  0  0  0  0  0  0  0
    4.1744   43.0510   49.2289 O   0  0  0  0  0  0  0  0  0  0  0  0
    3.5729   41.8533   48.8538 C   0  0  0  0  0  0  0  0  0  0  0  0
    2.3688   39.5523   48.0149 C   0  0  0  0  0  3  0  0  0  0  0  0
    2.4416   40.6478   47.1875 C   0  0  0  0  0  3  0  0  0  0  0  0
    2.8955   39.5638   49.2957 C   0  0  0  0  0  3  0  0  0  0  0  0
    3.0376   41.8319   47.5614 C   0  0  0  0  0  3  0  0  0  0  0  0
    3.4984   40.7542   49.6807 C   0  0  0  0  0  3  0  0  0  0  0  0
    8.9210   48.2464   52.9471 O   0  0  0  0  0  0  0  0  0  0  0  0
    9.8422   47.7849   53.8865 C   0  0  0  0  0  2  0  0  0  0  0  0
    9.0901   47.6118   55.1935 C   0  0  0  0  0  3  0  0  0  0  0  0
   10.0978   47.5977   56.3026 C   0  0  0  0  0  2  0  0  0  0  0  0
    8.0621   48.5109   55.3560 O   0  0  0  0  0  0  0  0  0  0  0  0
   10.3744   49.0194   56.7424 C   0  0  0  0  0  2  0  0  0  0  0  0
    8.4581   49.8326   55.4675 C   0  0  0  0  0  2  0  0  0  0  0  0
    9.9571   49.9842   55.6804 C   0  0  0  0  0  2  0  0  0  0  0  0
  1  7  1  0
  2  1  1  0
  3  4  1  0
  3  2  1  0
  4  5  1  0
  4 20  1  0
  5  6  1  0
  6  1  1  0
  7 12  1  0
  7 10  2  0
  8  9  2  0
  8 13  1  0
 10  8  1  0
 11  9  1  0
 12 11  2  0
 13 14  1  0
 14 18  2  0
 15 16  2  0
 17 15  1  0
 18 16  1  0
 19 14  1  0
 19 17  2  0
 21 20  1  0
 22 21  1  0
 22 23  1  0
 22 24  1  0
 23 25  1  0
 24 26  1  0
 25 27  1  0
 26 27  1  0
M  RAD  8   2   3   3   3   4   2   5   3   6   3   9   2  11   2  15   2
M  RAD  8  16   2  17   2  18   2  19   2  21   3  22   2  23   3  25   3
M  RAD  2  26   3  27   3
M  END
>  <REMARK>  (1) 
 SMILES c1ccc(Oc2ccnc(N3CCC(OCC4CCCCO4)CC3)n2)cc1
 SMILES IDX 11 1 12 2 13 3 14 4 23 5 24 6 10 7 6 8 7 9 25 10 8 11 9 12
 SMILES IDX 5 13 4 14 1 15 2 16 27 17 3 18 26 19 15 20 16 21 17 22 18 23
 SMILES IDX 22 24 19 25 21 26 20 27
 H PARENT

>  <TORSDO>  (1) 
F 6

$$$$
