/home/pchatterjee/Documents/git/vs_workflow/DiffDock/diffdock_run/pdbqt_scrubbed/Z1918494952.pdbqt
     RDKit          3D

 27 30  0  0  1  0  0  0  0  0999 V2000
    8.3255   44.4908   51.3175 N   0  0  0  0  0  0  0  0  0  0  0  0
    9.6753   45.0231   51.1862 C   0  0  0  0  0  2  0  0  0  0  0  0
    9.5614   46.5306   51.2045 C   0  0  0  0  0  2  0  0  0  0  0  0
    8.5505   47.0457   52.1838 C   0  0  0  0  0  3  0  0  0  0  0  0
    8.0827   46.0515   53.1934 C   0  0  0  0  0  2  0  0  0  0  0  0
    7.6550   44.7383   52.5811 C   0  0  0  0  0  2  0  0  0  0  0  0
    7.6804   43.7652   50.2773 C   0  0  0  0  0  0  0  0  0  0  0  0
    5.6313   43.0420   49.4043 C   0  0  0  0  0  0  0  0  0  0  0  0
    6.3549   42.4395   48.3938 C   0  0  0  0  0  3  0  0  0  0  0  0
    6.3245   43.7053   50.3432 N   0  0  0  0  0  0  0  0  0  0  0  0
    7.7323   42.5142   48.3481 C   0  0  0  0  0  3  0  0  0  0  0  0
    8.3818   43.1855   49.3044 N   0  0  0  0  0  0  0  0  0  0  0  0
    4.2365   42.9727   49.4604 O   0  0  0  0  0  0  0  0  0  0  0  0
    3.5494   41.7964   49.1754 C   0  0  0  0  0  0  0  0  0  0  0  0
    2.1837   39.5296   48.5088 C   0  0  0  0  0  3  0  0  0  0  0  0
    2.3598   40.5379   47.5910 C   0  0  0  0  0  3  0  0  0  0  0  0
    2.6839   39.6147   49.7974 C   0  0  0  0  0  3  0  0  0  0  0  0
    3.0402   41.7010   47.8759 C   0  0  0  0  0  3  0  0  0  0  0  0
    3.3716   40.7845   50.0930 C   0  0  0  0  0  3  0  0  0  0  0  0
    9.1101   48.1286   52.8539 O   0  0  0  0  0  0  0  0  0  0  0  0
   10.1860   47.7379   53.6500 C   0  0  0  0  0  2  0  0  0  0  0  0
    9.6476   47.5465   55.0561 C   0  0  0  0  0  3  0  0  0  0  0  0
   10.8036   47.6400   56.0052 C   0  0  0  0  0  2  0  0  0  0  0  0
    8.5866   48.3701   55.3522 O   0  0  0  0  0  0  0  0  0  0  0  0
   11.0286   49.0905   56.3747 C   0  0  0  0  0  2  0  0  0  0  0  0
    8.8897   49.7205   55.3812 C   0  0  0  0  0  2  0  0  0  0  0  0
   10.3871   49.9903   55.3688 C   0  0  0  0  0  2  0  0  0  0  0  0
  1  7  1  0
  2  1  1  0
  3  4  1  0
  3  2  1  0
  4  5  1  0
  4 20  1  0
  5  6  1  0
  6  1  1  0
  7 12  1  0
  7 10  2  0
  8  9  2  0
  8 13  1  0
 10  8  1  0
 11  9  1  0
 12 11  2  0
 13 14  1  0
 14 18  2  0
 15 16  2  0
 17 15  1  0
 18 16  1  0
 19 14  1  0
 19 17  2  0
 21 20  1  0
 22 21  1  0
 22 23  1  0
 22 24  1  0
 23 25  1  0
 24 26  1  0
 25 27  1  0
 26 27  1  0
M  RAD  8   2   3   3   3   4   2   5   3   6   3   9   2  11   2  15   2
M  RAD  8  16   2  17   2  18   2  19   2  21   3  22   2  23   3  25   3
M  RAD  2  26   3  27   3
M  END
>  <REMARK>  (1) 
 SMILES c1ccc(Oc2ccnc(N3CCC(OCC4CCCCO4)CC3)n2)cc1
 SMILES IDX 11 1 12 2 13 3 14 4 23 5 24 6 10 7 6 8 7 9 25 10 8 11 9 12
 SMILES IDX 5 13 4 14 1 15 2 16 27 17 3 18 26 19 15 20 16 21 17 22 18 23
 SMILES IDX 22 24 19 25 21 26 20 27
 H PARENT

>  <TORSDO>  (1) 
F 6

$$$$
