/home/pchatterjee/Documents/git/vs_workflow/DiffDock/diffdock_run/pdbqt_scrubbed/Z1918494952.pdbqt
     RDKit          3D

 27 30  0  0  1  0  0  0  0  0999 V2000
    8.3059   44.5181   51.2275 N   0  0  0  0  0  0  0  0  0  0  0  0
    9.6753   44.9935   51.0801 C   0  0  0  0  0  2  0  0  0  0  0  0
    9.6211   46.5043   51.0652 C   0  0  0  0  0  2  0  0  0  0  0  0
    8.6353   47.0806   52.0359 C   0  0  0  0  0  3  0  0  0  0  0  0
    8.1326   46.1284   53.0689 C   0  0  0  0  0  2  0  0  0  0  0  0
    7.6509   44.8200   52.4874 C   0  0  0  0  0  2  0  0  0  0  0  0
    7.6285   43.7958   50.2058 C   0  0  0  0  0  0  0  0  0  0  0  0
    5.5625   43.0015   49.4409 C   0  0  0  0  0  0  0  0  0  0  0  0
    6.2455   42.4683   48.3654 C   0  0  0  0  0  3  0  0  0  0  0  0
    6.2842   43.6673   50.3563 N   0  0  0  0  0  0  0  0  0  0  0  0
    7.6119   42.6119   48.2340 C   0  0  0  0  0  3  0  0  0  0  0  0
    8.2907   43.2830   49.1699 N   0  0  0  0  0  0  0  0  0  0  0  0
    4.1792   42.8622   49.5839 O   0  0  0  0  0  0  0  0  0  0  0  0
    3.5155   41.7031   49.1930 C   0  0  0  0  0  0  0  0  0  0  0  0
    2.1895   39.4813   48.3249 C   0  0  0  0  0  3  0  0  0  0  0  0
    2.2942   40.5935   47.5236 C   0  0  0  0  0  3  0  0  0  0  0  0
    2.7440   39.4358   49.5931 C   0  0  0  0  0  3  0  0  0  0  0  0
    2.9518   41.7394   47.9131 C   0  0  0  0  0  3  0  0  0  0  0  0
    3.4090   40.5874   49.9937 C   0  0  0  0  0  3  0  0  0  0  0  0
    9.2400   48.1551   52.6800 O   0  0  0  0  0  0  0  0  0  0  0  0
   10.2245   47.7300   53.5710 C   0  0  0  0  0  2  0  0  0  0  0  0
    9.5587   47.5845   54.9272 C   0  0  0  0  0  3  0  0  0  0  0  0
   10.6307   47.6503   55.9724 C   0  0  0  0  0  2  0  0  0  0  0  0
    8.5098   48.4535   55.1175 O   0  0  0  0  0  0  0  0  0  0  0  0
   10.8805   49.0973   56.3393 C   0  0  0  0  0  2  0  0  0  0  0  0
    8.8628   49.7915   55.1536 C   0  0  0  0  0  2  0  0  0  0  0  0
   10.3652   50.0031   55.2684 C   0  0  0  0  0  2  0  0  0  0  0  0
  1  7  1  0
  2  1  1  0
  3  4  1  0
  3  2  1  0
  4  5  1  0
  4 20  1  0
  5  6  1  0
  6  1  1  0
  7 12  1  0
  7 10  2  0
  8  9  2  0
  8 13  1  0
 10  8  1  0
 11  9  1  0
 12 11  2  0
 13 14  1  0
 14 18  2  0
 15 16  2  0
 17 15  1  0
 18 16  1  0
 19 14  1  0
 19 17  2  0
 21 20  1  0
 22 21  1  0
 22 23  1  0
 22 24  1  0
 23 25  1  0
 24 26  1  0
 25 27  1  0
 26 27  1  0
M  RAD  8   2   3   3   3   4   2   5   3   6   3   9   2  11   2  15   2
M  RAD  8  16   2  17   2  18   2  19   2  21   3  22   2  23   3  25   3
M  RAD  2  26   3  27   3
M  END
>  <REMARK>  (1) 
 SMILES c1ccc(Oc2ccnc(N3CCC(OCC4CCCCO4)CC3)n2)cc1
 SMILES IDX 11 1 12 2 13 3 14 4 23 5 24 6 10 7 6 8 7 9 25 10 8 11 9 12
 SMILES IDX 5 13 4 14 1 15 2 16 27 17 3 18 26 19 15 20 16 21 17 22 18 23
 SMILES IDX 22 24 19 25 21 26 20 27
 H PARENT

>  <TORSDO>  (1) 
F 6

$$$$
