/home/pchatterjee/Documents/git/vs_workflow/DiffDock/diffdock_run/pdbqt_scrubbed/Z1918494952.pdbqt
     RDKit          3D

 27 30  0  0  1  0  0  0  0  0999 V2000
    8.3454   44.5149   51.3567 N   0  0  0  0  0  0  0  0  0  0  0  0
    9.6585   45.1199   51.1761 C   0  0  0  0  0  2  0  0  0  0  0  0
    9.4573   46.6182   51.1544 C   0  0  0  0  0  2  0  0  0  0  0  0
    8.4416   47.1033   52.1439 C   0  0  0  0  0  3  0  0  0  0  0  0
    8.0565   46.1145   53.1930 C   0  0  0  0  0  2  0  0  0  0  0  0
    7.6918   44.7611   52.6294 C   0  0  0  0  0  2  0  0  0  0  0  0
    7.7194   43.7226   50.3543 C   0  0  0  0  0  0  0  0  0  0  0  0
    5.6977   42.8450   49.5626 C   0  0  0  0  0  0  0  0  0  0  0  0
    6.4294   42.2658   48.5444 C   0  0  0  0  0  3  0  0  0  0  0  0
    6.3729   43.5758   50.4637 N   0  0  0  0  0  0  0  0  0  0  0  0
    7.7969   42.4292   48.4541 C   0  0  0  0  0  3  0  0  0  0  0  0
    8.4285   43.1656   49.3739 N   0  0  0  0  0  0  0  0  0  0  0  0
    4.3128   42.6861   49.6637 O   0  0  0  0  0  0  0  0  0  0  0  0
    3.6812   41.5059   49.2827 C   0  0  0  0  0  0  0  0  0  0  0  0
    2.3963   39.2485   48.4451 C   0  0  0  0  0  3  0  0  0  0  0  0
    2.2690   40.4273   47.7490 C   0  0  0  0  0  3  0  0  0  0  0  0
    3.1717   39.1516   49.5884 C   0  0  0  0  0  3  0  0  0  0  0  0
    2.8954   41.5938   48.1285 C   0  0  0  0  0  3  0  0  0  0  0  0
    3.8069   40.3235   49.9781 C   0  0  0  0  0  3  0  0  0  0  0  0
    8.9527   48.2362   52.7685 O   0  0  0  0  0  0  0  0  0  0  0  0
    9.9404   47.9079   53.6963 C   0  0  0  0  0  2  0  0  0  0  0  0
    9.2411   47.6860   55.0250 C   0  0  0  0  0  3  0  0  0  0  0  0
   10.2952   47.5864   56.0856 C   0  0  0  0  0  2  0  0  0  0  0  0
    8.2475   48.6023   55.2797 O   0  0  0  0  0  0  0  0  0  0  0  0
   10.6317   48.9749   56.5854 C   0  0  0  0  0  2  0  0  0  0  0  0
    8.6862   49.9052   55.4415 C   0  0  0  0  0  2  0  0  0  0  0  0
   10.1967   50.0053   55.5945 C   0  0  0  0  0  2  0  0  0  0  0  0
  1  7  1  0
  2  1  1  0
  3  4  1  0
  3  2  1  0
  4  5  1  0
  4 20  1  0
  5  6  1  0
  6  1  1  0
  7 12  1  0
  7 10  2  0
  8  9  2  0
  8 13  1  0
 10  8  1  0
 11  9  1  0
 12 11  2  0
 13 14  1  0
 14 18  2  0
 15 16  2  0
 17 15  1  0
 18 16  1  0
 19 14  1  0
 19 17  2  0
 21 20  1  0
 22 21  1  0
 22 23  1  0
 22 24  1  0
 23 25  1  0
 24 26  1  0
 25 27  1  0
 26 27  1  0
M  RAD  8   2   3   3   3   4   2   5   3   6   3   9   2  11   2  15   2
M  RAD  8  16   2  17   2  18   2  19   2  21   3  22   2  23   3  25   3
M  RAD  2  26   3  27   3
M  END
>  <REMARK>  (1) 
 SMILES c1ccc(Oc2ccnc(N3CCC(OCC4CCCCO4)CC3)n2)cc1
 SMILES IDX 11 1 12 2 13 3 14 4 23 5 24 6 10 7 6 8 7 9 25 10 8 11 9 12
 SMILES IDX 5 13 4 14 1 15 2 16 27 17 3 18 26 19 15 20 16 21 17 22 18 23
 SMILES IDX 22 24 19 25 21 26 20 27
 H PARENT

>  <TORSDO>  (1) 
F 6

$$$$
