/home/pchatterjee/Documents/git/vs_workflow/DiffDock/diffdock_run/pdbqt_scrubbed/Z1918494952.pdbqt
     RDKit          3D

 27 30  0  0  1  0  0  0  0  0999 V2000
    6.7719   43.8023   49.4814 N   0  0  0  0  0  0  0  0  0  0  0  0
    7.0982   42.7932   48.4823 C   0  0  0  0  0  2  0  0  0  0  0  0
    6.5067   41.4870   48.9615 C   0  0  0  0  0  2  0  0  0  0  0  0
    5.1548   41.6340   49.5916 C   0  0  0  0  0  3  0  0  0  0  0  0
    4.4796   42.9416   49.3449 C   0  0  0  0  0  2  0  0  0  0  0  0
    5.3658   44.1315   49.6296 C   0  0  0  0  0  2  0  0  0  0  0  0
    7.7609   44.4427   50.2791 C   0  0  0  0  0  0  0  0  0  0  0  0
    8.1638   45.9843   51.9953 C   0  0  0  0  0  0  0  0  0  0  0  0
    9.5071   45.7072   51.8327 C   0  0  0  0  0  3  0  0  0  0  0  0
    7.3026   45.3323   51.1982 N   0  0  0  0  0  0  0  0  0  0  0  0
    9.9489   44.7991   50.8919 C   0  0  0  0  0  3  0  0  0  0  0  0
    9.0556   44.1728   50.1194 N   0  0  0  0  0  0  0  0  0  0  0  0
    7.7054   46.9018   52.9447 O   0  0  0  0  0  0  0  0  0  0  0  0
    8.5831   47.6501   53.7235 C   0  0  0  0  0  0  0  0  0  0  0  0
   10.2699   49.2130   55.1934 C   0  0  0  0  0  3  0  0  0  0  0  0
    9.4721   49.7652   54.2194 C   0  0  0  0  0  3  0  0  0  0  0  0
   10.2561   47.8563   55.4713 C   0  0  0  0  0  3  0  0  0  0  0  0
    8.6043   49.0221   53.4502 C   0  0  0  0  0  3  0  0  0  0  0  0
    9.3836   47.0996   54.6999 C   0  0  0  0  0  3  0  0  0  0  0  0
    4.3394   40.6157   49.1087 O   0  0  0  0  0  0  0  0  0  0  0  0
    4.0931   40.7605   47.7440 C   0  0  0  0  0  2  0  0  0  0  0  0
    2.7477   41.4504   47.6095 C   0  0  0  0  0  3  0  0  0  0  0  0
    2.2481   41.2108   46.2171 C   0  0  0  0  0  2  0  0  0  0  0  0
    1.8615   41.1198   48.6080 O   0  0  0  0  0  0  0  0  0  0  0  0
    1.4907   39.9009   46.1781 C   0  0  0  0  0  2  0  0  0  0  0  0
    1.4640   39.7939   48.6167 C   0  0  0  0  0  2  0  0  0  0  0  0
    1.8599   39.0501   47.3498 C   0  0  0  0  0  2  0  0  0  0  0  0
  1  7  1  0
  2  1  1  0
  3  4  1  0
  3  2  1  0
  4  5  1  0
  4 20  1  0
  5  6  1  0
  6  1  1  0
  7 12  1  0
  7 10  2  0
  8  9  2  0
  8 13  1  0
 10  8  1  0
 11  9  1  0
 12 11  2  0
 13 14  1  0
 14 18  2  0
 15 16  2  0
 17 15  1  0
 18 16  1  0
 19 14  1  0
 19 17  2  0
 21 20  1  0
 22 21  1  0
 22 23  1  0
 22 24  1  0
 23 25  1  0
 24 26  1  0
 25 27  1  0
 26 27  1  0
M  RAD  8   2   3   3   3   4   2   5   3   6   3   9   2  11   2  15   2
M  RAD  8  16   2  17   2  18   2  19   2  21   3  22   2  23   3  25   3
M  RAD  2  26   3  27   3
M  END
>  <REMARK>  (1) 
 SMILES c1ccc(Oc2ccnc(N3CCC(OCC4CCCCO4)CC3)n2)cc1
 SMILES IDX 11 1 12 2 13 3 14 4 23 5 24 6 10 7 6 8 7 9 25 10 8 11 9 12
 SMILES IDX 5 13 4 14 1 15 2 16 27 17 3 18 26 19 15 20 16 21 17 22 18 23
 SMILES IDX 22 24 19 25 21 26 20 27
 H PARENT

>  <TORSDO>  (1) 
F 6

$$$$
