/home/pchatterjee/Documents/git/vs_workflow/DiffDock/diffdock_run/pdbqt_scrubbed/Z1918494952.pdbqt
     RDKit          3D

 27 30  0  0  1  0  0  0  0  0999 V2000
    8.3072   44.4726   51.2772 N   0  0  0  0  0  0  0  0  0  0  0  0
    9.6730   44.9512   51.1090 C   0  0  0  0  0  2  0  0  0  0  0  0
    9.6105   46.4607   51.0546 C   0  0  0  0  0  2  0  0  0  0  0  0
    8.6274   47.0573   52.0159 C   0  0  0  0  0  3  0  0  0  0  0  0
    8.1361   46.1299   53.0766 C   0  0  0  0  0  2  0  0  0  0  0  0
    7.6580   44.8041   52.5327 C   0  0  0  0  0  2  0  0  0  0  0  0
    7.6276   43.7201   50.2790 C   0  0  0  0  0  0  0  0  0  0  0  0
    5.5686   42.8575   49.5714 C   0  0  0  0  0  0  0  0  0  0  0  0
    6.2416   42.3333   48.4852 C   0  0  0  0  0  3  0  0  0  0  0  0
    6.2916   43.5538   50.4628 N   0  0  0  0  0  0  0  0  0  0  0  0
    7.5997   42.5155   48.3199 C   0  0  0  0  0  3  0  0  0  0  0  0
    8.2801   43.2160   49.2328 N   0  0  0  0  0  0  0  0  0  0  0  0
    4.1937   42.6792   49.7486 O   0  0  0  0  0  0  0  0  0  0  0  0
    3.5545   41.4996   49.3789 C   0  0  0  0  0  0  0  0  0  0  0  0
    2.2478   39.2448   48.5682 C   0  0  0  0  0  3  0  0  0  0  0  0
    2.0573   40.4393   47.9146 C   0  0  0  0  0  3  0  0  0  0  0  0
    3.0999   39.1302   49.6539 C   0  0  0  0  0  3  0  0  0  0  0  0
    2.6914   41.6052   48.2828 C   0  0  0  0  0  3  0  0  0  0  0  0
    3.7434   40.3015   50.0318 C   0  0  0  0  0  3  0  0  0  0  0  0
    9.2301   48.1515   52.6277 O   0  0  0  0  0  0  0  0  0  0  0  0
   10.1722   47.7538   53.5754 C   0  0  0  0  0  2  0  0  0  0  0  0
    9.4462   47.6552   54.9047 C   0  0  0  0  0  3  0  0  0  0  0  0
   10.4667   47.7873   55.9941 C   0  0  0  0  0  2  0  0  0  0  0  0
    8.3747   48.5114   55.0073 O   0  0  0  0  0  0  0  0  0  0  0  0
   10.6742   49.2536   56.3071 C   0  0  0  0  0  2  0  0  0  0  0  0
    8.7027   49.8562   54.9997 C   0  0  0  0  0  2  0  0  0  0  0  0
   10.1942   50.1015   55.1741 C   0  0  0  0  0  2  0  0  0  0  0  0
  1  7  1  0
  2  1  1  0
  3  4  1  0
  3  2  1  0
  4  5  1  0
  4 20  1  0
  5  6  1  0
  6  1  1  0
  7 12  1  0
  7 10  2  0
  8  9  2  0
  8 13  1  0
 10  8  1  0
 11  9  1  0
 12 11  2  0
 13 14  1  0
 14 18  2  0
 15 16  2  0
 17 15  1  0
 18 16  1  0
 19 14  1  0
 19 17  2  0
 21 20  1  0
 22 21  1  0
 22 23  1  0
 22 24  1  0
 23 25  1  0
 24 26  1  0
 25 27  1  0
 26 27  1  0
M  RAD  8   2   3   3   3   4   2   5   3   6   3   9   2  11   2  15   2
M  RAD  8  16   2  17   2  18   2  19   2  21   3  22   2  23   3  25   3
M  RAD  2  26   3  27   3
M  END
>  <REMARK>  (1) 
 SMILES c1ccc(Oc2ccnc(N3CCC(OCC4CCCCO4)CC3)n2)cc1
 SMILES IDX 11 1 12 2 13 3 14 4 23 5 24 6 10 7 6 8 7 9 25 10 8 11 9 12
 SMILES IDX 5 13 4 14 1 15 2 16 27 17 3 18 26 19 15 20 16 21 17 22 18 23
 SMILES IDX 22 24 19 25 21 26 20 27
 H PARENT

>  <TORSDO>  (1) 
F 6

$$$$
