/home/pchatterjee/Documents/git/vs_workflow/DiffDock/diffdock_run/pdbqt_scrubbed/Z1918494952.pdbqt
     RDKit          3D

 27 30  0  0  1  0  0  0  0  0999 V2000
    8.1558   44.5321   51.3968 N   0  0  0  0  0  0  0  0  0  0  0  0
    9.5264   45.0240   51.3470 C   0  0  0  0  0  2  0  0  0  0  0  0
    9.4543   46.5331   51.2902 C   0  0  0  0  0  2  0  0  0  0  0  0
    8.3868   47.1178   52.1649 C   0  0  0  0  0  3  0  0  0  0  0  0
    7.8154   46.1830   53.1779 C   0  0  0  0  0  2  0  0  0  0  0  0
    7.3984   44.8542   52.5927 C   0  0  0  0  0  2  0  0  0  0  0  0
    7.5715   43.7759   50.3427 C   0  0  0  0  0  0  0  0  0  0  0  0
    5.5866   42.9113   49.4500 C   0  0  0  0  0  0  0  0  0  0  0  0
    6.3573   42.3825   48.4332 C   0  0  0  0  0  3  0  0  0  0  0  0
    6.2240   43.6108   50.4020 N   0  0  0  0  0  0  0  0  0  0  0  0
    7.7250   42.5635   48.3942 C   0  0  0  0  0  3  0  0  0  0  0  0
    8.3181   43.2674   49.3637 N   0  0  0  0  0  0  0  0  0  0  0  0
    4.2011   42.7342   49.4993 O   0  0  0  0  0  0  0  0  0  0  0  0
    3.6087   41.5078   49.2127 C   0  0  0  0  0  0  0  0  0  0  0  0
    2.4567   39.0749   48.7633 C   0  0  0  0  0  3  0  0  0  0  0  0
    2.8596   39.4376   50.0267 C   0  0  0  0  0  3  0  0  0  0  0  0
    2.6138   39.9149   47.6735 C   0  0  0  0  0  3  0  0  0  0  0  0
    3.4456   40.6520   50.3074 C   0  0  0  0  0  3  0  0  0  0  0  0
    3.2040   41.1418   47.9479 C   0  0  0  0  0  3  0  0  0  0  0  0
    8.9242   48.2160   52.8280 O   0  0  0  0  0  0  0  0  0  0  0  0
    9.8719   47.8293   53.7748 C   0  0  0  0  0  2  0  0  0  0  0  0
    9.1586   47.7683   55.1132 C   0  0  0  0  0  3  0  0  0  0  0  0
   10.2029   47.7574   56.1880 C   0  0  0  0  0  2  0  0  0  0  0  0
    8.1868   48.7306   55.2593 O   0  0  0  0  0  0  0  0  0  0  0  0
   10.5711   49.1829   56.5393 C   0  0  0  0  0  2  0  0  0  0  0  0
    8.6571   50.0323   55.2846 C   0  0  0  0  0  2  0  0  0  0  0  0
   10.1687   50.1113   55.4398 C   0  0  0  0  0  2  0  0  0  0  0  0
  1  7  1  0
  2  1  1  0
  3  4  1  0
  3  2  1  0
  4  5  1  0
  4 20  1  0
  5  6  1  0
  6  1  1  0
  7 12  1  0
  7 10  2  0
  8  9  2  0
  8 13  1  0
 10  8  1  0
 11  9  1  0
 12 11  2  0
 13 14  1  0
 14 18  2  0
 15 16  2  0
 17 15  1  0
 18 16  1  0
 19 14  1  0
 19 17  2  0
 21 20  1  0
 22 21  1  0
 22 23  1  0
 22 24  1  0
 23 25  1  0
 24 26  1  0
 25 27  1  0
 26 27  1  0
M  RAD  8   2   3   3   3   4   2   5   3   6   3   9   2  11   2  15   2
M  RAD  8  16   2  17   2  18   2  19   2  21   3  22   2  23   3  25   3
M  RAD  2  26   3  27   3
M  END
>  <REMARK>  (1) 
 SMILES c1ccc(Oc2ccnc(N3CCC(OCC4CCCCO4)CC3)n2)cc1
 SMILES IDX 11 1 12 2 13 3 14 4 23 5 24 6 10 7 6 8 7 9 25 10 8 11 9 12
 SMILES IDX 5 13 4 14 1 15 2 16 27 17 3 18 26 19 15 20 16 21 17 22 18 23
 SMILES IDX 22 24 19 25 21 26 20 27
 H PARENT

>  <TORSDO>  (1) 
F 6

$$$$
