/home/pchatterjee/Documents/git/vs_workflow/DiffDock/diffdock_run/pdbqt_scrubbed/Z1918494952.pdbqt
     RDKit          3D

 27 30  0  0  1  0  0  0  0  0999 V2000
    8.2659   44.4273   51.3404 N   0  0  0  0  0  0  0  0  0  0  0  0
    9.6077   44.9665   51.1630 C   0  0  0  0  0  2  0  0  0  0  0  0
    9.4833   46.4732   51.1580 C   0  0  0  0  0  2  0  0  0  0  0  0
    8.4955   46.9987   52.1552 C   0  0  0  0  0  3  0  0  0  0  0  0
    8.0626   46.0194   53.1945 C   0  0  0  0  0  2  0  0  0  0  0  0
    7.6281   44.6926   52.6173 C   0  0  0  0  0  2  0  0  0  0  0  0
    7.5982   43.6789   50.3311 C   0  0  0  0  0  0  0  0  0  0  0  0
    5.5342   42.9023   49.5429 C   0  0  0  0  0  0  0  0  0  0  0  0
    6.2322   42.3084   48.5096 C   0  0  0  0  0  3  0  0  0  0  0  0
    6.2476   43.5888   50.4496 N   0  0  0  0  0  0  0  0  0  0  0  0
    7.6048   42.4139   48.4103 C   0  0  0  0  0  3  0  0  0  0  0  0
    8.2748   43.1075   49.3360 N   0  0  0  0  0  0  0  0  0  0  0  0
    4.1446   42.8019   49.6532 O   0  0  0  0  0  0  0  0  0  0  0  0
    3.4697   41.6214   49.3570 C   0  0  0  0  0  0  0  0  0  0  0  0
    2.1101   39.3549   48.6768 C   0  0  0  0  0  3  0  0  0  0  0  0
    2.1041   40.4519   47.8481 C   0  0  0  0  0  3  0  0  0  0  0  0
    2.7967   39.3476   49.8795 C   0  0  0  0  0  3  0  0  0  0  0  0
    2.7730   41.6190   48.1439 C   0  0  0  0  0  3  0  0  0  0  0  0
    3.4740   40.5208   50.1854 C   0  0  0  0  0  3  0  0  0  0  0  0
    9.0651   48.0971   52.7907 O   0  0  0  0  0  0  0  0  0  0  0  0
   10.0430   47.7093   53.7058 C   0  0  0  0  0  2  0  0  0  0  0  0
    9.3729   47.6439   55.0661 C   0  0  0  0  0  3  0  0  0  0  0  0
   10.4383   47.7987   56.1086 C   0  0  0  0  0  2  0  0  0  0  0  0
    8.3083   48.5054   55.1932 O   0  0  0  0  0  0  0  0  0  0  0  0
   10.6615   49.2713   56.3780 C   0  0  0  0  0  2  0  0  0  0  0  0
    8.6383   49.8487   55.1402 C   0  0  0  0  0  2  0  0  0  0  0  0
   10.1362   50.0938   55.2464 C   0  0  0  0  0  2  0  0  0  0  0  0
  1  7  1  0
  2  1  1  0
  3  4  1  0
  3  2  1  0
  4  5  1  0
  4 20  1  0
  5  6  1  0
  6  1  1  0
  7 12  1  0
  7 10  2  0
  8  9  2  0
  8 13  1  0
 10  8  1  0
 11  9  1  0
 12 11  2  0
 13 14  1  0
 14 18  2  0
 15 16  2  0
 17 15  1  0
 18 16  1  0
 19 14  1  0
 19 17  2  0
 21 20  1  0
 22 21  1  0
 22 23  1  0
 22 24  1  0
 23 25  1  0
 24 26  1  0
 25 27  1  0
 26 27  1  0
M  RAD  8   2   3   3   3   4   2   5   3   6   3   9   2  11   2  15   2
M  RAD  8  16   2  17   2  18   2  19   2  21   3  22   2  23   3  25   3
M  RAD  2  26   3  27   3
M  END
>  <REMARK>  (1) 
 SMILES c1ccc(Oc2ccnc(N3CCC(OCC4CCCCO4)CC3)n2)cc1
 SMILES IDX 11 1 12 2 13 3 14 4 23 5 24 6 10 7 6 8 7 9 25 10 8 11 9 12
 SMILES IDX 5 13 4 14 1 15 2 16 27 17 3 18 26 19 15 20 16 21 17 22 18 23
 SMILES IDX 22 24 19 25 21 26 20 27
 H PARENT

>  <TORSDO>  (1) 
F 6

$$$$
