/home/pchatterjee/Documents/git/vs_workflow/DiffDock/diffdock_run/pdbqt_scrubbed/Z1918494952.pdbqt
     RDKit          3D

 27 30  0  0  1  0  0  0  0  0999 V2000
    8.1887   45.4178   50.4537 N   0  0  0  0  0  0  0  0  0  0  0  0
    7.4385   46.5317   51.0187 C   0  0  0  0  0  2  0  0  0  0  0  0
    7.5312   46.4114   52.5229 C   0  0  0  0  0  2  0  0  0  0  0  0
    8.8812   45.9792   53.0099 C   0  0  0  0  0  3  0  0  0  0  0  0
    9.9768   46.0679   52.0009 C   0  0  0  0  0  2  0  0  0  0  0  0
    9.6227   45.4255   50.6802 C   0  0  0  0  0  2  0  0  0  0  0  0
    7.5705   44.3693   49.7169 C   0  0  0  0  0  0  0  0  0  0  0  0
    5.5713   43.2336   49.2719 C   0  0  0  0  0  0  0  0  0  0  0  0
    6.2963   42.4440   48.4010 C   0  0  0  0  0  3  0  0  0  0  0  0
    6.2384   44.1989   49.9241 N   0  0  0  0  0  0  0  0  0  0  0  0
    7.6492   42.6361   48.2070 C   0  0  0  0  0  3  0  0  0  0  0  0
    8.2730   43.6097   48.8779 N   0  0  0  0  0  0  0  0  0  0  0  0
    4.2012   43.0478   49.4759 O   0  0  0  0  0  0  0  0  0  0  0  0
    3.5386   41.9151   49.0124 C   0  0  0  0  0  0  0  0  0  0  0  0
    2.2424   39.6509   48.2115 C   0  0  0  0  0  3  0  0  0  0  0  0
    2.6199   39.8164   49.5231 C   0  0  0  0  0  3  0  0  0  0  0  0
    2.4981   40.6117   47.2476 C   0  0  0  0  0  3  0  0  0  0  0  0
    3.2757   40.9385   49.9790 C   0  0  0  0  0  3  0  0  0  0  0  0
    3.1592   41.7467   47.6990 C   0  0  0  0  0  3  0  0  0  0  0  0
    9.2200   46.7695   54.1033 O   0  0  0  0  0  0  0  0  0  0  0  0
    8.6962   48.0564   53.9870 C   0  0  0  0  0  2  0  0  0  0  0  0
    9.8616   49.0202   54.1170 C   0  0  0  0  0  3  0  0  0  0  0  0
    9.4442   50.1198   55.0457 C   0  0  0  0  0  2  0  0  0  0  0  0
   11.0468   48.4040   54.4443 O   0  0  0  0  0  0  0  0  0  0  0  0
    9.7327   49.7037   56.4721 C   0  0  0  0  0  2  0  0  0  0  0  0
   11.0686   47.8136   55.6961 C   0  0  0  0  0  2  0  0  0  0  0  0
    9.8849   48.2198   56.5616 C   0  0  0  0  0  2  0  0  0  0  0  0
  1  7  1  0
  2  1  1  0
  3  4  1  0
  3  2  1  0
  4  5  1  0
  4 20  1  0
  5  6  1  0
  6  1  1  0
  7 12  1  0
  7 10  2  0
  8  9  2  0
  8 13  1  0
 10  8  1  0
 11  9  1  0
 12 11  2  0
 13 14  1  0
 14 18  2  0
 15 16  2  0
 17 15  1  0
 18 16  1  0
 19 14  1  0
 19 17  2  0
 21 20  1  0
 22 21  1  0
 22 23  1  0
 22 24  1  0
 23 25  1  0
 24 26  1  0
 25 27  1  0
 26 27  1  0
M  RAD  8   2   3   3   3   4   2   5   3   6   3   9   2  11   2  15   2
M  RAD  8  16   2  17   2  18   2  19   2  21   3  22   2  23   3  25   3
M  RAD  2  26   3  27   3
M  END
>  <REMARK>  (1) 
 SMILES c1ccc(Oc2ccnc(N3CCC(OCC4CCCCO4)CC3)n2)cc1
 SMILES IDX 11 1 12 2 13 3 14 4 23 5 24 6 10 7 6 8 7 9 25 10 8 11 9 12
 SMILES IDX 5 13 4 14 1 15 2 16 27 17 3 18 26 19 15 20 16 21 17 22 18 23
 SMILES IDX 22 24 19 25 21 26 20 27
 H PARENT

>  <TORSDO>  (1) 
F 6

$$$$
