/home/pchatterjee/Documents/git/vs_workflow/DiffDock/diffdock_run/pdbqt_scrubbed/Z1918494952.pdbqt
     RDKit          3D

 27 30  0  0  1  0  0  0  0  0999 V2000
    8.2756   45.2980   50.1955 N   0  0  0  0  0  0  0  0  0  0  0  0
    7.5781   46.5769   50.1656 C   0  0  0  0  0  2  0  0  0  0  0  0
    7.3745   47.0047   51.6013 C   0  0  0  0  0  2  0  0  0  0  0  0
    8.5463   46.7114   52.4885 C   0  0  0  0  0  3  0  0  0  0  0  0
    9.8125   46.3740   51.7748 C   0  0  0  0  0  2  0  0  0  0  0  0
    9.6323   45.3156   50.7119 C   0  0  0  0  0  2  0  0  0  0  0  0
    7.6791   44.0862   49.7481 C   0  0  0  0  0  0  0  0  0  0  0  0
    5.6906   42.8653   49.5489 C   0  0  0  0  0  0  0  0  0  0  0  0
    6.4437   41.8705   48.9565 C   0  0  0  0  0  3  0  0  0  0  0  0
    6.3385   43.9742   49.9397 N   0  0  0  0  0  0  0  0  0  0  0  0
    7.8047   42.0072   48.7725 C   0  0  0  0  0  3  0  0  0  0  0  0
    8.4087   43.1290   49.1772 N   0  0  0  0  0  0  0  0  0  0  0  0
    4.3120   42.7375   49.7402 O   0  0  0  0  0  0  0  0  0  0  0  0
    3.6348   41.5629   49.4263 C   0  0  0  0  0  0  0  0  0  0  0  0
    2.3064   39.2324   48.9242 C   0  0  0  0  0  3  0  0  0  0  0  0
    2.6559   39.5779   50.2082 C   0  0  0  0  0  3  0  0  0  0  0  0
    2.6074   40.0390   47.8395 C   0  0  0  0  0  3  0  0  0  0  0  0
    3.3262   40.7411   50.5158 C   0  0  0  0  0  3  0  0  0  0  0  0
    3.2833   41.2141   48.1410 C   0  0  0  0  0  3  0  0  0  0  0  0
    8.7721   47.8259   53.2896 O   0  0  0  0  0  0  0  0  0  0  0  0
    9.7467   47.5742   54.2543 C   0  0  0  0  0  2  0  0  0  0  0  0
    9.0797   47.7371   55.6080 C   0  0  0  0  0  3  0  0  0  0  0  0
   10.1586   47.7801   56.6472 C   0  0  0  0  0  2  0  0  0  0  0  0
    8.1873   48.7826   55.6555 O   0  0  0  0  0  0  0  0  0  0  0  0
   10.6431   49.2055   56.8036 C   0  0  0  0  0  2  0  0  0  0  0  0
    8.7528   50.0367   55.5018 C   0  0  0  0  0  2  0  0  0  0  0  0
   10.2707   50.0171   55.6055 C   0  0  0  0  0  2  0  0  0  0  0  0
  1  7  1  0
  2  1  1  0
  3  4  1  0
  3  2  1  0
  4  5  1  0
  4 20  1  0
  5  6  1  0
  6  1  1  0
  7 12  1  0
  7 10  2  0
  8  9  2  0
  8 13  1  0
 10  8  1  0
 11  9  1  0
 12 11  2  0
 13 14  1  0
 14 18  2  0
 15 16  2  0
 17 15  1  0
 18 16  1  0
 19 14  1  0
 19 17  2  0
 21 20  1  0
 22 21  1  0
 22 23  1  0
 22 24  1  0
 23 25  1  0
 24 26  1  0
 25 27  1  0
 26 27  1  0
M  RAD  8   2   3   3   3   4   2   5   3   6   3   9   2  11   2  15   2
M  RAD  8  16   2  17   2  18   2  19   2  21   3  22   2  23   3  25   3
M  RAD  2  26   3  27   3
M  END
>  <REMARK>  (1) 
 SMILES c1ccc(Oc2ccnc(N3CCC(OCC4CCCCO4)CC3)n2)cc1
 SMILES IDX 11 1 12 2 13 3 14 4 23 5 24 6 10 7 6 8 7 9 25 10 8 11 9 12
 SMILES IDX 5 13 4 14 1 15 2 16 27 17 3 18 26 19 15 20 16 21 17 22 18 23
 SMILES IDX 22 24 19 25 21 26 20 27
 H PARENT

>  <TORSDO>  (1) 
F 6

$$$$
