/home/pchatterjee/Documents/git/vs_workflow/DiffDock/diffdock_run/pdbqt_scrubbed/5329565.pdbqt
     RDKit          3D

 27 30  0  0  1  0  0  0  0  0999 V2000
    7.8707   43.6980   49.4823 C   0  0  0  0  0  0  0  0  0  0  0  0
    6.7986   44.4180   50.0629 N   0  0  0  0  0  0  0  0  0  0  0  0
    7.0407   45.4972   50.7657 C   0  0  0  0  0  0  0  0  0  0  0  0
    8.3627   45.9489   50.9410 C   0  0  0  0  0  3  0  0  0  0  0  0
    8.8359   46.7086   52.0060 N   0  0  0  0  0  0  0  0  0  0  0  0
   10.2432   46.9225   51.5668 C   0  0  0  0  0  2  0  0  0  0  0  0
   10.5414   45.7464   50.7307 N   0  0  0  0  0  0  0  0  0  0  0  0
    9.4444   45.1631   50.3567 C   0  0  0  0  0  0  0  0  0  0  0  0
    9.1123   44.0122   49.5918 N   0  0  0  0  0  0  0  0  0  0  0  0
    7.5573   42.5422   48.7216 N   0  0  0  0  0  0  0  0  0  0  0  0
    6.2528   41.9298   48.7837 C   0  0  0  0  0  0  0  0  0  0  0  0
    3.7305   40.7906   48.9524 C   0  0  0  0  0  0  0  0  0  0  0  0
    4.0812   41.7963   49.8461 C   0  0  0  0  0  3  0  0  0  0  0  0
    4.6142   40.3416   47.9754 C   0  0  0  0  0  3  0  0  0  0  0  0
    5.3554   42.3674   49.7560 C   0  0  0  0  0  3  0  0  0  0  0  0
    5.8818   40.9275   47.9050 C   0  0  0  0  0  3  0  0  0  0  0  0
    2.0999   40.1159   49.1283 S   0  0  0  0  0  0  0  0  0  0  0  0
    0.8707   41.4174   49.3575 C   0  0  0  0  0  1  0  0  0  0  0  0
    1.7180   39.3159   47.8700 O   0  0  0  0  0  0  0  0  0  0  0  0
    5.9518   46.1547   51.3144 O   0  0  0  0  0  0  0  0  0  0  0  0
    4.7262   45.4570   51.5625 C   0  0  0  0  0  2  0  0  0  0  0  0
    3.9591   46.0358   52.7185 C   0  0  0  0  0  3  0  0  0  0  0  0
    4.0630   45.0331   53.8563 C   0  0  0  0  0  2  0  0  0  0  0  0
    2.5158   46.1731   52.2649 C   0  0  0  0  0  2  0  0  0  0  0  0
    3.2569   45.4629   55.0619 C   0  0  0  0  0  2  0  0  0  0  0  0
    1.5613   45.4943   53.2544 C   0  0  0  0  0  2  0  0  0  0  0  0
    1.9159   46.0134   54.6217 C   0  0  0  0  0  2  0  0  0  0  0  0
  1  9  2  0
  1 10  1  0
  2  1  1  0
  3  2  2  0
  4  3  1  0
  4  8  1  0
  5  4  1  0
  5  6  1  0
  6  7  1  0
  8  7  2  0
  8  9  1  0
 11 10  1  0
 11 16  2  0
 12 14  2  0
 13 15  2  0
 13 12  1  0
 14 16  1  0
 15 11  1  0
 17 12  1  0
 17 18  1  6
 19 17  2  0
 20  3  1  0
 21 20  1  0
 22 21  1  0
 23 22  1  0
 24 22  1  0
 25 23  1  0
 26 24  1  0
 27 26  1  0
 27 25  1  0
M  RAD  8   4   2   6   3  13   2  14   2  15   2  16   2  18   2  21   3
M  RAD  6  22   2  23   3  24   3  25   3  26   3  27   3
M  END
>  <REMARK>  (1) 
 SMILES CS(=O)c1ccc(Nc2nc(OCC3CCCCC3)c3[nH]cnc3n2)cc1
 SMILES IDX 9 1 10 2 11 3 20 4 21 5 22 6 23 7 24 8 25 9 8 11 7 13 4 14
 SMILES IDX 5 15 27 16 6 17 26 18 2 19 1 20 3 21 12 22 13 23 14 24 15 25
 SMILES IDX 19 26 16 27 18 28 17 29
 H PARENT 21 10 8 12

>  <TORSDO>  (1) 
F 6

$$$$
