/home/pchatterjee/Documents/git/vs_workflow/DiffDock/diffdock_run/pdbqt_scrubbed/5329565.pdbqt
     RDKit          3D

 27 30  0  0  1  0  0  0  0  0999 V2000
    7.8994   43.6977   49.4445 C   0  0  0  0  0  0  0  0  0  0  0  0
    6.8520   44.3901   50.0990 N   0  0  0  0  0  0  0  0  0  0  0  0
    7.1210   45.4476   50.8247 C   0  0  0  0  0  0  0  0  0  0  0  0
    8.4471   45.9034   50.9516 C   0  0  0  0  0  3  0  0  0  0  0  0
    8.9662   46.6315   52.0172 N   0  0  0  0  0  0  0  0  0  0  0  0
   10.3495   46.8704   51.5187 C   0  0  0  0  0  2  0  0  0  0  0  0
   10.6144   45.7245   50.6310 N   0  0  0  0  0  0  0  0  0  0  0  0
    9.5043   45.1454   50.2907 C   0  0  0  0  0  0  0  0  0  0  0  0
    9.1429   44.0176   49.5050 N   0  0  0  0  0  0  0  0  0  0  0  0
    7.5569   42.5650   48.6619 N   0  0  0  0  0  0  0  0  0  0  0  0
    6.2546   41.9516   48.7532 C   0  0  0  0  0  0  0  0  0  0  0  0
    3.7412   40.8035   48.9836 C   0  0  0  0  0  0  0  0  0  0  0  0
    4.1796   41.6791   49.9707 C   0  0  0  0  0  3  0  0  0  0  0  0
    4.5328   40.4892   47.8828 C   0  0  0  0  0  3  0  0  0  0  0  0
    5.4488   42.2552   49.8490 C   0  0  0  0  0  3  0  0  0  0  0  0
    5.7973   41.0775   47.7831 C   0  0  0  0  0  3  0  0  0  0  0  0
    2.1229   40.1136   49.2068 S   0  0  0  0  0  0  0  0  0  0  0  0
    1.2017   40.0813   47.6552 C   0  0  0  0  0  1  0  0  0  0  0  0
    2.2290   38.6693   49.7283 O   0  0  0  0  0  0  0  0  0  0  0  0
    6.0557   46.0785   51.4461 O   0  0  0  0  0  0  0  0  0  0  0  0
    4.7782   45.4377   51.5353 C   0  0  0  0  0  2  0  0  0  0  0  0
    3.9582   45.9482   52.6872 C   0  0  0  0  0  3  0  0  0  0  0  0
    4.2911   45.0700   53.8824 C   0  0  0  0  0  2  0  0  0  0  0  0
    2.4995   45.7806   52.2978 C   0  0  0  0  0  2  0  0  0  0  0  0
    3.4627   45.4310   55.0954 C   0  0  0  0  0  2  0  0  0  0  0  0
    1.7271   45.0118   53.3764 C   0  0  0  0  0  2  0  0  0  0  0  0
    2.0267   45.6882   54.6869 C   0  0  0  0  0  2  0  0  0  0  0  0
  1  9  2  0
  1 10  1  0
  2  1  1  0
  3  2  2  0
  4  3  1  0
  4  8  1  0
  5  4  1  0
  5  6  1  0
  6  7  1  0
  8  7  2  0
  8  9  1  0
 11 10  1  0
 11 16  2  0
 12 14  2  0
 13 15  2  0
 13 12  1  0
 14 16  1  0
 15 11  1  0
 17 12  1  0
 17 18  1  6
 19 17  2  0
 20  3  1  0
 21 20  1  0
 22 21  1  0
 23 22  1  0
 24 22  1  0
 25 23  1  0
 26 24  1  0
 27 26  1  0
 27 25  1  0
M  RAD  8   4   2   6   3  13   2  14   2  15   2  16   2  18   2  21   3
M  RAD  6  22   2  23   3  24   3  25   3  26   3  27   3
M  END
>  <REMARK>  (1) 
 SMILES CS(=O)c1ccc(Nc2nc(OCC3CCCCC3)c3[nH]cnc3n2)cc1
 SMILES IDX 9 1 10 2 11 3 20 4 21 5 22 6 23 7 24 8 25 9 8 11 7 13 4 14
 SMILES IDX 5 15 27 16 6 17 26 18 2 19 1 20 3 21 12 22 13 23 14 24 15 25
 SMILES IDX 19 26 16 27 18 28 17 29
 H PARENT 21 10 8 12

>  <TORSDO>  (1) 
F 6

$$$$
