/home/pchatterjee/Documents/git/vs_workflow/DiffDock/diffdock_run/pdbqt_scrubbed/5329565.pdbqt
     RDKit          3D

 27 30  0  0  1  0  0  0  0  0999 V2000
    7.7573   43.6547   49.5319 C   0  0  0  0  0  0  0  0  0  0  0  0
    6.7330   44.2978   50.2681 N   0  0  0  0  0  0  0  0  0  0  0  0
    7.0315   45.2801   51.0825 C   0  0  0  0  0  0  0  0  0  0  0  0
    8.3665   45.7044   51.2242 C   0  0  0  0  0  3  0  0  0  0  0  0
    8.9164   46.3241   52.3417 N   0  0  0  0  0  0  0  0  0  0  0  0
   10.2936   46.5894   51.8398 C   0  0  0  0  0  2  0  0  0  0  0  0
   10.5245   45.5268   50.8453 N   0  0  0  0  0  0  0  0  0  0  0  0
    9.3996   44.9965   50.4755 C   0  0  0  0  0  0  0  0  0  0  0  0
    9.0064   43.9510   49.5967 N   0  0  0  0  0  0  0  0  0  0  0  0
    7.3831   42.6037   48.6554 N   0  0  0  0  0  0  0  0  0  0  0  0
    6.1245   41.9141   48.7996 C   0  0  0  0  0  0  0  0  0  0  0  0
    3.7140   40.5614   49.0197 C   0  0  0  0  0  0  0  0  0  0  0  0
    4.4878   40.3864   47.8778 C   0  0  0  0  0  3  0  0  0  0  0  0
    4.1196   41.3987   50.0548 C   0  0  0  0  0  3  0  0  0  0  0  0
    5.7031   41.0717   47.7725 C   0  0  0  0  0  3  0  0  0  0  0  0
    5.3379   42.0728   49.9267 C   0  0  0  0  0  3  0  0  0  0  0  0
    2.1878   39.6605   49.0809 S   0  0  0  0  0  0  0  0  0  0  0  0
    1.4645   39.4791   47.4373 C   0  0  0  0  0  1  0  0  0  0  0  0
    2.4254   38.2524   49.6552 O   0  0  0  0  0  0  0  0  0  0  0  0
    5.9877   45.8652   51.7805 O   0  0  0  0  0  0  0  0  0  0  0  0
    4.6633   45.3263   51.7016 C   0  0  0  0  0  2  0  0  0  0  0  0
    3.7915   45.7747   52.8412 C   0  0  0  0  0  3  0  0  0  0  0  0
    4.3531   47.1024   53.3236 C   0  0  0  0  0  2  0  0  0  0  0  0
    3.9135   44.7222   53.9297 C   0  0  0  0  0  2  0  0  0  0  0  0
    3.6079   47.6240   54.5322 C   0  0  0  0  0  2  0  0  0  0  0  0
    4.2936   45.3598   55.2714 C   0  0  0  0  0  2  0  0  0  0  0  0
    3.3293   46.4923   55.5000 C   0  0  0  0  0  2  0  0  0  0  0  0
  1  9  2  0
  1 10  1  0
  2  1  1  0
  3  2  2  0
  4  3  1  0
  4  8  1  0
  5  4  1  0
  5  6  1  0
  6  7  1  0
  8  7  2  0
  8  9  1  0
 11 10  1  0
 11 16  2  0
 12 14  2  0
 13 15  2  0
 13 12  1  0
 14 16  1  0
 15 11  1  0
 17 12  1  0
 17 18  1  6
 19 17  2  0
 20  3  1  0
 21 20  1  0
 22 21  1  0
 23 22  1  0
 24 22  1  0
 25 23  1  0
 26 24  1  0
 27 26  1  0
 27 25  1  0
M  RAD  8   4   2   6   3  13   2  14   2  15   2  16   2  18   2  21   3
M  RAD  6  22   2  23   3  24   3  25   3  26   3  27   3
M  END
>  <REMARK>  (1) 
 SMILES CS(=O)c1ccc(Nc2nc(OCC3CCCCC3)c3[nH]cnc3n2)cc1
 SMILES IDX 9 1 10 2 11 3 20 4 21 5 22 6 23 7 24 8 25 9 8 11 7 13 4 14
 SMILES IDX 5 15 27 16 6 17 26 18 2 19 1 20 3 21 12 22 13 23 14 24 15 25
 SMILES IDX 19 26 16 27 18 28 17 29
 H PARENT 21 10 8 12

>  <TORSDO>  (1) 
F 6

$$$$
