/home/pchatterjee/Documents/git/vs_workflow/DiffDock/diffdock_run/pdbqt_scrubbed/5329565.pdbqt
     RDKit          3D

 27 30  0  0  1  0  0  0  0  0999 V2000
    7.7769   43.6640   49.3444 C   0  0  0  0  0  0  0  0  0  0  0  0
    6.7936   44.3928   50.0563 N   0  0  0  0  0  0  0  0  0  0  0  0
    7.1471   45.4092   50.8042 C   0  0  0  0  0  0  0  0  0  0  0  0
    8.5007   45.7850   50.8983 C   0  0  0  0  0  3  0  0  0  0  0  0
    9.0961   46.4474   51.9668 N   0  0  0  0  0  0  0  0  0  0  0  0
   10.4735   46.6239   51.4276 C   0  0  0  0  0  2  0  0  0  0  0  0
   10.6422   45.4945   50.4963 N   0  0  0  0  0  0  0  0  0  0  0  0
    9.4899   44.9904   50.1777 C   0  0  0  0  0  0  0  0  0  0  0  0
    9.0381   43.9111   49.3710 N   0  0  0  0  0  0  0  0  0  0  0  0
    7.3439   42.5786   48.5400 N   0  0  0  0  0  0  0  0  0  0  0  0
    6.0393   41.9875   48.7106 C   0  0  0  0  0  0  0  0  0  0  0  0
    3.5396   40.8191   48.9838 C   0  0  0  0  0  0  0  0  0  0  0  0
    4.3174   40.5043   47.8752 C   0  0  0  0  0  3  0  0  0  0  0  0
    3.9847   41.7060   49.9596 C   0  0  0  0  0  3  0  0  0  0  0  0
    5.5779   41.0971   47.7428 C   0  0  0  0  0  3  0  0  0  0  0  0
    5.2478   42.2857   49.8054 C   0  0  0  0  0  3  0  0  0  0  0  0
    1.9550   40.0290   49.0824 S   0  0  0  0  0  0  0  0  0  0  0  0
    0.7345   41.0987   49.8720 C   0  0  0  0  0  1  0  0  0  0  0  0
    1.4452   39.6843   47.6716 O   0  0  0  0  0  0  0  0  0  0  0  0
    6.1412   46.0786   51.4817 O   0  0  0  0  0  0  0  0  0  0  0  0
    4.8417   45.4940   51.6238 C   0  0  0  0  0  2  0  0  0  0  0  0
    4.1104   46.0055   52.8336 C   0  0  0  0  0  3  0  0  0  0  0  0
    4.2030   44.9175   53.8912 C   0  0  0  0  0  2  0  0  0  0  0  0
    2.6648   46.2170   52.4176 C   0  0  0  0  0  2  0  0  0  0  0  0
    3.4291   45.2779   55.1399 C   0  0  0  0  0  2  0  0  0  0  0  0
    1.7066   45.4928   53.3707 C   0  0  0  0  0  2  0  0  0  0  0  0
    2.0980   45.8973   54.7664 C   0  0  0  0  0  2  0  0  0  0  0  0
  1  9  2  0
  1 10  1  0
  2  1  1  0
  3  2  2  0
  4  3  1  0
  4  8  1  0
  5  4  1  0
  5  6  1  0
  6  7  1  0
  8  7  2  0
  8  9  1  0
 11 10  1  0
 11 16  2  0
 12 14  2  0
 13 15  2  0
 13 12  1  0
 14 16  1  0
 15 11  1  0
 17 12  1  0
 17 18  1  6
 19 17  2  0
 20  3  1  0
 21 20  1  0
 22 21  1  0
 23 22  1  0
 24 22  1  0
 25 23  1  0
 26 24  1  0
 27 26  1  0
 27 25  1  0
M  RAD  8   4   2   6   3  13   2  14   2  15   2  16   2  18   2  21   3
M  RAD  6  22   2  23   3  24   3  25   3  26   3  27   3
M  END
>  <REMARK>  (1) 
 SMILES CS(=O)c1ccc(Nc2nc(OCC3CCCCC3)c3[nH]cnc3n2)cc1
 SMILES IDX 9 1 10 2 11 3 20 4 21 5 22 6 23 7 24 8 25 9 8 11 7 13 4 14
 SMILES IDX 5 15 27 16 6 17 26 18 2 19 1 20 3 21 12 22 13 23 14 24 15 25
 SMILES IDX 19 26 16 27 18 28 17 29
 H PARENT 21 10 8 12

>  <TORSDO>  (1) 
F 6

$$$$
