/home/pchatterjee/Documents/git/vs_workflow/DiffDock/diffdock_run/pdbqt_scrubbed/5329565.pdbqt
     RDKit          3D

 27 30  0  0  1  0  0  0  0  0999 V2000
    7.8239   43.5803   49.4670 C   0  0  0  0  0  0  0  0  0  0  0  0
    6.7643   44.3207   50.0448 N   0  0  0  0  0  0  0  0  0  0  0  0
    7.0247   45.3993   50.7420 C   0  0  0  0  0  0  0  0  0  0  0  0
    8.3540   45.8302   50.9139 C   0  0  0  0  0  3  0  0  0  0  0  0
    8.8405   46.5874   51.9746 N   0  0  0  0  0  0  0  0  0  0  0  0
   10.2508   46.7760   51.5333 C   0  0  0  0  0  2  0  0  0  0  0  0
   10.5289   45.5910   50.7029 N   0  0  0  0  0  0  0  0  0  0  0  0
    9.4222   45.0238   50.3328 C   0  0  0  0  0  0  0  0  0  0  0  0
    9.0706   43.8748   49.5739 N   0  0  0  0  0  0  0  0  0  0  0  0
    7.4910   42.4260   48.7124 N   0  0  0  0  0  0  0  0  0  0  0  0
    6.1870   41.8162   48.8035 C   0  0  0  0  0  0  0  0  0  0  0  0
    3.6664   40.6826   49.0275 C   0  0  0  0  0  0  0  0  0  0  0  0
    4.0313   41.7019   49.9000 C   0  0  0  0  0  3  0  0  0  0  0  0
    4.5351   40.2174   48.0446 C   0  0  0  0  0  3  0  0  0  0  0  0
    5.3045   42.2700   49.7821 C   0  0  0  0  0  3  0  0  0  0  0  0
    5.8021   40.8006   47.9463 C   0  0  0  0  0  3  0  0  0  0  0  0
    2.0380   40.0127   49.2382 S   0  0  0  0  0  0  0  0  0  0  0  0
    0.8034   41.3202   49.3910 C   0  0  0  0  0  1  0  0  0  0  0  0
    1.6619   39.1412   48.0265 O   0  0  0  0  0  0  0  0  0  0  0  0
    5.9472   46.0773   51.2882 O   0  0  0  0  0  0  0  0  0  0  0  0
    4.7019   45.4078   51.5156 C   0  0  0  0  0  2  0  0  0  0  0  0
    3.9528   45.9710   52.6910 C   0  0  0  0  0  3  0  0  0  0  0  0
    4.1937   45.0242   53.8556 C   0  0  0  0  0  2  0  0  0  0  0  0
    2.4817   45.9799   52.3123 C   0  0  0  0  0  2  0  0  0  0  0  0
    3.4198   45.4379   55.0878 C   0  0  0  0  0  2  0  0  0  0  0  0
    1.6357   45.2694   53.3756 C   0  0  0  0  0  2  0  0  0  0  0  0
    2.0188   45.8668   54.7025 C   0  0  0  0  0  2  0  0  0  0  0  0
  1  9  2  0
  1 10  1  0
  2  1  1  0
  3  2  2  0
  4  3  1  0
  4  8  1  0
  5  4  1  0
  5  6  1  0
  6  7  1  0
  8  7  2  0
  8  9  1  0
 11 10  1  0
 11 16  2  0
 12 14  2  0
 13 15  2  0
 13 12  1  0
 14 16  1  0
 15 11  1  0
 17 12  1  0
 17 18  1  6
 19 17  2  0
 20  3  1  0
 21 20  1  0
 22 21  1  0
 23 22  1  0
 24 22  1  0
 25 23  1  0
 26 24  1  0
 27 26  1  0
 27 25  1  0
M  RAD  8   4   2   6   3  13   2  14   2  15   2  16   2  18   2  21   3
M  RAD  6  22   2  23   3  24   3  25   3  26   3  27   3
M  END
>  <REMARK>  (1) 
 SMILES CS(=O)c1ccc(Nc2nc(OCC3CCCCC3)c3[nH]cnc3n2)cc1
 SMILES IDX 9 1 10 2 11 3 20 4 21 5 22 6 23 7 24 8 25 9 8 11 7 13 4 14
 SMILES IDX 5 15 27 16 6 17 26 18 2 19 1 20 3 21 12 22 13 23 14 24 15 25
 SMILES IDX 19 26 16 27 18 28 17 29
 H PARENT 21 10 8 12

>  <TORSDO>  (1) 
F 6

$$$$
