/home/pchatterjee/Documents/git/vs_workflow/DiffDock/diffdock_run/pdbqt_scrubbed/5329565.pdbqt
     RDKit          3D

 27 30  0  0  1  0  0  0  0  0999 V2000
    7.7250   43.6952   49.4733 C   0  0  0  0  0  0  0  0  0  0  0  0
    6.7362   44.4417   50.1586 N   0  0  0  0  0  0  0  0  0  0  0  0
    7.0916   45.4072   50.9702 C   0  0  0  0  0  0  0  0  0  0  0  0
    8.4534   45.7111   51.1592 C   0  0  0  0  0  3  0  0  0  0  0  0
    9.0141   46.2981   52.2888 N   0  0  0  0  0  0  0  0  0  0  0  0
   10.4282   46.4283   51.8386 C   0  0  0  0  0  2  0  0  0  0  0  0
   10.5991   45.3316   50.8695 N   0  0  0  0  0  0  0  0  0  0  0  0
    9.4455   44.8990   50.4626 C   0  0  0  0  0  0  0  0  0  0  0  0
    8.9926   43.8780   49.5838 N   0  0  0  0  0  0  0  0  0  0  0  0
    7.2905   42.6670   48.5976 N   0  0  0  0  0  0  0  0  0  0  0  0
    6.0154   42.0160   48.7737 C   0  0  0  0  0  0  0  0  0  0  0  0
    3.5570   40.7955   49.1675 C   0  0  0  0  0  0  0  0  0  0  0  0
    4.0300   41.6905   50.1207 C   0  0  0  0  0  3  0  0  0  0  0  0
    4.2870   40.4972   48.0208 C   0  0  0  0  0  3  0  0  0  0  0  0
    5.2712   42.3032   49.9165 C   0  0  0  0  0  3  0  0  0  0  0  0
    5.5246   41.1220   47.8387 C   0  0  0  0  0  3  0  0  0  0  0  0
    1.9773   40.0594   49.4956 S   0  0  0  0  0  0  0  0  0  0  0  0
    0.6757   41.3066   49.5825 C   0  0  0  0  0  1  0  0  0  0  0  0
    1.6122   39.0664   48.3778 O   0  0  0  0  0  0  0  0  0  0  0  0
    6.0795   46.0970   51.6174 O   0  0  0  0  0  0  0  0  0  0  0  0
    4.7175   45.6687   51.5078 C   0  0  0  0  0  2  0  0  0  0  0  0
    3.9260   45.9442   52.7558 C   0  0  0  0  0  3  0  0  0  0  0  0
    4.2400   44.8190   53.7284 C   0  0  0  0  0  2  0  0  0  0  0  0
    2.4589   45.9101   52.3633 C   0  0  0  0  0  2  0  0  0  0  0  0
    3.4356   44.9356   55.0041 C   0  0  0  0  0  2  0  0  0  0  0  0
    1.6709   44.9513   53.2638 C   0  0  0  0  0  2  0  0  0  0  0  0
    2.0054   45.3194   54.6840 C   0  0  0  0  0  2  0  0  0  0  0  0
  1  9  2  0
  1 10  1  0
  2  1  1  0
  3  2  2  0
  4  3  1  0
  4  8  1  0
  5  4  1  0
  5  6  1  0
  6  7  1  0
  8  7  2  0
  8  9  1  0
 11 10  1  0
 11 16  2  0
 12 14  2  0
 13 15  2  0
 13 12  1  0
 14 16  1  0
 15 11  1  0
 17 12  1  0
 17 18  1  6
 19 17  2  0
 20  3  1  0
 21 20  1  0
 22 21  1  0
 23 22  1  0
 24 22  1  0
 25 23  1  0
 26 24  1  0
 27 26  1  0
 27 25  1  0
M  RAD  8   4   2   6   3  13   2  14   2  15   2  16   2  18   2  21   3
M  RAD  6  22   2  23   3  24   3  25   3  26   3  27   3
M  END
>  <REMARK>  (1) 
 SMILES CS(=O)c1ccc(Nc2nc(OCC3CCCCC3)c3[nH]cnc3n2)cc1
 SMILES IDX 9 1 10 2 11 3 20 4 21 5 22 6 23 7 24 8 25 9 8 11 7 13 4 14
 SMILES IDX 5 15 27 16 6 17 26 18 2 19 1 20 3 21 12 22 13 23 14 24 15 25
 SMILES IDX 19 26 16 27 18 28 17 29
 H PARENT 21 10 8 12

>  <TORSDO>  (1) 
F 6

$$$$
