/home/pchatterjee/Documents/git/vs_workflow/DiffDock/diffdock_run/pdbqt_scrubbed/5329565.pdbqt
     RDKit          3D

 27 30  0  0  1  0  0  0  0  0999 V2000
   11.3115   85.8381   69.4086 C   0  0  0  0  0  0  0  0  0  0  0  0
   12.6766   85.4856   69.5393 N   0  0  0  0  0  0  0  0  0  0  0  0
   13.0229   84.4905   70.3185 C   0  0  0  0  0  0  0  0  0  0  0  0
   12.0427   83.7647   71.0218 C   0  0  0  0  0  3  0  0  0  0  0  0
   12.2317   83.0723   72.2135 N   0  0  0  0  0  0  0  0  0  0  0  0
   10.8805   82.4674   72.3791 C   0  0  0  0  0  2  0  0  0  0  0  0
    9.9791   83.4073   71.6896 N   0  0  0  0  0  0  0  0  0  0  0  0
   10.6495   84.1775   70.8891 C   0  0  0  0  0  0  0  0  0  0  0  0
   10.3399   85.2542   70.0147 N   0  0  0  0  0  0  0  0  0  0  0  0
   10.9854   86.9157   68.5453 N   0  0  0  0  0  0  0  0  0  0  0  0
   11.9529   87.9312   68.2087 C   0  0  0  0  0  0  0  0  0  0  0  0
   13.8593   89.8449   67.5829 C   0  0  0  0  0  0  0  0  0  0  0  0
   14.2673   88.6395   68.1430 C   0  0  0  0  0  3  0  0  0  0  0  0
   12.5178   90.1146   67.3287 C   0  0  0  0  0  3  0  0  0  0  0  0
   13.3007   87.6777   68.4566 C   0  0  0  0  0  3  0  0  0  0  0  0
   11.5703   89.1380   67.6506 C   0  0  0  0  0  3  0  0  0  0  0  0
   15.1408   91.0135   67.2128 S   0  0  0  0  0  0  0  0  0  0  0  0
   16.0394   90.5528   65.7170 C   0  0  0  0  0  1  0  0  0  0  0  0
   14.5365   92.4122   66.9942 O   0  0  0  0  0  0  0  0  0  0  0  0
   14.3737   84.1976   70.4111 O   0  0  0  0  0  0  0  0  0  0  0  0
   15.3543   85.0970   69.8820 C   0  0  0  0  0  2  0  0  0  0  0  0
   16.5886   84.3849   69.4031 C   0  0  0  0  0  3  0  0  0  0  0  0
   17.0678   83.5192   70.5571 C   0  0  0  0  0  2  0  0  0  0  0  0
   17.6177   85.4550   69.0818 C   0  0  0  0  0  2  0  0  0  0  0  0
   18.3616   82.8077   70.2286 C   0  0  0  0  0  2  0  0  0  0  0  0
   18.9414   85.1799   69.8051 C   0  0  0  0  0  2  0  0  0  0  0  0
   19.3056   83.7499   69.5102 C   0  0  0  0  0  2  0  0  0  0  0  0
  1  9  2  0
  1 10  1  0
  2  1  1  0
  3  2  2  0
  4  3  1  0
  4  8  1  0
  5  4  1  0
  5  6  1  0
  6  7  1  0
  8  7  2  0
  8  9  1  0
 11 10  1  0
 11 16  2  0
 12 14  2  0
 13 15  2  0
 13 12  1  0
 14 16  1  0
 15 11  1  0
 17 12  1  0
 17 18  1  6
 19 17  2  0
 20  3  1  0
 21 20  1  0
 22 21  1  0
 23 22  1  0
 24 22  1  0
 25 23  1  0
 26 24  1  0
 27 26  1  0
 27 25  1  0
M  RAD  8   4   2   6   3  13   2  14   2  15   2  16   2  18   2  21   3
M  RAD  6  22   2  23   3  24   3  25   3  26   3  27   3
M  END
>  <REMARK>  (1) 
 SMILES CS(=O)c1ccc(Nc2nc(OCC3CCCCC3)c3[nH]cnc3n2)cc1
 SMILES IDX 9 1 10 2 11 3 20 4 21 5 22 6 23 7 24 8 25 9 8 11 7 13 4 14
 SMILES IDX 5 15 27 16 6 17 26 18 2 19 1 20 3 21 12 22 13 23 14 24 15 25
 SMILES IDX 19 26 16 27 18 28 17 29
 H PARENT 21 10 8 12

>  <TORSDO>  (1) 
F 6

$$$$
