/home/pchatterjee/Documents/git/vs_workflow/DiffDock/diffdock_run/pdbqt_scrubbed/5329565.pdbqt
     RDKit          3D

 27 30  0  0  1  0  0  0  0  0999 V2000
    7.8946   43.6191   49.5301 C   0  0  0  0  0  0  0  0  0  0  0  0
    6.8632   44.2742   50.2456 N   0  0  0  0  0  0  0  0  0  0  0  0
    7.1481   45.2978   51.0126 C   0  0  0  0  0  0  0  0  0  0  0  0
    8.4753   45.7545   51.1237 C   0  0  0  0  0  3  0  0  0  0  0  0
    9.0212   46.4346   52.2075 N   0  0  0  0  0  0  0  0  0  0  0  0
   10.3889   46.7043   51.6823 C   0  0  0  0  0  2  0  0  0  0  0  0
   10.6334   45.6030   50.7344 N   0  0  0  0  0  0  0  0  0  0  0  0
    9.5167   45.0343   50.3984 C   0  0  0  0  0  0  0  0  0  0  0  0
    9.1379   43.9428   49.5708 N   0  0  0  0  0  0  0  0  0  0  0  0
    7.5350   42.5226   48.7048 N   0  0  0  0  0  0  0  0  0  0  0  0
    6.2403   41.8950   48.8072 C   0  0  0  0  0  0  0  0  0  0  0  0
    3.7632   40.6570   48.9497 C   0  0  0  0  0  0  0  0  0  0  0  0
    4.6044   40.3692   47.8807 C   0  0  0  0  0  3  0  0  0  0  0  0
    4.1339   41.5511   49.9498 C   0  0  0  0  0  3  0  0  0  0  0  0
    5.8531   40.9970   47.8142 C   0  0  0  0  0  3  0  0  0  0  0  0
    5.3866   42.1660   49.8617 C   0  0  0  0  0  3  0  0  0  0  0  0
    2.1982   39.8232   48.9653 S   0  0  0  0  0  0  0  0  0  0  0  0
    0.9353   40.8100   49.7952 C   0  0  0  0  0  1  0  0  0  0  0  0
    1.7246   39.5565   47.5252 O   0  0  0  0  0  0  0  0  0  0  0  0
    6.0981   45.8929   51.6927 O   0  0  0  0  0  0  0  0  0  0  0  0
    4.7785   45.3408   51.6265 C   0  0  0  0  0  2  0  0  0  0  0  0
    3.9063   45.7983   52.7622 C   0  0  0  0  0  3  0  0  0  0  0  0
    4.0778   44.7825   53.8801 C   0  0  0  0  0  2  0  0  0  0  0  0
    2.4758   45.7861   52.2515 C   0  0  0  0  0  2  0  0  0  0  0  0
    3.1817   45.0863   55.0602 C   0  0  0  0  0  2  0  0  0  0  0  0
    1.5656   44.9781   53.1841 C   0  0  0  0  0  2  0  0  0  0  0  0
    1.8055   45.4956   54.5767 C   0  0  0  0  0  2  0  0  0  0  0  0
  1  9  2  0
  1 10  1  0
  2  1  1  0
  3  2  2  0
  4  3  1  0
  4  8  1  0
  5  4  1  0
  5  6  1  0
  6  7  1  0
  8  7  2  0
  8  9  1  0
 11 10  1  0
 11 16  2  0
 12 14  2  0
 13 15  2  0
 13 12  1  0
 14 16  1  0
 15 11  1  0
 17 12  1  0
 17 18  1  6
 19 17  2  0
 20  3  1  0
 21 20  1  0
 22 21  1  0
 23 22  1  0
 24 22  1  0
 25 23  1  0
 26 24  1  0
 27 26  1  0
 27 25  1  0
M  RAD  8   4   2   6   3  13   2  14   2  15   2  16   2  18   2  21   3
M  RAD  6  22   2  23   3  24   3  25   3  26   3  27   3
M  END
>  <REMARK>  (1) 
 SMILES CS(=O)c1ccc(Nc2nc(OCC3CCCCC3)c3[nH]cnc3n2)cc1
 SMILES IDX 9 1 10 2 11 3 20 4 21 5 22 6 23 7 24 8 25 9 8 11 7 13 4 14
 SMILES IDX 5 15 27 16 6 17 26 18 2 19 1 20 3 21 12 22 13 23 14 24 15 25
 SMILES IDX 19 26 16 27 18 28 17 29
 H PARENT 21 10 8 12

>  <TORSDO>  (1) 
F 6

$$$$
