/home/pchatterjee/Documents/git/vs_workflow/DiffDock/diffdock_run/pdbqt_scrubbed/5329565.pdbqt
     RDKit          3D

 27 30  0  0  1  0  0  0  0  0999 V2000
    7.7902   43.6221   49.3930 C   0  0  0  0  0  0  0  0  0  0  0  0
    6.7840   44.2688   50.1507 N   0  0  0  0  0  0  0  0  0  0  0  0
    7.1091   45.2181   50.9935 C   0  0  0  0  0  0  0  0  0  0  0  0
    8.4548   45.6035   51.1447 C   0  0  0  0  0  3  0  0  0  0  0  0
    9.0223   46.1749   52.2790 N   0  0  0  0  0  0  0  0  0  0  0  0
   10.4051   46.4197   51.7820 C   0  0  0  0  0  2  0  0  0  0  0  0
   10.6069   45.3820   50.7554 N   0  0  0  0  0  0  0  0  0  0  0  0
    9.4681   44.8922   50.3725 C   0  0  0  0  0  0  0  0  0  0  0  0
    9.0467   43.8841   49.4636 N   0  0  0  0  0  0  0  0  0  0  0  0
    7.3877   42.6080   48.4862 N   0  0  0  0  0  0  0  0  0  0  0  0
    6.1148   41.9422   48.6166 C   0  0  0  0  0  0  0  0  0  0  0  0
    3.6755   40.6378   48.8089 C   0  0  0  0  0  0  0  0  0  0  0  0
    4.4293   40.4982   47.6489 C   0  0  0  0  0  3  0  0  0  0  0  0
    4.1151   41.4161   49.8757 C   0  0  0  0  0  3  0  0  0  0  0  0
    5.6593   41.1588   47.5578 C   0  0  0  0  0  3  0  0  0  0  0  0
    5.3475   42.0665   49.7612 C   0  0  0  0  0  3  0  0  0  0  0  0
    2.1289   39.7712   48.8506 S   0  0  0  0  0  0  0  0  0  0  0  0
    0.8223   40.7911   49.5646 C   0  0  0  0  0  1  0  0  0  0  0  0
    1.7018   39.3788   47.4248 O   0  0  0  0  0  0  0  0  0  0  0  0
    6.0818   45.8086   51.7113 O   0  0  0  0  0  0  0  0  0  0  0  0
    4.8898   45.0765   52.0175 C   0  0  0  0  0  2  0  0  0  0  0  0
    4.0915   45.7134   53.1206 C   0  0  0  0  0  3  0  0  0  0  0  0
    3.4524   44.5799   53.9065 C   0  0  0  0  0  2  0  0  0  0  0  0
    3.0229   46.5644   52.4562 C   0  0  0  0  0  2  0  0  0  0  0  0
    2.5478   45.0949   55.0041 C   0  0  0  0  0  2  0  0  0  0  0  0
    1.6296   46.2163   52.9935 C   0  0  0  0  0  2  0  0  0  0  0  0
    1.7227   46.2590   54.4948 C   0  0  0  0  0  2  0  0  0  0  0  0
  1  9  2  0
  1 10  1  0
  2  1  1  0
  3  2  2  0
  4  3  1  0
  4  8  1  0
  5  4  1  0
  5  6  1  0
  6  7  1  0
  8  7  2  0
  8  9  1  0
 11 10  1  0
 11 16  2  0
 12 14  2  0
 13 15  2  0
 13 12  1  0
 14 16  1  0
 15 11  1  0
 17 12  1  0
 17 18  1  6
 19 17  2  0
 20  3  1  0
 21 20  1  0
 22 21  1  0
 23 22  1  0
 24 22  1  0
 25 23  1  0
 26 24  1  0
 27 26  1  0
 27 25  1  0
M  RAD  8   4   2   6   3  13   2  14   2  15   2  16   2  18   2  21   3
M  RAD  6  22   2  23   3  24   3  25   3  26   3  27   3
M  END
>  <REMARK>  (1) 
 SMILES CS(=O)c1ccc(Nc2nc(OCC3CCCCC3)c3[nH]cnc3n2)cc1
 SMILES IDX 9 1 10 2 11 3 20 4 21 5 22 6 23 7 24 8 25 9 8 11 7 13 4 14
 SMILES IDX 5 15 27 16 6 17 26 18 2 19 1 20 3 21 12 22 13 23 14 24 15 25
 SMILES IDX 19 26 16 27 18 28 17 29
 H PARENT 21 10 8 12

>  <TORSDO>  (1) 
F 6

$$$$
