/home/pchatterjee/Documents/git/vs_workflow/DiffDock/diffdock_run/pdbqt_scrubbed/5329565.pdbqt
     RDKit          3D

 27 30  0  0  1  0  0  0  0  0999 V2000
    7.7347   43.7358   49.4142 C   0  0  0  0  0  0  0  0  0  0  0  0
    6.7285   44.2399   50.2735 N   0  0  0  0  0  0  0  0  0  0  0  0
    7.0193   45.1786   51.1404 C   0  0  0  0  0  0  0  0  0  0  0  0
    8.3273   45.6940   51.2172 C   0  0  0  0  0  3  0  0  0  0  0  0
    8.9183   46.2690   52.3376 N   0  0  0  0  0  0  0  0  0  0  0  0
   10.2285   46.6779   51.7586 C   0  0  0  0  0  2  0  0  0  0  0  0
   10.4554   45.7143   50.6672 N   0  0  0  0  0  0  0  0  0  0  0  0
    9.3458   45.1271   50.3396 C   0  0  0  0  0  0  0  0  0  0  0  0
    8.9604   44.1230   49.4106 N   0  0  0  0  0  0  0  0  0  0  0  0
    7.3687   42.7276   48.4856 N   0  0  0  0  0  0  0  0  0  0  0  0
    6.1284   42.0018   48.6109 C   0  0  0  0  0  0  0  0  0  0  0  0
    3.7386   40.6282   48.9116 C   0  0  0  0  0  0  0  0  0  0  0  0
    4.2277   41.3785   49.9751 C   0  0  0  0  0  3  0  0  0  0  0  0
    4.4190   40.5496   47.7000 C   0  0  0  0  0  3  0  0  0  0  0  0
    5.4341   42.0695   49.8173 C   0  0  0  0  0  3  0  0  0  0  0  0
    5.6225   41.2488   47.5663 C   0  0  0  0  0  3  0  0  0  0  0  0
    2.2052   39.7810   49.1865 S   0  0  0  0  0  0  0  0  0  0  0  0
    0.8288   40.9402   49.3248 C   0  0  0  0  0  1  0  0  0  0  0  0
    1.9089   38.8266   48.0159 O   0  0  0  0  0  0  0  0  0  0  0  0
    5.9949   45.6263   51.9584 O   0  0  0  0  0  0  0  0  0  0  0  0
    5.0439   44.7074   52.5077 C   0  0  0  0  0  2  0  0  0  0  0  0
    3.6421   44.9827   52.0399 C   0  0  0  0  0  3  0  0  0  0  0  0
    3.4201   46.4795   52.1847 C   0  0  0  0  0  2  0  0  0  0  0  0
    2.7109   44.2180   52.9650 C   0  0  0  0  0  2  0  0  0  0  0  0
    2.0068   46.8776   51.8215 C   0  0  0  0  0  2  0  0  0  0  0  0
    1.6382   45.1426   53.5527 C   0  0  0  0  0  2  0  0  0  0  0  0
    1.0216   45.8796   52.3945 C   0  0  0  0  0  2  0  0  0  0  0  0
  1  9  2  0
  1 10  1  0
  2  1  1  0
  3  2  2  0
  4  3  1  0
  4  8  1  0
  5  4  1  0
  5  6  1  0
  6  7  1  0
  8  7  2  0
  8  9  1  0
 11 10  1  0
 11 16  2  0
 12 14  2  0
 13 15  2  0
 13 12  1  0
 14 16  1  0
 15 11  1  0
 17 12  1  0
 17 18  1  6
 19 17  2  0
 20  3  1  0
 21 20  1  0
 22 21  1  0
 23 22  1  0
 24 22  1  0
 25 23  1  0
 26 24  1  0
 27 26  1  0
 27 25  1  0
M  RAD  8   4   2   6   3  13   2  14   2  15   2  16   2  18   2  21   3
M  RAD  6  22   2  23   3  24   3  25   3  26   3  27   3
M  END
>  <REMARK>  (1) 
 SMILES CS(=O)c1ccc(Nc2nc(OCC3CCCCC3)c3[nH]cnc3n2)cc1
 SMILES IDX 9 1 10 2 11 3 20 4 21 5 22 6 23 7 24 8 25 9 8 11 7 13 4 14
 SMILES IDX 5 15 27 16 6 17 26 18 2 19 1 20 3 21 12 22 13 23 14 24 15 25
 SMILES IDX 19 26 16 27 18 28 17 29
 H PARENT 21 10 8 12

>  <TORSDO>  (1) 
F 6

$$$$
