/home/pchatterjee/Documents/git/vs_workflow/DiffDock/diffdock_run/pdbqt_scrubbed/Z56840013.pdbqt
     RDKit          3D

 23 23  0  0  0  0  0  0  0  0999 V2000
    7.3551   46.1539   52.1128 C   0  0  0  0  0  0  0  0  0  0  0  0
    8.1789   46.7047   53.0395 N   0  0  0  0  0  0  0  0  0  0  0  0
    7.4940   47.2949   53.9972 N   0  0  0  0  0  0  0  0  0  0  0  0
    6.2003   47.1385   53.7110 C   0  0  0  0  0  0  0  0  0  0  0  0
    6.1280   46.4340   52.5468 N   0  0  0  0  0  0  0  0  0  0  0  0
    7.8611   45.4625   50.9520 C   0  0  0  0  0  0  0  0  0  0  0  0
    9.2193   45.3154   50.6893 C   0  0  0  0  0  0  0  0  0  0  0  0
    9.3886   44.6289   49.5325 N   0  0  0  0  0  0  0  0  0  0  0  0
    8.1943   44.3457   49.0728 N   0  0  0  0  0  0  0  0  0  0  0  0
    7.2303   44.8387   49.9154 C   0  0  0  0  0  0  0  0  0  0  0  0
   10.3351   45.7740   51.4460 N   0  0  0  0  0  0  0  0  0  0  0  0
    5.8634   44.6236   49.6355 N   0  0  0  0  0  0  0  0  0  0  0  0
    5.3592   43.3136   49.8874 C   0  0  0  0  0  0  0  0  0  0  0  0
    5.4852   42.4113   48.8374 C   0  0  0  0  0  3  0  0  0  0  0  0
    4.7830   42.9064   51.0657 C   0  0  0  0  0  3  0  0  0  0  0  0
    5.0429   41.1180   48.9528 C   0  0  0  0  0  3  0  0  0  0  0  0
    4.3284   41.5984   51.2043 C   0  0  0  0  0  3  0  0  0  0  0  0
    4.4670   40.7378   50.1526 C   0  0  0  0  0  3  0  0  0  0  0  0
    4.8853   46.0927   51.9335 C   0  0  0  0  0  2  0  0  0  0  0  0
    4.1801   47.2953   51.3526 C   0  0  0  0  0  1  0  0  0  0  0  0
    6.8688   44.9133   51.0171 *   0  0  0  0  0  0  0  0  0  0  0  0
    5.0534   47.6476   54.5318 C   0  0  0  0  0  1  0  0  0  0  0  0
    6.8688   44.9133   51.0171 *   0  0  0  0  0  0  0  0  0  0  0  0
  1  6  1  0
  2  1  2  0
  3  4  2  0
  3  2  1  0
  4  5  1  0
  5  1  1  0
  5 19  1  0
  6  7  1  0
  6 10  2  0
  7  8  2  0
  8  9  1  0
 10 12  1  0
 10  9  1  0
 11  7  1  0
 12 13  1  0
 13 14  2  0
 13 15  1  0
 14 16  1  0
 15 17  2  0
 16 18  2  0
 17 18  1  0
 20 19  1  0
 22  4  1  0
M  RAD  8  14   2  15   2  16   2  17   2  18   2  19   3  20   2  22   2
V   21 *
V   23 *
M  END
>  <REMARK>  (1) 
 SMILES Nc1n[nH]c(Nc2ccccc2)c1-c1nnc2n1CCCCC2
 SMILES IDX 14 1 15 2 16 3 17 4 18 5 13 6 2 7 3 8 4 9 5 10 1 12 6 15
 SMILES IDX 7 17 8 18 12 19 9 20 11 21 10 22 19 23 20 24 21 25 23 27
 SMILES IDX 22 28
 H PARENT 4 11 1 13 1 14 6 16
 Flexibility Score:   48.900

>  <TORSDO>  (1) 
F 4

$$$$
