/home/pchatterjee/Documents/git/vs_workflow/DiffDock/diffdock_run/pdbqt_scrubbed/Z56840013.pdbqt
     RDKit          3D

 23 23  0  0  0  0  0  0  0  0999 V2000
    7.4456   46.0125   52.1482 C   0  0  0  0  0  0  0  0  0  0  0  0
    8.2641   46.5240   53.1018 N   0  0  0  0  0  0  0  0  0  0  0  0
    7.5743   47.1004   54.0645 N   0  0  0  0  0  0  0  0  0  0  0  0
    6.2828   46.9740   53.7546 C   0  0  0  0  0  0  0  0  0  0  0  0
    6.2168   46.3022   52.5709 N   0  0  0  0  0  0  0  0  0  0  0  0
    7.9579   45.3436   50.9770 C   0  0  0  0  0  0  0  0  0  0  0  0
    9.3174   45.1800   50.7311 C   0  0  0  0  0  0  0  0  0  0  0  0
    9.4931   44.5216   49.5589 N   0  0  0  0  0  0  0  0  0  0  0  0
    8.3014   44.2716   49.0738 N   0  0  0  0  0  0  0  0  0  0  0  0
    7.3329   44.7586   49.9146 C   0  0  0  0  0  0  0  0  0  0  0  0
   10.4287   45.5988   51.5167 N   0  0  0  0  0  0  0  0  0  0  0  0
    5.9671   44.5748   49.6084 N   0  0  0  0  0  0  0  0  0  0  0  0
    5.4369   43.2675   49.8172 C   0  0  0  0  0  0  0  0  0  0  0  0
    5.5640   42.3914   48.7454 C   0  0  0  0  0  3  0  0  0  0  0  0
    4.8356   42.8391   50.9753 C   0  0  0  0  0  3  0  0  0  0  0  0
    5.0981   41.1033   48.8192 C   0  0  0  0  0  3  0  0  0  0  0  0
    4.3568   41.5360   51.0718 C   0  0  0  0  0  3  0  0  0  0  0  0
    4.4972   40.7013   49.9995 C   0  0  0  0  0  3  0  0  0  0  0  0
    4.9782   45.9989   51.9299 C   0  0  0  0  0  2  0  0  0  0  0  0
    4.3026   47.2286   51.3710 C   0  0  0  0  0  1  0  0  0  0  0  0
    6.9555   44.8101   51.0123 *   0  0  0  0  0  0  0  0  0  0  0  0
    5.1320   47.4809   54.5714 C   0  0  0  0  0  1  0  0  0  0  0  0
    6.9555   44.8101   51.0123 *   0  0  0  0  0  0  0  0  0  0  0  0
  1  6  1  0
  2  1  2  0
  3  4  2  0
  3  2  1  0
  4  5  1  0
  5  1  1  0
  5 19  1  0
  6  7  1  0
  6 10  2  0
  7  8  2  0
  8  9  1  0
 10 12  1  0
 10  9  1  0
 11  7  1  0
 12 13  1  0
 13 14  2  0
 13 15  1  0
 14 16  1  0
 15 17  2  0
 16 18  2  0
 17 18  1  0
 20 19  1  0
 22  4  1  0
M  RAD  8  14   2  15   2  16   2  17   2  18   2  19   3  20   2  22   2
V   21 *
V   23 *
M  END
>  <REMARK>  (1) 
 SMILES Nc1n[nH]c(Nc2ccccc2)c1-c1nnc2n1CCCCC2
 SMILES IDX 14 1 15 2 16 3 17 4 18 5 13 6 2 7 3 8 4 9 5 10 1 12 6 15
 SMILES IDX 7 17 8 18 12 19 9 20 11 21 10 22 19 23 20 24 21 25 23 27
 SMILES IDX 22 28
 H PARENT 4 11 1 13 1 14 6 16
 Flexibility Score:   48.900

>  <TORSDO>  (1) 
F 4

$$$$
