/home/pchatterjee/Documents/git/vs_workflow/DiffDock/diffdock_run/pdbqt_scrubbed/Z56840013.pdbqt
     RDKit          3D

 23 23  0  0  0  0  0  0  0  0999 V2000
    7.5147   45.8689   52.2541 C   0  0  0  0  0  0  0  0  0  0  0  0
    8.3381   46.3308   53.2286 N   0  0  0  0  0  0  0  0  0  0  0  0
    7.6551   46.8914   54.2053 N   0  0  0  0  0  0  0  0  0  0  0  0
    6.3631   46.8044   53.8839 C   0  0  0  0  0  0  0  0  0  0  0  0
    6.2899   46.1727   52.6787 N   0  0  0  0  0  0  0  0  0  0  0  0
    8.0195   45.2265   51.0650 C   0  0  0  0  0  0  0  0  0  0  0  0
    9.3766   45.0400   50.8220 C   0  0  0  0  0  0  0  0  0  0  0  0
    9.5452   44.4159   49.6302 N   0  0  0  0  0  0  0  0  0  0  0  0
    8.3515   44.2087   49.1302 N   0  0  0  0  0  0  0  0  0  0  0  0
    7.3886   44.6903   49.9805 C   0  0  0  0  0  0  0  0  0  0  0  0
   10.4918   45.4080   51.6273 N   0  0  0  0  0  0  0  0  0  0  0  0
    6.0211   44.5475   49.6605 N   0  0  0  0  0  0  0  0  0  0  0  0
    5.4602   43.2466   49.8239 C   0  0  0  0  0  0  0  0  0  0  0  0
    5.5746   42.4028   48.7251 C   0  0  0  0  0  3  0  0  0  0  0  0
    4.8417   42.7950   50.9639 C   0  0  0  0  0  3  0  0  0  0  0  0
    5.0794   41.1239   48.7545 C   0  0  0  0  0  3  0  0  0  0  0  0
    4.3330   41.5006   51.0154 C   0  0  0  0  0  3  0  0  0  0  0  0
    4.4618   40.6979   49.9176 C   0  0  0  0  0  3  0  0  0  0  0  0
    5.0491   45.9184   52.0209 C   0  0  0  0  0  2  0  0  0  0  0  0
    4.4051   47.1805   51.4980 C   0  0  0  0  0  1  0  0  0  0  0  0
    7.0052   44.7150   51.0770 *   0  0  0  0  0  0  0  0  0  0  0  0
    5.2186   47.3108   54.7097 C   0  0  0  0  0  1  0  0  0  0  0  0
    7.0052   44.7150   51.0770 *   0  0  0  0  0  0  0  0  0  0  0  0
  1  6  1  0
  2  1  2  0
  3  4  2  0
  3  2  1  0
  4  5  1  0
  5  1  1  0
  5 19  1  0
  6  7  1  0
  6 10  2  0
  7  8  2  0
  8  9  1  0
 10 12  1  0
 10  9  1  0
 11  7  1  0
 12 13  1  0
 13 14  2  0
 13 15  1  0
 14 16  1  0
 15 17  2  0
 16 18  2  0
 17 18  1  0
 20 19  1  0
 22  4  1  0
M  RAD  8  14   2  15   2  16   2  17   2  18   2  19   3  20   2  22   2
V   21 *
V   23 *
M  END
>  <REMARK>  (1) 
 SMILES Nc1n[nH]c(Nc2ccccc2)c1-c1nnc2n1CCCCC2
 SMILES IDX 14 1 15 2 16 3 17 4 18 5 13 6 2 7 3 8 4 9 5 10 1 12 6 15
 SMILES IDX 7 17 8 18 12 19 9 20 11 21 10 22 19 23 20 24 21 25 23 27
 SMILES IDX 22 28
 H PARENT 4 11 1 13 1 14 6 16
 Flexibility Score:   48.900

>  <TORSDO>  (1) 
F 4

$$$$
