/home/pchatterjee/Documents/git/vs_workflow/DiffDock/diffdock_run/pdbqt_scrubbed/Z56840013.pdbqt
     RDKit          3D

 23 23  0  0  0  0  0  0  0  0999 V2000
    7.4320   46.0454   52.1556 C   0  0  0  0  0  0  0  0  0  0  0  0
    8.2471   46.5839   53.0971 N   0  0  0  0  0  0  0  0  0  0  0  0
    7.5531   47.1456   54.0653 N   0  0  0  0  0  0  0  0  0  0  0  0
    6.2620   46.9821   53.7715 C   0  0  0  0  0  0  0  0  0  0  0  0
    6.2007   46.3031   52.5916 N   0  0  0  0  0  0  0  0  0  0  0  0
    7.9487   45.3853   50.9814 C   0  0  0  0  0  0  0  0  0  0  0  0
    9.3092   45.2581   50.7200 C   0  0  0  0  0  0  0  0  0  0  0  0
    9.4892   44.5993   49.5488 N   0  0  0  0  0  0  0  0  0  0  0  0
    8.2993   44.3141   49.0790 N   0  0  0  0  0  0  0  0  0  0  0  0
    7.3276   44.7782   49.9291 C   0  0  0  0  0  0  0  0  0  0  0  0
   10.4177   45.7112   51.4904 N   0  0  0  0  0  0  0  0  0  0  0  0
    5.9639   44.5553   49.6400 N   0  0  0  0  0  0  0  0  0  0  0  0
    5.4726   43.2348   49.8610 C   0  0  0  0  0  0  0  0  0  0  0  0
    5.6112   42.3575   48.7916 C   0  0  0  0  0  3  0  0  0  0  0  0
    4.8971   42.7956   51.0281 C   0  0  0  0  0  3  0  0  0  0  0  0
    5.1821   41.0574   48.8768 C   0  0  0  0  0  3  0  0  0  0  0  0
    4.4557   41.4802   51.1360 C   0  0  0  0  0  3  0  0  0  0  0  0
    4.6065   40.6446   50.0659 C   0  0  0  0  0  3  0  0  0  0  0  0
    4.9635   45.9627   51.9668 C   0  0  0  0  0  2  0  0  0  0  0  0
    4.2476   47.1706   51.4105 C   0  0  0  0  0  1  0  0  0  0  0  0
    6.9620   44.8245   51.0309 *   0  0  0  0  0  0  0  0  0  0  0  0
    5.1073   47.4610   54.5996 C   0  0  0  0  0  1  0  0  0  0  0  0
    6.9620   44.8245   51.0309 *   0  0  0  0  0  0  0  0  0  0  0  0
  1  6  1  0
  2  1  2  0
  3  4  2  0
  3  2  1  0
  4  5  1  0
  5  1  1  0
  5 19  1  0
  6  7  1  0
  6 10  2  0
  7  8  2  0
  8  9  1  0
 10 12  1  0
 10  9  1  0
 11  7  1  0
 12 13  1  0
 13 14  2  0
 13 15  1  0
 14 16  1  0
 15 17  2  0
 16 18  2  0
 17 18  1  0
 20 19  1  0
 22  4  1  0
M  RAD  8  14   2  15   2  16   2  17   2  18   2  19   3  20   2  22   2
V   21 *
V   23 *
M  END
>  <REMARK>  (1) 
 SMILES Nc1n[nH]c(Nc2ccccc2)c1-c1nnc2n1CCCCC2
 SMILES IDX 14 1 15 2 16 3 17 4 18 5 13 6 2 7 3 8 4 9 5 10 1 12 6 15
 SMILES IDX 7 17 8 18 12 19 9 20 11 21 10 22 19 23 20 24 21 25 23 27
 SMILES IDX 22 28
 H PARENT 4 11 1 13 1 14 6 16
 Flexibility Score:   48.900

>  <TORSDO>  (1) 
F 4

$$$$
