/home/pchatterjee/Documents/git/vs_workflow/DiffDock/diffdock_run/pdbqt_scrubbed/Z56840013.pdbqt
     RDKit          3D

 23 23  0  0  0  0  0  0  0  0999 V2000
    7.4611   46.0229   52.1498 C   0  0  0  0  0  0  0  0  0  0  0  0
    8.2724   46.5221   53.1159 N   0  0  0  0  0  0  0  0  0  0  0  0
    7.5771   47.1120   54.0662 N   0  0  0  0  0  0  0  0  0  0  0  0
    6.2888   47.0073   53.7354 C   0  0  0  0  0  0  0  0  0  0  0  0
    6.2307   46.3344   52.5518 N   0  0  0  0  0  0  0  0  0  0  0  0
    7.9809   45.3430   50.9883 C   0  0  0  0  0  0  0  0  0  0  0  0
    9.3412   45.1555   50.7650 C   0  0  0  0  0  0  0  0  0  0  0  0
    9.5247   44.4920   49.5970 N   0  0  0  0  0  0  0  0  0  0  0  0
    8.3370   44.2616   49.0928 N   0  0  0  0  0  0  0  0  0  0  0  0
    7.3634   44.7668   49.9167 C   0  0  0  0  0  0  0  0  0  0  0  0
   10.4466   45.5567   51.5681 N   0  0  0  0  0  0  0  0  0  0  0  0
    5.9998   44.6059   49.5884 N   0  0  0  0  0  0  0  0  0  0  0  0
    5.4438   43.3083   49.7907 C   0  0  0  0  0  0  0  0  0  0  0  0
    5.5734   42.4281   48.7226 C   0  0  0  0  0  3  0  0  0  0  0  0
    4.8164   42.8925   50.9395 C   0  0  0  0  0  3  0  0  0  0  0  0
    5.0843   41.1483   48.7909 C   0  0  0  0  0  3  0  0  0  0  0  0
    4.3136   41.5980   51.0302 C   0  0  0  0  0  3  0  0  0  0  0  0
    4.4573   40.7590   49.9618 C   0  0  0  0  0  3  0  0  0  0  0  0
    4.9977   46.0513   51.8911 C   0  0  0  0  0  2  0  0  0  0  0  0
    4.3526   47.2913   51.3191 C   0  0  0  0  0  1  0  0  0  0  0  0
    6.9690   44.8268   51.0080 *   0  0  0  0  0  0  0  0  0  0  0  0
    5.1336   47.5355   54.5323 C   0  0  0  0  0  1  0  0  0  0  0  0
    6.9690   44.8268   51.0080 *   0  0  0  0  0  0  0  0  0  0  0  0
  1  6  1  0
  2  1  2  0
  3  4  2  0
  3  2  1  0
  4  5  1  0
  5  1  1  0
  5 19  1  0
  6  7  1  0
  6 10  2  0
  7  8  2  0
  8  9  1  0
 10 12  1  0
 10  9  1  0
 11  7  1  0
 12 13  1  0
 13 14  2  0
 13 15  1  0
 14 16  1  0
 15 17  2  0
 16 18  2  0
 17 18  1  0
 20 19  1  0
 22  4  1  0
M  RAD  8  14   2  15   2  16   2  17   2  18   2  19   3  20   2  22   2
V   21 *
V   23 *
M  END
>  <REMARK>  (1) 
 SMILES Nc1n[nH]c(Nc2ccccc2)c1-c1nnc2n1CCCCC2
 SMILES IDX 14 1 15 2 16 3 17 4 18 5 13 6 2 7 3 8 4 9 5 10 1 12 6 15
 SMILES IDX 7 17 8 18 12 19 9 20 11 21 10 22 19 23 20 24 21 25 23 27
 SMILES IDX 22 28
 H PARENT 4 11 1 13 1 14 6 16
 Flexibility Score:   48.900

>  <TORSDO>  (1) 
F 4

$$$$
