/home/pchatterjee/Documents/git/vs_workflow/DiffDock/diffdock_run/pdbqt_scrubbed/Z56840013.pdbqt
     RDKit          3D

 23 23  0  0  0  0  0  0  0  0999 V2000
    7.4288   45.9502   52.2285 C   0  0  0  0  0  0  0  0  0  0  0  0
    8.2385   46.4677   53.1864 N   0  0  0  0  0  0  0  0  0  0  0  0
    7.5415   47.0764   54.1236 N   0  0  0  0  0  0  0  0  0  0  0  0
    6.2538   46.9659   53.7922 C   0  0  0  0  0  0  0  0  0  0  0  0
    6.1978   46.2702   52.6218 N   0  0  0  0  0  0  0  0  0  0  0  0
    7.9506   45.2476   51.0815 C   0  0  0  0  0  0  0  0  0  0  0  0
    9.3113   45.0552   50.8647 C   0  0  0  0  0  0  0  0  0  0  0  0
    9.4969   44.3690   49.7102 N   0  0  0  0  0  0  0  0  0  0  0  0
    8.3101   44.1294   49.2081 N   0  0  0  0  0  0  0  0  0  0  0  0
    7.3350   44.6510   50.0201 C   0  0  0  0  0  0  0  0  0  0  0  0
   10.4152   45.4713   51.6622 N   0  0  0  0  0  0  0  0  0  0  0  0
    5.9721   44.4845   49.6921 N   0  0  0  0  0  0  0  0  0  0  0  0
    5.4149   43.1914   49.9184 C   0  0  0  0  0  0  0  0  0  0  0  0
    5.5462   42.2905   48.8678 C   0  0  0  0  0  3  0  0  0  0  0  0
    4.7848   42.7984   51.0737 C   0  0  0  0  0  3  0  0  0  0  0  0
    5.0562   41.0126   48.9600 C   0  0  0  0  0  3  0  0  0  0  0  0
    4.2812   41.5061   51.1885 C   0  0  0  0  0  3  0  0  0  0  0  0
    4.4266   40.6464   50.1369 C   0  0  0  0  0  3  0  0  0  0  0  0
    4.9660   45.9749   51.9642 C   0  0  0  0  0  2  0  0  0  0  0  0
    4.3228   47.2039   51.3669 C   0  0  0  0  0  1  0  0  0  0  0  0
    6.9385   44.7325   51.1091 *   0  0  0  0  0  0  0  0  0  0  0  0
    5.0973   47.5101   54.5763 C   0  0  0  0  0  1  0  0  0  0  0  0
    6.9385   44.7325   51.1091 *   0  0  0  0  0  0  0  0  0  0  0  0
  1  6  1  0
  2  1  2  0
  3  4  2  0
  3  2  1  0
  4  5  1  0
  5  1  1  0
  5 19  1  0
  6  7  1  0
  6 10  2  0
  7  8  2  0
  8  9  1  0
 10 12  1  0
 10  9  1  0
 11  7  1  0
 12 13  1  0
 13 14  2  0
 13 15  1  0
 14 16  1  0
 15 17  2  0
 16 18  2  0
 17 18  1  0
 20 19  1  0
 22  4  1  0
M  RAD  8  14   2  15   2  16   2  17   2  18   2  19   3  20   2  22   2
V   21 *
V   23 *
M  END
>  <REMARK>  (1) 
 SMILES Nc1n[nH]c(Nc2ccccc2)c1-c1nnc2n1CCCCC2
 SMILES IDX 14 1 15 2 16 3 17 4 18 5 13 6 2 7 3 8 4 9 5 10 1 12 6 15
 SMILES IDX 7 17 8 18 12 19 9 20 11 21 10 22 19 23 20 24 21 25 23 27
 SMILES IDX 22 28
 H PARENT 4 11 1 13 1 14 6 16
 Flexibility Score:   48.900

>  <TORSDO>  (1) 
F 4

$$$$
