/home/pchatterjee/Documents/git/vs_workflow/DiffDock/diffdock_run/pdbqt_scrubbed/Z56840013.pdbqt
     RDKit          3D

 23 23  0  0  0  0  0  0  0  0999 V2000
    7.3925   46.0121   52.2012 C   0  0  0  0  0  0  0  0  0  0  0  0
    8.2128   46.5196   53.1554 N   0  0  0  0  0  0  0  0  0  0  0  0
    7.5274   47.1350   54.0968 N   0  0  0  0  0  0  0  0  0  0  0  0
    6.2369   47.0393   53.7719 C   0  0  0  0  0  0  0  0  0  0  0  0
    6.1671   46.3453   52.6012 N   0  0  0  0  0  0  0  0  0  0  0  0
    7.9005   45.3048   51.0510 C   0  0  0  0  0  0  0  0  0  0  0  0
    9.2578   45.0975   50.8270 C   0  0  0  0  0  0  0  0  0  0  0  0
    9.4298   44.4104   49.6709 N   0  0  0  0  0  0  0  0  0  0  0  0
    8.2379   44.1846   49.1746 N   0  0  0  0  0  0  0  0  0  0  0  0
    7.2729   44.7162   49.9921 C   0  0  0  0  0  0  0  0  0  0  0  0
   10.3704   45.5005   51.6191 N   0  0  0  0  0  0  0  0  0  0  0  0
    5.9065   44.5652   49.6710 N   0  0  0  0  0  0  0  0  0  0  0  0
    5.3361   43.2781   49.8990 C   0  0  0  0  0  0  0  0  0  0  0  0
    5.4519   42.3769   48.8469 C   0  0  0  0  0  3  0  0  0  0  0  0
    4.7076   42.8910   51.0572 C   0  0  0  0  0  3  0  0  0  0  0  0
    4.9482   41.1045   48.9404 C   0  0  0  0  0  3  0  0  0  0  0  0
    4.1902   41.6044   51.1733 C   0  0  0  0  0  3  0  0  0  0  0  0
    4.3206   40.7442   50.1202 C   0  0  0  0  0  3  0  0  0  0  0  0
    4.9288   46.0645   51.9496 C   0  0  0  0  0  2  0  0  0  0  0  0
    4.2963   47.3012   51.3567 C   0  0  0  0  0  1  0  0  0  0  0  0
    6.8829   44.8010   51.0833 *   0  0  0  0  0  0  0  0  0  0  0  0
    5.0906   47.5955   54.5624 C   0  0  0  0  0  1  0  0  0  0  0  0
    6.8829   44.8010   51.0833 *   0  0  0  0  0  0  0  0  0  0  0  0
  1  6  1  0
  2  1  2  0
  3  4  2  0
  3  2  1  0
  4  5  1  0
  5  1  1  0
  5 19  1  0
  6  7  1  0
  6 10  2  0
  7  8  2  0
  8  9  1  0
 10 12  1  0
 10  9  1  0
 11  7  1  0
 12 13  1  0
 13 14  2  0
 13 15  1  0
 14 16  1  0
 15 17  2  0
 16 18  2  0
 17 18  1  0
 20 19  1  0
 22  4  1  0
M  RAD  8  14   2  15   2  16   2  17   2  18   2  19   3  20   2  22   2
V   21 *
V   23 *
M  END
>  <REMARK>  (1) 
 SMILES Nc1n[nH]c(Nc2ccccc2)c1-c1nnc2n1CCCCC2
 SMILES IDX 14 1 15 2 16 3 17 4 18 5 13 6 2 7 3 8 4 9 5 10 1 12 6 15
 SMILES IDX 7 17 8 18 12 19 9 20 11 21 10 22 19 23 20 24 21 25 23 27
 SMILES IDX 22 28
 H PARENT 4 11 1 13 1 14 6 16
 Flexibility Score:   48.900

>  <TORSDO>  (1) 
F 4

$$$$
