/home/pchatterjee/Documents/git/vs_workflow/DiffDock/diffdock_run/pdbqt_scrubbed/Z56840013.pdbqt
     RDKit          3D

 23 23  0  0  0  0  0  0  0  0999 V2000
    7.4469   45.9110   52.2581 C   0  0  0  0  0  0  0  0  0  0  0  0
    8.2687   46.3879   53.2267 N   0  0  0  0  0  0  0  0  0  0  0  0
    7.5847   46.9712   54.1893 N   0  0  0  0  0  0  0  0  0  0  0  0
    6.2936   46.8845   53.8643 C   0  0  0  0  0  0  0  0  0  0  0  0
    6.2220   46.2294   52.6715 N   0  0  0  0  0  0  0  0  0  0  0  0
    7.9532   45.2426   51.0841 C   0  0  0  0  0  0  0  0  0  0  0  0
    9.3102   45.0444   50.8505 C   0  0  0  0  0  0  0  0  0  0  0  0
    9.4804   44.3959   49.6720 N   0  0  0  0  0  0  0  0  0  0  0  0
    8.2877   44.1850   49.1712 N   0  0  0  0  0  0  0  0  0  0  0  0
    7.3239   44.6883   50.0078 C   0  0  0  0  0  0  0  0  0  0  0  0
   10.4241   45.4225   51.6530 N   0  0  0  0  0  0  0  0  0  0  0  0
    5.9570   44.5462   49.6850 N   0  0  0  0  0  0  0  0  0  0  0  0
    5.3886   43.2516   49.8717 C   0  0  0  0  0  0  0  0  0  0  0  0
    5.5031   42.3857   48.7903 C   0  0  0  0  0  3  0  0  0  0  0  0
    4.7632   42.8259   51.0179 C   0  0  0  0  0  3  0  0  0  0  0  0
    5.0011   41.1102   48.8430 C   0  0  0  0  0  3  0  0  0  0  0  0
    4.2475   41.5355   51.0929 C   0  0  0  0  0  3  0  0  0  0  0  0
    4.3766   40.7105   50.0117 C   0  0  0  0  0  3  0  0  0  0  0  0
    4.9825   45.9686   52.0137 C   0  0  0  0  0  2  0  0  0  0  0  0
    4.3473   47.2233   51.4632 C   0  0  0  0  0  1  0  0  0  0  0  0
    6.9362   44.7367   51.1021 *   0  0  0  0  0  0  0  0  0  0  0  0
    5.1484   47.4131   54.6751 C   0  0  0  0  0  1  0  0  0  0  0  0
    6.9362   44.7367   51.1021 *   0  0  0  0  0  0  0  0  0  0  0  0
  1  6  1  0
  2  1  2  0
  3  4  2  0
  3  2  1  0
  4  5  1  0
  5  1  1  0
  5 19  1  0
  6  7  1  0
  6 10  2  0
  7  8  2  0
  8  9  1  0
 10 12  1  0
 10  9  1  0
 11  7  1  0
 12 13  1  0
 13 14  2  0
 13 15  1  0
 14 16  1  0
 15 17  2  0
 16 18  2  0
 17 18  1  0
 20 19  1  0
 22  4  1  0
M  RAD  8  14   2  15   2  16   2  17   2  18   2  19   3  20   2  22   2
V   21 *
V   23 *
M  END
>  <REMARK>  (1) 
 SMILES Nc1n[nH]c(Nc2ccccc2)c1-c1nnc2n1CCCCC2
 SMILES IDX 14 1 15 2 16 3 17 4 18 5 13 6 2 7 3 8 4 9 5 10 1 12 6 15
 SMILES IDX 7 17 8 18 12 19 9 20 11 21 10 22 19 23 20 24 21 25 23 27
 SMILES IDX 22 28
 H PARENT 4 11 1 13 1 14 6 16
 Flexibility Score:   48.900

>  <TORSDO>  (1) 
F 4

$$$$
