/home/pchatterjee/Documents/git/vs_workflow/DiffDock/diffdock_run/pdbqt_scrubbed/Z56840013.pdbqt
     RDKit          3D

 23 23  0  0  0  0  0  0  0  0999 V2000
    7.4486   45.9136   52.2703 C   0  0  0  0  0  0  0  0  0  0  0  0
    8.2695   46.3997   53.2351 N   0  0  0  0  0  0  0  0  0  0  0  0
    7.5834   46.9739   54.2016 N   0  0  0  0  0  0  0  0  0  0  0  0
    6.2919   46.8717   53.8832 C   0  0  0  0  0  0  0  0  0  0  0  0
    6.2221   46.2167   52.6903 N   0  0  0  0  0  0  0  0  0  0  0  0
    7.9569   45.2524   51.0932 C   0  0  0  0  0  0  0  0  0  0  0  0
    9.3151   45.0709   50.8523 C   0  0  0  0  0  0  0  0  0  0  0  0
    9.4871   44.4255   49.6724 N   0  0  0  0  0  0  0  0  0  0  0  0
    8.2944   44.2005   49.1777 N   0  0  0  0  0  0  0  0  0  0  0  0
    7.3288   44.6913   50.0197 C   0  0  0  0  0  0  0  0  0  0  0  0
   10.4284   45.4620   51.6494 N   0  0  0  0  0  0  0  0  0  0  0  0
    5.9621   44.5328   49.7038 N   0  0  0  0  0  0  0  0  0  0  0  0
    5.4106   43.2312   49.8923 C   0  0  0  0  0  0  0  0  0  0  0  0
    5.5301   42.3675   48.8096 C   0  0  0  0  0  3  0  0  0  0  0  0
    4.7963   42.7969   51.0414 C   0  0  0  0  0  3  0  0  0  0  0  0
    5.0439   41.0860   48.8638 C   0  0  0  0  0  3  0  0  0  0  0  0
    4.2969   41.5003   51.1179 C   0  0  0  0  0  3  0  0  0  0  0  0
    4.4304   40.6778   50.0354 C   0  0  0  0  0  3  0  0  0  0  0  0
    4.9825   45.9413   52.0387 C   0  0  0  0  0  2  0  0  0  0  0  0
    4.3291   47.1886   51.4926 C   0  0  0  0  0  1  0  0  0  0  0  0
    6.9463   44.7341   51.1159 *   0  0  0  0  0  0  0  0  0  0  0  0
    5.1445   47.3856   54.7005 C   0  0  0  0  0  1  0  0  0  0  0  0
    6.9463   44.7341   51.1159 *   0  0  0  0  0  0  0  0  0  0  0  0
  1  6  1  0
  2  1  2  0
  3  4  2  0
  3  2  1  0
  4  5  1  0
  5  1  1  0
  5 19  1  0
  6  7  1  0
  6 10  2  0
  7  8  2  0
  8  9  1  0
 10 12  1  0
 10  9  1  0
 11  7  1  0
 12 13  1  0
 13 14  2  0
 13 15  1  0
 14 16  1  0
 15 17  2  0
 16 18  2  0
 17 18  1  0
 20 19  1  0
 22  4  1  0
M  RAD  8  14   2  15   2  16   2  17   2  18   2  19   3  20   2  22   2
V   21 *
V   23 *
M  END
>  <REMARK>  (1) 
 SMILES Nc1n[nH]c(Nc2ccccc2)c1-c1nnc2n1CCCCC2
 SMILES IDX 14 1 15 2 16 3 17 4 18 5 13 6 2 7 3 8 4 9 5 10 1 12 6 15
 SMILES IDX 7 17 8 18 12 19 9 20 11 21 10 22 19 23 20 24 21 25 23 27
 SMILES IDX 22 28
 H PARENT 4 11 1 13 1 14 6 16
 Flexibility Score:   48.900

>  <TORSDO>  (1) 
F 4

$$$$
