/home/pchatterjee/Documents/git/vs_workflow/DiffDock/diffdock_run/pdbqt_scrubbed/Z56840013.pdbqt
     RDKit          3D

 23 23  0  0  0  0  0  0  0  0999 V2000
    7.4520   45.9781   52.2143 C   0  0  0  0  0  0  0  0  0  0  0  0
    8.2716   46.4910   53.1663 N   0  0  0  0  0  0  0  0  0  0  0  0
    7.5831   47.0716   54.1273 N   0  0  0  0  0  0  0  0  0  0  0  0
    6.2913   46.9468   53.8180 C   0  0  0  0  0  0  0  0  0  0  0  0
    6.2238   46.2715   52.6363 N   0  0  0  0  0  0  0  0  0  0  0  0
    7.9628   45.3046   51.0452 C   0  0  0  0  0  0  0  0  0  0  0  0
    9.3219   45.1376   50.7995 C   0  0  0  0  0  0  0  0  0  0  0  0
    9.4961   44.4754   49.6293 N   0  0  0  0  0  0  0  0  0  0  0  0
    8.3039   44.2262   49.1451 N   0  0  0  0  0  0  0  0  0  0  0  0
    7.3365   44.7176   49.9846 C   0  0  0  0  0  0  0  0  0  0  0  0
   10.4342   45.5567   51.5837 N   0  0  0  0  0  0  0  0  0  0  0  0
    5.9703   44.5355   49.6791 N   0  0  0  0  0  0  0  0  0  0  0  0
    5.4375   43.2299   49.8921 C   0  0  0  0  0  0  0  0  0  0  0  0
    5.5628   42.3503   48.8229 C   0  0  0  0  0  3  0  0  0  0  0  0
    4.8356   42.8062   51.0516 C   0  0  0  0  0  3  0  0  0  0  0  0
    5.0944   41.0634   48.9008 C   0  0  0  0  0  3  0  0  0  0  0  0
    4.3542   41.5044   51.1521 C   0  0  0  0  0  3  0  0  0  0  0  0
    4.4929   40.6662   50.0824 C   0  0  0  0  0  3  0  0  0  0  0  0
    4.9845   45.9687   51.9965 C   0  0  0  0  0  2  0  0  0  0  0  0
    4.3113   47.1980   51.4339 C   0  0  0  0  0  1  0  0  0  0  0  0
    6.9594   44.7732   51.0822 *   0  0  0  0  0  0  0  0  0  0  0  0
    5.1416   47.4585   54.6334 C   0  0  0  0  0  1  0  0  0  0  0  0
    6.9594   44.7732   51.0822 *   0  0  0  0  0  0  0  0  0  0  0  0
  1  6  1  0
  2  1  2  0
  3  4  2  0
  3  2  1  0
  4  5  1  0
  5  1  1  0
  5 19  1  0
  6  7  1  0
  6 10  2  0
  7  8  2  0
  8  9  1  0
 10 12  1  0
 10  9  1  0
 11  7  1  0
 12 13  1  0
 13 14  2  0
 13 15  1  0
 14 16  1  0
 15 17  2  0
 16 18  2  0
 17 18  1  0
 20 19  1  0
 22  4  1  0
M  RAD  8  14   2  15   2  16   2  17   2  18   2  19   3  20   2  22   2
V   21 *
V   23 *
M  END
>  <REMARK>  (1) 
 SMILES Nc1n[nH]c(Nc2ccccc2)c1-c1nnc2n1CCCCC2
 SMILES IDX 14 1 15 2 16 3 17 4 18 5 13 6 2 7 3 8 4 9 5 10 1 12 6 15
 SMILES IDX 7 17 8 18 12 19 9 20 11 21 10 22 19 23 20 24 21 25 23 27
 SMILES IDX 22 28
 H PARENT 4 11 1 13 1 14 6 16
 Flexibility Score:   48.900

>  <TORSDO>  (1) 
F 4

$$$$
