/home/pchatterjee/Documents/git/vs_workflow/DiffDock/diffdock_run/pdbqt_scrubbed/4565.pdbqt
     RDKit          3D

 25 28  0  0  1  0  0  0  0  0999 V2000
    7.8600   43.4036   49.4967 C   0  0  0  0  0  0  0  0  0  0  0  0
    6.7591   44.0210   50.1481 N   0  0  0  0  0  0  0  0  0  0  0  0
    6.9646   45.0596   50.9260 C   0  0  0  0  0  0  0  0  0  0  0  0
    8.2392   45.5773   51.1208 C   0  0  0  0  0  3  0  0  0  0  0  0
    8.6869   46.4388   52.1037 N   0  0  0  0  0  0  0  0  0  0  0  0
   10.1285   46.6205   51.7630 C   0  0  0  0  0  2  0  0  0  0  0  0
   10.4232   45.5214   50.8450 N   0  0  0  0  0  0  0  0  0  0  0  0
    9.3484   44.9089   50.4657 C   0  0  0  0  0  0  0  0  0  0  0  0
    9.0812   43.7943   49.6211 N   0  0  0  0  0  0  0  0  0  0  0  0
    7.5876   42.2721   48.6467 N   0  0  0  0  0  0  0  0  0  0  0  0
    6.2428   41.8769   48.4808 C   0  0  0  0  0  0  0  0  0  0  0  0
    4.0648   41.5187   49.4607 C   0  0  0  0  0  0  0  0  0  0  0  0
    3.5569   41.1054   48.2282 C   0  0  0  0  0  3  0  0  0  0  0  0
    5.4039   41.9015   49.5783 C   0  0  0  0  0  3  0  0  0  0  0  0
    4.4033   41.0848   47.1396 C   0  0  0  0  0  3  0  0  0  0  0  0
    5.7187   41.4648   47.2730 C   0  0  0  0  0  3  0  0  0  0  0  0
    3.0213   41.5601   50.8735 Cl  0  0  0  0  0  0  0  0  0  0  0  0
    5.8243   45.5839   51.5173 O   0  0  0  0  0  0  0  0  0  0  0  0
    4.5980   44.8490   51.5355 C   0  0  0  0  0  2  0  0  0  0  0  0
    3.9120   45.2010   52.8296 C   0  0  0  0  0  3  0  0  0  0  0  0
    2.7248   44.3544   53.1526 C   0  0  0  0  0  2  0  0  0  0  0  0
    3.7062   46.6763   53.0231 C   0  0  0  0  0  2  0  0  0  0  0  0
    1.4407   44.8024   52.5047 C   0  0  0  0  0  2  0  0  0  0  0  0
    2.3022   47.1193   52.7042 C   0  0  0  0  0  2  0  0  0  0  0  0
    1.5581   46.1461   51.8378 C   0  0  0  0  0  2  0  0  0  0  0  0
  1  2  1  0
  2  3  2  0
  3 18  1  0
  4  8  1  0
  4  3  1  0
  5  4  1  0
  6  5  1  0
  7  6  1  0
  7  8  2  0
  9  8  1  0
  9  1  2  0
 10  1  1  0
 10 11  1  0
 11 16  1  0
 12 13  2  0
 13 15  1  0
 14 11  2  0
 14 12  1  0
 16 15  2  0
 17 12  1  0
 18 19  1  0
 19 20  1  0
 20 22  1  0
 20 21  1  0
 22 24  1  0
 23 21  1  0
 25 23  1  0
 25 24  1  0
M  RAD  8   4   2   6   3  13   2  14   2  15   2  16   2  19   3  20   2
M  RAD  5  21   3  22   3  23   3  24   3  25   3
M  END
>  <REMARK>  (1) 
 SMILES Clc1cccc(Nc2nc(OCC3CCCCC3)c3[nH]cnc3n2)c1
 SMILES IDX 8 1 9 2 10 3 19 4 20 5 21 6 22 7 23 8 24 9 7 11 6 13 2 14
 SMILES IDX 3 15 25 16 4 17 5 18 1 19 11 20 12 21 13 22 14 23 18 24
 SMILES IDX 15 25 17 26 16 27
 H PARENT 20 10 7 12

>  <TORSDO>  (1) 
F 5

$$$$
