/home/pchatterjee/Documents/git/vs_workflow/DiffDock/diffdock_run/pdbqt_scrubbed/4565.pdbqt
     RDKit          3D

 25 28  0  0  1  0  0  0  0  0999 V2000
   11.3618   67.5082   81.7982 C   0  0  0  0  0  0  0  0  0  0  0  0
   11.9252   66.4033   82.4904 N   0  0  0  0  0  0  0  0  0  0  0  0
   13.2203   66.3658   82.7080 C   0  0  0  0  0  0  0  0  0  0  0  0
   14.0559   67.3914   82.2830 C   0  0  0  0  0  3  0  0  0  0  0  0
   15.4308   67.3933   82.1484 N   0  0  0  0  0  0  0  0  0  0  0  0
   15.7214   68.7759   81.6677 C   0  0  0  0  0  2  0  0  0  0  0  0
   14.4269   69.2778   81.2094 N   0  0  0  0  0  0  0  0  0  0  0  0
   13.4569   68.4936   81.5533 C   0  0  0  0  0  0  0  0  0  0  0  0
   12.0478   68.5020   81.3495 N   0  0  0  0  0  0  0  0  0  0  0  0
    9.9360   67.5118   81.5883 N   0  0  0  0  0  0  0  0  0  0  0  0
    9.1587   66.5769   82.3053 C   0  0  0  0  0  0  0  0  0  0  0  0
    8.5460   64.2733   82.6933 C   0  0  0  0  0  0  0  0  0  0  0  0
    7.6470   64.6599   83.6884 C   0  0  0  0  0  3  0  0  0  0  0  0
    9.2954   65.2344   82.0089 C   0  0  0  0  0  3  0  0  0  0  0  0
    7.5188   66.0026   83.9758 C   0  0  0  0  0  3  0  0  0  0  0  0
    8.2642   66.9353   83.2924 C   0  0  0  0  0  3  0  0  0  0  0  0
    8.7407   62.5733   82.2952 Cl  0  0  0  0  0  0  0  0  0  0  0  0
   13.6683   65.2420   83.3872 O   0  0  0  0  0  0  0  0  0  0  0  0
   12.7548   64.2371   83.8343 C   0  0  0  0  0  2  0  0  0  0  0  0
   12.6776   64.3709   85.3328 C   0  0  0  0  0  3  0  0  0  0  0  0
   14.0025   64.4152   86.0207 C   0  0  0  0  0  2  0  0  0  0  0  0
   11.6661   63.4613   85.9697 C   0  0  0  0  0  2  0  0  0  0  0  0
   14.6059   63.0648   86.3060 C   0  0  0  0  0  2  0  0  0  0  0  0
   12.2861   62.2329   86.5828 C   0  0  0  0  0  2  0  0  0  0  0  0
   13.6534   61.9297   86.0442 C   0  0  0  0  0  2  0  0  0  0  0  0
  1  2  1  0
  2  3  2  0
  3 18  1  0
  4  8  1  0
  4  3  1  0
  5  4  1  0
  6  5  1  0
  7  6  1  0
  7  8  2  0
  9  8  1  0
  9  1  2  0
 10  1  1  0
 10 11  1  0
 11 16  1  0
 12 13  2  0
 13 15  1  0
 14 11  2  0
 14 12  1  0
 16 15  2  0
 17 12  1  0
 18 19  1  0
 19 20  1  0
 20 22  1  0
 20 21  1  0
 22 24  1  0
 23 21  1  0
 25 23  1  0
 25 24  1  0
M  RAD  8   4   2   6   3  13   2  14   2  15   2  16   2  19   3  20   2
M  RAD  5  21   3  22   3  23   3  24   3  25   3
M  END
>  <REMARK>  (1) 
 SMILES Clc1cccc(Nc2nc(OCC3CCCCC3)c3[nH]cnc3n2)c1
 SMILES IDX 8 1 9 2 10 3 19 4 20 5 21 6 22 7 23 8 24 9 7 11 6 13 2 14
 SMILES IDX 3 15 25 16 4 17 5 18 1 19 11 20 12 21 13 22 14 23 18 24
 SMILES IDX 15 25 17 26 16 27
 H PARENT 20 10 7 12

>  <TORSDO>  (1) 
F 5

$$$$
