/home/pchatterjee/Documents/git/vs_workflow/DiffDock/diffdock_run/pdbqt_scrubbed/4565.pdbqt
     RDKit          3D

 25 28  0  0  1  0  0  0  0  0999 V2000
    7.7989   43.3285   49.4444 C   0  0  0  0  0  0  0  0  0  0  0  0
    6.7308   43.9703   50.1261 N   0  0  0  0  0  0  0  0  0  0  0  0
    6.9846   44.9862   50.9196 C   0  0  0  0  0  0  0  0  0  0  0  0
    8.2793   45.4567   51.1018 C   0  0  0  0  0  3  0  0  0  0  0  0
    8.7725   46.2835   52.0926 N   0  0  0  0  0  0  0  0  0  0  0  0
   10.2135   46.4228   51.7304 C   0  0  0  0  0  2  0  0  0  0  0  0
   10.4552   45.3321   50.7871 N   0  0  0  0  0  0  0  0  0  0  0  0
    9.3539   44.7638   50.4152 C   0  0  0  0  0  0  0  0  0  0  0  0
    9.0347   43.6752   49.5549 N   0  0  0  0  0  0  0  0  0  0  0  0
    7.4740   42.2234   48.5784 N   0  0  0  0  0  0  0  0  0  0  0  0
    6.1207   41.8342   48.4807 C   0  0  0  0  0  0  0  0  0  0  0  0
    4.0320   41.3464   49.5905 C   0  0  0  0  0  0  0  0  0  0  0  0
    3.4245   41.0660   48.3657 C   0  0  0  0  0  3  0  0  0  0  0  0
    5.3755   41.7285   49.6393 C   0  0  0  0  0  3  0  0  0  0  0  0
    4.1778   41.1748   47.2157 C   0  0  0  0  0  3  0  0  0  0  0  0
    5.4991   41.5522   47.2819 C   0  0  0  0  0  3  0  0  0  0  0  0
    3.1091   41.2202   51.0800 Cl  0  0  0  0  0  0  0  0  0  0  0  0
    5.8730   45.5374   51.5402 O   0  0  0  0  0  0  0  0  0  0  0  0
    4.6835   44.7699   51.7407 C   0  0  0  0  0  2  0  0  0  0  0  0
    4.0304   45.3171   52.9831 C   0  0  0  0  0  3  0  0  0  0  0  0
    2.9427   44.4592   53.5413 C   0  0  0  0  0  2  0  0  0  0  0  0
    3.6994   46.7797   52.8980 C   0  0  0  0  0  2  0  0  0  0  0  0
    1.5935   44.6636   52.9031 C   0  0  0  0  0  2  0  0  0  0  0  0
    2.2471   47.0354   52.5906 C   0  0  0  0  0  2  0  0  0  0  0  0
    1.5551   45.8519   51.9807 C   0  0  0  0  0  2  0  0  0  0  0  0
  1  2  1  0
  2  3  2  0
  3 18  1  0
  4  8  1  0
  4  3  1  0
  5  4  1  0
  6  5  1  0
  7  6  1  0
  7  8  2  0
  9  8  1  0
  9  1  2  0
 10  1  1  0
 10 11  1  0
 11 16  1  0
 12 13  2  0
 13 15  1  0
 14 11  2  0
 14 12  1  0
 16 15  2  0
 17 12  1  0
 18 19  1  0
 19 20  1  0
 20 22  1  0
 20 21  1  0
 22 24  1  0
 23 21  1  0
 25 23  1  0
 25 24  1  0
M  RAD  8   4   2   6   3  13   2  14   2  15   2  16   2  19   3  20   2
M  RAD  5  21   3  22   3  23   3  24   3  25   3
M  END
>  <REMARK>  (1) 
 SMILES Clc1cccc(Nc2nc(OCC3CCCCC3)c3[nH]cnc3n2)c1
 SMILES IDX 8 1 9 2 10 3 19 4 20 5 21 6 22 7 23 8 24 9 7 11 6 13 2 14
 SMILES IDX 3 15 25 16 4 17 5 18 1 19 11 20 12 21 13 22 14 23 18 24
 SMILES IDX 15 25 17 26 16 27
 H PARENT 20 10 7 12

>  <TORSDO>  (1) 
F 5

$$$$
