/home/pchatterjee/Documents/git/vs_workflow/DiffDock/diffdock_run/pdbqt_scrubbed/4565.pdbqt
     RDKit          3D

 25 28  0  0  1  0  0  0  0  0999 V2000
    9.5424   62.4270   84.0169 C   0  0  0  0  0  0  0  0  0  0  0  0
    9.8593   63.6506   83.3689 N   0  0  0  0  0  0  0  0  0  0  0  0
    8.8910   64.4502   82.9829 C   0  0  0  0  0  0  0  0  0  0  0  0
    7.5568   64.1304   83.2028 C   0  0  0  0  0  3  0  0  0  0  0  0
    6.4260   64.6705   82.6214 N   0  0  0  0  0  0  0  0  0  0  0  0
    5.3164   63.9189   83.2780 C   0  0  0  0  0  2  0  0  0  0  0  0
    5.9725   62.7573   83.8764 N   0  0  0  0  0  0  0  0  0  0  0  0
    7.2618   62.8608   83.8412 C   0  0  0  0  0  0  0  0  0  0  0  0
    8.3406   62.0291   84.2552 N   0  0  0  0  0  0  0  0  0  0  0  0
   10.6360   61.5842   84.4301 N   0  0  0  0  0  0  0  0  0  0  0  0
   11.9095   62.1752   84.5749 C   0  0  0  0  0  0  0  0  0  0  0  0
   13.5272   63.2600   86.0027 C   0  0  0  0  0  0  0  0  0  0  0  0
   14.4250   63.3638   84.9392 C   0  0  0  0  0  3  0  0  0  0  0  0
   12.2760   62.6666   85.8131 C   0  0  0  0  0  3  0  0  0  0  0  0
   14.0486   62.8699   83.7078 C   0  0  0  0  0  3  0  0  0  0  0  0
   12.8132   62.2889   83.5387 C   0  0  0  0  0  3  0  0  0  0  0  0
   13.9661   63.8760   87.5884 Cl  0  0  0  0  0  0  0  0  0  0  0  0
    9.3079   65.6157   82.3563 O   0  0  0  0  0  0  0  0  0  0  0  0
   10.6957   65.8784   82.1344 C   0  0  0  0  0  2  0  0  0  0  0  0
   10.9032   67.3406   82.4316 C   0  0  0  0  0  3  0  0  0  0  0  0
    9.9216   68.2529   81.7723 C   0  0  0  0  0  2  0  0  0  0  0  0
   12.3363   67.7798   82.3350 C   0  0  0  0  0  2  0  0  0  0  0  0
   10.2690   68.6286   80.3554 C   0  0  0  0  0  2  0  0  0  0  0  0
   12.6482   68.4821   81.0394 C   0  0  0  0  0  2  0  0  0  0  0  0
   11.6522   68.1918   79.9553 C   0  0  0  0  0  2  0  0  0  0  0  0
  1  2  1  0
  2  3  2  0
  3 18  1  0
  4  8  1  0
  4  3  1  0
  5  4  1  0
  6  5  1  0
  7  6  1  0
  7  8  2  0
  9  8  1  0
  9  1  2  0
 10  1  1  0
 10 11  1  0
 11 16  1  0
 12 13  2  0
 13 15  1  0
 14 11  2  0
 14 12  1  0
 16 15  2  0
 17 12  1  0
 18 19  1  0
 19 20  1  0
 20 22  1  0
 20 21  1  0
 22 24  1  0
 23 21  1  0
 25 23  1  0
 25 24  1  0
M  RAD  8   4   2   6   3  13   2  14   2  15   2  16   2  19   3  20   2
M  RAD  5  21   3  22   3  23   3  24   3  25   3
M  END
>  <REMARK>  (1) 
 SMILES Clc1cccc(Nc2nc(OCC3CCCCC3)c3[nH]cnc3n2)c1
 SMILES IDX 8 1 9 2 10 3 19 4 20 5 21 6 22 7 23 8 24 9 7 11 6 13 2 14
 SMILES IDX 3 15 25 16 4 17 5 18 1 19 11 20 12 21 13 22 14 23 18 24
 SMILES IDX 15 25 17 26 16 27
 H PARENT 20 10 7 12

>  <TORSDO>  (1) 
F 5

$$$$
