/home/pchatterjee/Documents/git/vs_workflow/DiffDock/diffdock_run/pdbqt_scrubbed/4565.pdbqt
     RDKit          3D

 25 28  0  0  1  0  0  0  0  0999 V2000
    7.6422   43.3447   49.6078 C   0  0  0  0  0  0  0  0  0  0  0  0
    6.5516   44.0248   50.2126 N   0  0  0  0  0  0  0  0  0  0  0  0
    6.7738   45.1145   50.9121 C   0  0  0  0  0  0  0  0  0  0  0  0
    8.0563   45.6259   51.0678 C   0  0  0  0  0  3  0  0  0  0  0  0
    8.5183   46.5505   51.9846 N   0  0  0  0  0  0  0  0  0  0  0  0
    9.9619   46.6849   51.6308 C   0  0  0  0  0  2  0  0  0  0  0  0
   10.2388   45.5171   50.7959 N   0  0  0  0  0  0  0  0  0  0  0  0
    9.1544   44.8946   50.4630 C   0  0  0  0  0  0  0  0  0  0  0  0
    8.8693   43.7251   49.7028 N   0  0  0  0  0  0  0  0  0  0  0  0
    7.3516   42.1581   48.8434 N   0  0  0  0  0  0  0  0  0  0  0  0
    5.9974   41.8341   48.6124 C   0  0  0  0  0  0  0  0  0  0  0  0
    3.7452   41.6631   49.4672 C   0  0  0  0  0  0  0  0  0  0  0  0
    3.2890   41.2093   48.2287 C   0  0  0  0  0  3  0  0  0  0  0  0
    5.0959   41.9723   49.6502 C   0  0  0  0  0  3  0  0  0  0  0  0
    4.1977   41.0751   47.2000 C   0  0  0  0  0  3  0  0  0  0  0  0
    5.5236   41.3839   47.3975 C   0  0  0  0  0  3  0  0  0  0  0  0
    2.6216   41.8485   50.8050 Cl  0  0  0  0  0  0  0  0  0  0  0  0
    5.6424   45.6979   51.4637 O   0  0  0  0  0  0  0  0  0  0  0  0
    4.3330   45.2364   51.1220 C   0  0  0  0  0  2  0  0  0  0  0  0
    3.7796   44.5778   52.3587 C   0  0  0  0  0  3  0  0  0  0  0  0
    2.4689   43.8896   52.1612 C   0  0  0  0  0  2  0  0  0  0  0  0
    3.8628   45.4352   53.5892 C   0  0  0  0  0  2  0  0  0  0  0  0
    1.2661   44.7906   52.2647 C   0  0  0  0  0  2  0  0  0  0  0  0
    2.5550   46.1008   53.9296 C   0  0  0  0  0  2  0  0  0  0  0  0
    1.6061   46.1669   52.7692 C   0  0  0  0  0  2  0  0  0  0  0  0
  1  2  1  0
  2  3  2  0
  3 18  1  0
  4  8  1  0
  4  3  1  0
  5  4  1  0
  6  5  1  0
  7  6  1  0
  7  8  2  0
  9  8  1  0
  9  1  2  0
 10  1  1  0
 10 11  1  0
 11 16  1  0
 12 13  2  0
 13 15  1  0
 14 11  2  0
 14 12  1  0
 16 15  2  0
 17 12  1  0
 18 19  1  0
 19 20  1  0
 20 22  1  0
 20 21  1  0
 22 24  1  0
 23 21  1  0
 25 23  1  0
 25 24  1  0
M  RAD  8   4   2   6   3  13   2  14   2  15   2  16   2  19   3  20   2
M  RAD  5  21   3  22   3  23   3  24   3  25   3
M  END
>  <REMARK>  (1) 
 SMILES Clc1cccc(Nc2nc(OCC3CCCCC3)c3[nH]cnc3n2)c1
 SMILES IDX 8 1 9 2 10 3 19 4 20 5 21 6 22 7 23 8 24 9 7 11 6 13 2 14
 SMILES IDX 3 15 25 16 4 17 5 18 1 19 11 20 12 21 13 22 14 23 18 24
 SMILES IDX 15 25 17 26 16 27
 H PARENT 20 10 7 12

>  <TORSDO>  (1) 
F 5

$$$$
