/home/pchatterjee/Documents/git/vs_workflow/DiffDock/diffdock_run/pdbqt_scrubbed/4565.pdbqt
     RDKit          3D

 25 28  0  0  1  0  0  0  0  0999 V2000
    7.7762   43.4900   49.4281 C   0  0  0  0  0  0  0  0  0  0  0  0
    6.6968   44.1438   50.0799 N   0  0  0  0  0  0  0  0  0  0  0  0
    6.9375   45.1725   50.8609 C   0  0  0  0  0  0  0  0  0  0  0  0
    8.2291   45.6451   51.0583 C   0  0  0  0  0  3  0  0  0  0  0  0
    8.7054   46.4879   52.0440 N   0  0  0  0  0  0  0  0  0  0  0  0
   10.1528   46.6201   51.7052 C   0  0  0  0  0  2  0  0  0  0  0  0
   10.4102   45.5138   50.7846 N   0  0  0  0  0  0  0  0  0  0  0  0
    9.3151   44.9401   50.4026 C   0  0  0  0  0  0  0  0  0  0  0  0
    9.0102   43.8377   49.5548 N   0  0  0  0  0  0  0  0  0  0  0  0
    7.4656   42.3710   48.5748 N   0  0  0  0  0  0  0  0  0  0  0  0
    6.1141   41.9806   48.4603 C   0  0  0  0  0  0  0  0  0  0  0  0
    4.0083   41.5043   49.5425 C   0  0  0  0  0  0  0  0  0  0  0  0
    3.4199   41.2108   48.3115 C   0  0  0  0  0  3  0  0  0  0  0  0
    5.3510   41.8871   49.6082 C   0  0  0  0  0  3  0  0  0  0  0  0
    4.1911   41.3075   47.1723 C   0  0  0  0  0  3  0  0  0  0  0  0
    5.5111   41.6857   47.2550 C   0  0  0  0  0  3  0  0  0  0  0  0
    3.0623   41.3939   51.0188 Cl  0  0  0  0  0  0  0  0  0  0  0  0
    5.8155   45.7347   51.4523 O   0  0  0  0  0  0  0  0  0  0  0  0
    4.4986   45.3328   51.0671 C   0  0  0  0  0  2  0  0  0  0  0  0
    3.8698   44.7145   52.2885 C   0  0  0  0  0  3  0  0  0  0  0  0
    2.6085   43.9603   52.0225 C   0  0  0  0  0  2  0  0  0  0  0  0
    3.8159   45.6362   53.4732 C   0  0  0  0  0  2  0  0  0  0  0  0
    1.3667   44.8119   51.9783 C   0  0  0  0  0  2  0  0  0  0  0  0
    2.4589   46.2604   53.6691 C   0  0  0  0  0  2  0  0  0  0  0  0
    1.6086   46.2257   52.4333 C   0  0  0  0  0  2  0  0  0  0  0  0
  1  2  1  0
  2  3  2  0
  3 18  1  0
  4  8  1  0
  4  3  1  0
  5  4  1  0
  6  5  1  0
  7  6  1  0
  7  8  2  0
  9  8  1  0
  9  1  2  0
 10  1  1  0
 10 11  1  0
 11 16  1  0
 12 13  2  0
 13 15  1  0
 14 11  2  0
 14 12  1  0
 16 15  2  0
 17 12  1  0
 18 19  1  0
 19 20  1  0
 20 22  1  0
 20 21  1  0
 22 24  1  0
 23 21  1  0
 25 23  1  0
 25 24  1  0
M  RAD  8   4   2   6   3  13   2  14   2  15   2  16   2  19   3  20   2
M  RAD  5  21   3  22   3  23   3  24   3  25   3
M  END
>  <REMARK>  (1) 
 SMILES Clc1cccc(Nc2nc(OCC3CCCCC3)c3[nH]cnc3n2)c1
 SMILES IDX 8 1 9 2 10 3 19 4 20 5 21 6 22 7 23 8 24 9 7 11 6 13 2 14
 SMILES IDX 3 15 25 16 4 17 5 18 1 19 11 20 12 21 13 22 14 23 18 24
 SMILES IDX 15 25 17 26 16 27
 H PARENT 20 10 7 12

>  <TORSDO>  (1) 
F 5

$$$$
