/home/pchatterjee/Documents/git/vs_workflow/DiffDock/diffdock_run/pdbqt_scrubbed/4565.pdbqt
     RDKit          3D

 25 28  0  0  1  0  0  0  0  0999 V2000
    7.8269   43.4161   49.5701 C   0  0  0  0  0  0  0  0  0  0  0  0
    6.7780   44.0995   50.2412 N   0  0  0  0  0  0  0  0  0  0  0  0
    7.0591   45.1342   51.0004 C   0  0  0  0  0  0  0  0  0  0  0  0
    8.3643   45.5846   51.1562 C   0  0  0  0  0  3  0  0  0  0  0  0
    8.8829   46.4318   52.1164 N   0  0  0  0  0  0  0  0  0  0  0  0
   10.3228   46.5315   51.7371 C   0  0  0  0  0  2  0  0  0  0  0  0
   10.5342   45.4077   50.8260 N   0  0  0  0  0  0  0  0  0  0  0  0
    9.4186   44.8498   50.4818 C   0  0  0  0  0  0  0  0  0  0  0  0
    9.0701   43.7417   49.6586 N   0  0  0  0  0  0  0  0  0  0  0  0
    7.4722   42.2914   48.7418 N   0  0  0  0  0  0  0  0  0  0  0  0
    6.1322   41.8486   48.7645 C   0  0  0  0  0  0  0  0  0  0  0  0
    4.1711   41.1531   47.5386 C   0  0  0  0  0  0  0  0  0  0  0  0
    3.4690   40.9658   48.7301 C   0  0  0  0  0  3  0  0  0  0  0  0
    5.4975   41.5931   47.5641 C   0  0  0  0  0  3  0  0  0  0  0  0
    4.1125   41.2238   49.9222 C   0  0  0  0  0  3  0  0  0  0  0  0
    5.4184   41.6564   49.9292 C   0  0  0  0  0  3  0  0  0  0  0  0
    3.3896   40.8361   45.9974 Cl  0  0  0  0  0  0  0  0  0  0  0  0
    5.9643   45.7260   51.6136 O   0  0  0  0  0  0  0  0  0  0  0  0
    4.7857   44.9717   51.9069 C   0  0  0  0  0  2  0  0  0  0  0  0
    4.1156   45.6653   53.0641 C   0  0  0  0  0  3  0  0  0  0  0  0
    3.4717   44.7461   54.0496 C   0  0  0  0  0  2  0  0  0  0  0  0
    3.2770   46.8438   52.6594 C   0  0  0  0  0  2  0  0  0  0  0  0
    2.0791   44.3067   53.6796 C   0  0  0  0  0  2  0  0  0  0  0  0
    1.8053   46.5263   52.6080 C   0  0  0  0  0  2  0  0  0  0  0  0
    1.5214   45.0568   52.5004 C   0  0  0  0  0  2  0  0  0  0  0  0
  1  2  1  0
  2  3  2  0
  3 18  1  0
  4  8  1  0
  4  3  1  0
  5  4  1  0
  6  5  1  0
  7  6  1  0
  7  8  2  0
  9  8  1  0
  9  1  2  0
 10  1  1  0
 10 11  1  0
 11 16  1  0
 12 13  2  0
 13 15  1  0
 14 11  2  0
 14 12  1  0
 16 15  2  0
 17 12  1  0
 18 19  1  0
 19 20  1  0
 20 22  1  0
 20 21  1  0
 22 24  1  0
 23 21  1  0
 25 23  1  0
 25 24  1  0
M  RAD  8   4   2   6   3  13   2  14   2  15   2  16   2  19   3  20   2
M  RAD  5  21   3  22   3  23   3  24   3  25   3
M  END
>  <REMARK>  (1) 
 SMILES Clc1cccc(Nc2nc(OCC3CCCCC3)c3[nH]cnc3n2)c1
 SMILES IDX 8 1 9 2 10 3 19 4 20 5 21 6 22 7 23 8 24 9 7 11 6 13 2 14
 SMILES IDX 3 15 25 16 4 17 5 18 1 19 11 20 12 21 13 22 14 23 18 24
 SMILES IDX 15 25 17 26 16 27
 H PARENT 20 10 7 12

>  <TORSDO>  (1) 
F 5

$$$$
