/home/pchatterjee/Documents/git/vs_workflow/DiffDock/diffdock_run/pdbqt_scrubbed/4565.pdbqt
     RDKit          3D

 25 28  0  0  1  0  0  0  0  0999 V2000
    7.7589   43.5865   49.5329 C   0  0  0  0  0  0  0  0  0  0  0  0
    6.7506   44.2306   50.2984 N   0  0  0  0  0  0  0  0  0  0  0  0
    7.0727   45.2350   51.0818 C   0  0  0  0  0  0  0  0  0  0  0  0
    8.3820   45.6911   51.1730 C   0  0  0  0  0  3  0  0  0  0  0  0
    8.9554   46.5019   52.1334 N   0  0  0  0  0  0  0  0  0  0  0  0
   10.3672   46.6316   51.6673 C   0  0  0  0  0  2  0  0  0  0  0  0
   10.5274   45.5495   50.6972 N   0  0  0  0  0  0  0  0  0  0  0  0
    9.3959   44.9959   50.4016 C   0  0  0  0  0  0  0  0  0  0  0  0
    9.0030   43.9202   49.5556 N   0  0  0  0  0  0  0  0  0  0  0  0
    7.3596   42.4945   48.6815 N   0  0  0  0  0  0  0  0  0  0  0  0
    5.9946   42.1361   48.6604 C   0  0  0  0  0  0  0  0  0  0  0  0
    3.8829   41.9963   49.8239 C   0  0  0  0  0  0  0  0  0  0  0  0
    3.2745   41.4481   48.6938 C   0  0  0  0  0  3  0  0  0  0  0  0
    5.2384   42.3364   49.7993 C   0  0  0  0  0  3  0  0  0  0  0  0
    4.0390   41.2526   47.5627 C   0  0  0  0  0  3  0  0  0  0  0  0
    5.3718   41.5930   47.5557 C   0  0  0  0  0  3  0  0  0  0  0  0
    2.9462   42.2622   51.2862 Cl  0  0  0  0  0  0  0  0  0  0  0  0
    6.0155   45.7896   51.7886 O   0  0  0  0  0  0  0  0  0  0  0  0
    4.7061   45.2187   51.7265 C   0  0  0  0  0  2  0  0  0  0  0  0
    3.8022   46.1469   52.4950 C   0  0  0  0  0  3  0  0  0  0  0  0
    3.9779   46.0976   53.9773 C   0  0  0  0  0  2  0  0  0  0  0  0
    2.3748   46.1249   52.0279 C   0  0  0  0  0  2  0  0  0  0  0  0
    3.2102   44.9978   54.6631 C   0  0  0  0  0  2  0  0  0  0  0  0
    1.4827   45.2887   52.9078 C   0  0  0  0  0  2  0  0  0  0  0  0
    2.2388   44.3022   53.7483 C   0  0  0  0  0  2  0  0  0  0  0  0
  1  2  1  0
  2  3  2  0
  3 18  1  0
  4  8  1  0
  4  3  1  0
  5  4  1  0
  6  5  1  0
  7  6  1  0
  7  8  2  0
  9  8  1  0
  9  1  2  0
 10  1  1  0
 10 11  1  0
 11 16  1  0
 12 13  2  0
 13 15  1  0
 14 11  2  0
 14 12  1  0
 16 15  2  0
 17 12  1  0
 18 19  1  0
 19 20  1  0
 20 22  1  0
 20 21  1  0
 22 24  1  0
 23 21  1  0
 25 23  1  0
 25 24  1  0
M  RAD  8   4   2   6   3  13   2  14   2  15   2  16   2  19   3  20   2
M  RAD  5  21   3  22   3  23   3  24   3  25   3
M  END
>  <REMARK>  (1) 
 SMILES Clc1cccc(Nc2nc(OCC3CCCCC3)c3[nH]cnc3n2)c1
 SMILES IDX 8 1 9 2 10 3 19 4 20 5 21 6 22 7 23 8 24 9 7 11 6 13 2 14
 SMILES IDX 3 15 25 16 4 17 5 18 1 19 11 20 12 21 13 22 14 23 18 24
 SMILES IDX 15 25 17 26 16 27
 H PARENT 20 10 7 12

>  <TORSDO>  (1) 
F 5

$$$$
