/home/pchatterjee/Documents/git/vs_workflow/DiffDock/diffdock_run/pdbqt_scrubbed/4565.pdbqt
     RDKit          3D

 25 28  0  0  1  0  0  0  0  0999 V2000
    7.7229   43.3914   49.4185 C   0  0  0  0  0  0  0  0  0  0  0  0
    6.6320   44.0341   50.0624 N   0  0  0  0  0  0  0  0  0  0  0  0
    6.8533   45.0829   50.8221 C   0  0  0  0  0  0  0  0  0  0  0  0
    8.1351   45.5873   51.0045 C   0  0  0  0  0  3  0  0  0  0  0  0
    8.5969   46.4594   51.9714 N   0  0  0  0  0  0  0  0  0  0  0  0
   10.0396   46.6165   51.6236 C   0  0  0  0  0  2  0  0  0  0  0  0
   10.3174   45.4982   50.7236 N   0  0  0  0  0  0  0  0  0  0  0  0
    9.2336   44.8935   50.3577 C   0  0  0  0  0  0  0  0  0  0  0  0
    8.9494   43.7683   49.5329 N   0  0  0  0  0  0  0  0  0  0  0  0
    7.4333   42.2494   48.5886 N   0  0  0  0  0  0  0  0  0  0  0  0
    6.0863   41.8473   48.4619 C   0  0  0  0  0  0  0  0  0  0  0  0
    3.9684   41.3758   49.5224 C   0  0  0  0  0  0  0  0  0  0  0  0
    3.4000   41.0555   48.2886 C   0  0  0  0  0  3  0  0  0  0  0  0
    5.3073   41.7694   49.6003 C   0  0  0  0  0  3  0  0  0  0  0  0
    4.1869   41.1368   47.1590 C   0  0  0  0  0  3  0  0  0  0  0  0
    5.5030   41.5259   47.2537 C   0  0  0  0  0  3  0  0  0  0  0  0
    3.0019   41.2858   50.9867 Cl  0  0  0  0  0  0  0  0  0  0  0  0
    5.7217   45.6319   51.4075 O   0  0  0  0  0  0  0  0  0  0  0  0
    4.4843   44.9161   51.4358 C   0  0  0  0  0  2  0  0  0  0  0  0
    3.8318   45.2494   52.7521 C   0  0  0  0  0  3  0  0  0  0  0  0
    2.6396   44.4129   53.0827 C   0  0  0  0  0  2  0  0  0  0  0  0
    3.6522   46.7228   52.9820 C   0  0  0  0  0  2  0  0  0  0  0  0
    1.3485   44.8934   52.4732 C   0  0  0  0  0  2  0  0  0  0  0  0
    2.2483   47.1928   52.7038 C   0  0  0  0  0  2  0  0  0  0  0  0
    1.4712   46.2497   51.8330 C   0  0  0  0  0  2  0  0  0  0  0  0
  1  2  1  0
  2  3  2  0
  3 18  1  0
  4  8  1  0
  4  3  1  0
  5  4  1  0
  6  5  1  0
  7  6  1  0
  7  8  2  0
  9  8  1  0
  9  1  2  0
 10  1  1  0
 10 11  1  0
 11 16  1  0
 12 13  2  0
 13 15  1  0
 14 11  2  0
 14 12  1  0
 16 15  2  0
 17 12  1  0
 18 19  1  0
 19 20  1  0
 20 22  1  0
 20 21  1  0
 22 24  1  0
 23 21  1  0
 25 23  1  0
 25 24  1  0
M  RAD  8   4   2   6   3  13   2  14   2  15   2  16   2  19   3  20   2
M  RAD  5  21   3  22   3  23   3  24   3  25   3
M  END
>  <REMARK>  (1) 
 SMILES Clc1cccc(Nc2nc(OCC3CCCCC3)c3[nH]cnc3n2)c1
 SMILES IDX 8 1 9 2 10 3 19 4 20 5 21 6 22 7 23 8 24 9 7 11 6 13 2 14
 SMILES IDX 3 15 25 16 4 17 5 18 1 19 11 20 12 21 13 22 14 23 18 24
 SMILES IDX 15 25 17 26 16 27
 H PARENT 20 10 7 12

>  <TORSDO>  (1) 
F 5

$$$$
