/home/pchatterjee/Documents/git/vs_workflow/DiffDock/diffdock_run/pdbqt_scrubbed/4565.pdbqt
     RDKit          3D

 25 28  0  0  1  0  0  0  0  0999 V2000
    7.7316   43.5268   49.4421 C   0  0  0  0  0  0  0  0  0  0  0  0
    6.7372   44.2472   50.1560 N   0  0  0  0  0  0  0  0  0  0  0  0
    7.0897   45.2557   50.9207 C   0  0  0  0  0  0  0  0  0  0  0  0
    8.4188   45.6428   51.0414 C   0  0  0  0  0  3  0  0  0  0  0  0
    9.0060   46.4498   51.9967 N   0  0  0  0  0  0  0  0  0  0  0  0
   10.4365   46.4888   51.5731 C   0  0  0  0  0  2  0  0  0  0  0  0
   10.5668   45.3710   50.6397 N   0  0  0  0  0  0  0  0  0  0  0  0
    9.4161   44.8709   50.3232 C   0  0  0  0  0  0  0  0  0  0  0  0
    8.9909   43.7932   49.4957 N   0  0  0  0  0  0  0  0  0  0  0  0
    7.2992   42.4330   48.6094 N   0  0  0  0  0  0  0  0  0  0  0  0
    5.9401   42.0562   48.6639 C   0  0  0  0  0  0  0  0  0  0  0  0
    3.9196   41.8149   49.9646 C   0  0  0  0  0  0  0  0  0  0  0  0
    3.2370   41.3268   48.8494 C   0  0  0  0  0  3  0  0  0  0  0  0
    5.2661   42.1760   49.8641 C   0  0  0  0  0  3  0  0  0  0  0  0
    3.9197   41.2114   47.6568 C   0  0  0  0  0  3  0  0  0  0  0  0
    5.2449   41.5715   47.5754 C   0  0  0  0  0  3  0  0  0  0  0  0
    3.0881   41.9781   51.5037 Cl  0  0  0  0  0  0  0  0  0  0  0  0
    6.0434   45.8877   51.5769 O   0  0  0  0  0  0  0  0  0  0  0  0
    4.7691   45.2543   51.7151 C   0  0  0  0  0  2  0  0  0  0  0  0
    3.9541   46.1357   52.6253 C   0  0  0  0  0  3  0  0  0  0  0  0
    3.7400   45.5825   53.9959 C   0  0  0  0  0  2  0  0  0  0  0  0
    2.7251   46.7040   51.9752 C   0  0  0  0  0  2  0  0  0  0  0  0
    2.5846   44.6227   54.1108 C   0  0  0  0  0  2  0  0  0  0  0  0
    1.4685   45.9606   52.3461 C   0  0  0  0  0  2  0  0  0  0  0  0
    1.7321   44.5801   52.8716 C   0  0  0  0  0  2  0  0  0  0  0  0
  1  2  1  0
  2  3  2  0
  3 18  1  0
  4  8  1  0
  4  3  1  0
  5  4  1  0
  6  5  1  0
  7  6  1  0
  7  8  2  0
  9  8  1  0
  9  1  2  0
 10  1  1  0
 10 11  1  0
 11 16  1  0
 12 13  2  0
 13 15  1  0
 14 11  2  0
 14 12  1  0
 16 15  2  0
 17 12  1  0
 18 19  1  0
 19 20  1  0
 20 22  1  0
 20 21  1  0
 22 24  1  0
 23 21  1  0
 25 23  1  0
 25 24  1  0
M  RAD  8   4   2   6   3  13   2  14   2  15   2  16   2  19   3  20   2
M  RAD  5  21   3  22   3  23   3  24   3  25   3
M  END
>  <REMARK>  (1) 
 SMILES Clc1cccc(Nc2nc(OCC3CCCCC3)c3[nH]cnc3n2)c1
 SMILES IDX 8 1 9 2 10 3 19 4 20 5 21 6 22 7 23 8 24 9 7 11 6 13 2 14
 SMILES IDX 3 15 25 16 4 17 5 18 1 19 11 20 12 21 13 22 14 23 18 24
 SMILES IDX 15 25 17 26 16 27
 H PARENT 20 10 7 12

>  <TORSDO>  (1) 
F 5

$$$$
