/home/pchatterjee/Documents/git/vs_workflow/DiffDock/diffdock_run/pdbqt_scrubbed/5329520.pdbqt
     RDKit          3D

 19 21  0  0  1  0  0  0  0  0999 V2000
    6.2996   45.8537   51.7974 O   0  0  0  0  0  0  0  0  0  0  0  0
    7.1642   45.0293   51.0856 C   0  0  0  0  0  0  0  0  0  0  0  0
    7.6782   43.4776   49.3232 C   0  0  0  0  0  3  0  0  0  0  0  0
    6.7560   44.3330   50.0522 N   0  0  0  0  0  0  0  0  0  0  0  0
    8.9099   44.2628   49.1610 N   0  0  0  0  0  0  0  0  0  0  0  0
    9.3724   44.9409   50.1620 C   0  0  0  0  0  0  0  0  0  0  0  0
    8.6016   44.8715   51.4325 C   0  0  0  0  0  3  0  0  0  0  0  0
   10.4694   45.7848   50.4181 N   0  0  0  0  0  0  0  0  0  0  0  0
    9.1339   45.9396   52.2187 N   0  0  0  0  0  0  0  0  0  0  0  0
   10.3414   46.3483   51.5710 C   0  0  0  0  0  3  0  0  0  0  0  0
    7.9968   42.2570   50.0419 N   0  0  0  0  0  0  0  0  0  0  0  0
    4.9688   45.4077   51.9671 C   0  0  0  0  0  2  0  0  0  0  0  0
    4.3969   45.9220   53.2450 C   0  0  0  0  0  2  0  0  0  0  0  0
    2.9746   45.5126   53.4262 C   0  0  0  0  0  0  0  0  0  0  0  0
    2.6077   44.6182   54.4075 C   0  0  0  0  0  3  0  0  0  0  0  0
    2.0125   46.0430   52.5923 C   0  0  0  0  0  3  0  0  0  0  0  0
    1.2710   44.2852   54.5164 C   0  0  0  0  0  3  0  0  0  0  0  0
    0.6850   45.7104   52.7029 C   0  0  0  0  0  3  0  0  0  0  0  0
    0.3211   44.8158   53.6851 C   0  0  0  0  0  3  0  0  0  0  0  0
  2  1  1  0
  3 11  1  0
  3  4  1  0
  4  2  2  0
  5  3  1  0
  5  6  2  0
  7  6  1  0
  7  9  1  0
  7  2  1  0
  8  6  1  0
  8 10  2  0
 10  9  1  0
 12 13  1  0
 12  1  1  0
 14 13  1  0
 14 15  2  0
 16 14  1  0
 17 15  1  0
 18 16  2  0
 18 19  1  0
 19 17  2  0
M  RAD  8   3   2   7   2  10   2  12   3  13   3  15   2  16   2  17   2
M  RAD  2  18   2  19   2
M  END
>  <REMARK>  (1) 
 SMILES Nc1nc(OCCc2ccccc2)c2[nH]cnc2n1
 SMILES IDX 5 1 4 2 2 3 3 4 19 5 18 6 14 7 17 8 15 9 16 10 1 12 6 15
 SMILES IDX 7 16 8 17 9 18 13 19 10 20 12 21 11 22
 H PARENT 15 11 1 13 1 14

>  <TORSDO>  (1) 
F 5

$$$$
