/home/pchatterjee/Documents/git/vs_workflow/DiffDock/diffdock_run/pdbqt_scrubbed/5329520.pdbqt
     RDKit          3D

 19 21  0  0  1  0  0  0  0  0999 V2000
    6.2731   45.8798   51.8418 O   0  0  0  0  0  0  0  0  0  0  0  0
    7.1196   45.0344   51.1327 C   0  0  0  0  0  0  0  0  0  0  0  0
    7.6151   43.5109   49.3406 C   0  0  0  0  0  3  0  0  0  0  0  0
    6.7121   44.3896   50.0661 N   0  0  0  0  0  0  0  0  0  0  0  0
    8.8882   44.2385   49.2413 N   0  0  0  0  0  0  0  0  0  0  0  0
    9.3500   44.8635   50.2765 C   0  0  0  0  0  0  0  0  0  0  0  0
    8.5354   44.7956   51.5194 C   0  0  0  0  0  3  0  0  0  0  0  0
   10.4778   45.6442   50.5926 N   0  0  0  0  0  0  0  0  0  0  0  0
    9.0929   45.8128   52.3542 N   0  0  0  0  0  0  0  0  0  0  0  0
   10.3395   46.1797   51.7575 C   0  0  0  0  0  3  0  0  0  0  0  0
    7.8502   42.2557   50.0314 N   0  0  0  0  0  0  0  0  0  0  0  0
    4.9333   45.4628   52.0141 C   0  0  0  0  0  2  0  0  0  0  0  0
    4.3731   45.9947   53.2899 C   0  0  0  0  0  2  0  0  0  0  0  0
    2.9569   45.5764   53.4965 C   0  0  0  0  0  0  0  0  0  0  0  0
    1.9533   46.0135   52.6603 C   0  0  0  0  0  3  0  0  0  0  0  0
    2.6522   44.7356   54.5465 C   0  0  0  0  0  3  0  0  0  0  0  0
    0.6642   45.5845   52.9128 C   0  0  0  0  0  3  0  0  0  0  0  0
    1.3703   44.3110   54.7950 C   0  0  0  0  0  3  0  0  0  0  0  0
    0.3688   44.7497   53.9572 C   0  0  0  0  0  3  0  0  0  0  0  0
  2  1  1  0
  3 11  1  0
  3  4  1  0
  4  2  2  0
  5  3  1  0
  5  6  2  0
  7  6  1  0
  7  9  1  0
  7  2  1  0
  8  6  1  0
  8 10  2  0
 10  9  1  0
 12 13  1  0
 12  1  1  0
 14 13  1  0
 14 15  2  0
 16 14  1  0
 17 15  1  0
 18 16  2  0
 18 19  1  0
 19 17  2  0
M  RAD  8   3   2   7   2  10   2  12   3  13   3  15   2  16   2  17   2
M  RAD  2  18   2  19   2
M  END
>  <REMARK>  (1) 
 SMILES Nc1nc(OCCc2ccccc2)c2[nH]cnc2n1
 SMILES IDX 5 1 4 2 2 3 3 4 19 5 18 6 14 7 17 8 15 9 16 10 1 12 6 15
 SMILES IDX 7 16 8 17 9 18 13 19 10 20 12 21 11 22
 H PARENT 15 11 1 13 1 14

>  <TORSDO>  (1) 
F 5

$$$$
