/home/pchatterjee/Documents/git/vs_workflow/DiffDock/diffdock_run/pdbqt_scrubbed/5329520.pdbqt
     RDKit          3D

 19 21  0  0  1  0  0  0  0  0999 V2000
    6.2458   46.0556   51.6481 O   0  0  0  0  0  0  0  0  0  0  0  0
    7.0612   45.1859   50.9322 C   0  0  0  0  0  0  0  0  0  0  0  0
    7.4992   43.6540   49.1323 C   0  0  0  0  0  3  0  0  0  0  0  0
    6.6285   44.5588   49.8650 N   0  0  0  0  0  0  0  0  0  0  0  0
    8.7950   44.3400   49.0302 N   0  0  0  0  0  0  0  0  0  0  0  0
    9.2813   44.9457   50.0658 C   0  0  0  0  0  0  0  0  0  0  0  0
    8.4701   44.8995   51.3119 C   0  0  0  0  0  3  0  0  0  0  0  0
   10.4352   45.6879   50.3799 N   0  0  0  0  0  0  0  0  0  0  0  0
    9.0640   45.8948   52.1481 N   0  0  0  0  0  0  0  0  0  0  0  0
   10.3194   46.2231   51.5474 C   0  0  0  0  0  3  0  0  0  0  0  0
    7.6961   42.3891   49.8174 N   0  0  0  0  0  0  0  0  0  0  0  0
    4.9047   45.6622   51.8610 C   0  0  0  0  0  2  0  0  0  0  0  0
    4.3415   46.3326   53.0685 C   0  0  0  0  0  2  0  0  0  0  0  0
    2.9747   45.8359   53.3977 C   0  0  0  0  0  0  0  0  0  0  0  0
    2.7539   45.0174   54.4835 C   0  0  0  0  0  3  0  0  0  0  0  0
    1.9152   46.2065   52.5961 C   0  0  0  0  0  3  0  0  0  0  0  0
    1.4607   44.5960   54.7272 C   0  0  0  0  0  3  0  0  0  0  0  0
    0.6312   45.7861   52.8408 C   0  0  0  0  0  3  0  0  0  0  0  0
    0.4135   44.9678   53.9271 C   0  0  0  0  0  3  0  0  0  0  0  0
  2  1  1  0
  3 11  1  0
  3  4  1  0
  4  2  2  0
  5  3  1  0
  5  6  2  0
  7  6  1  0
  7  9  1  0
  7  2  1  0
  8  6  1  0
  8 10  2  0
 10  9  1  0
 12 13  1  0
 12  1  1  0
 14 13  1  0
 14 15  2  0
 16 14  1  0
 17 15  1  0
 18 16  2  0
 18 19  1  0
 19 17  2  0
M  RAD  8   3   2   7   2  10   2  12   3  13   3  15   2  16   2  17   2
M  RAD  2  18   2  19   2
M  END
>  <REMARK>  (1) 
 SMILES Nc1nc(OCCc2ccccc2)c2[nH]cnc2n1
 SMILES IDX 5 1 4 2 2 3 3 4 19 5 18 6 14 7 17 8 15 9 16 10 1 12 6 15
 SMILES IDX 7 16 8 17 9 18 13 19 10 20 12 21 11 22
 H PARENT 15 11 1 13 1 14

>  <TORSDO>  (1) 
F 5

$$$$
