/home/pchatterjee/Documents/git/vs_workflow/DiffDock/diffdock_run/pdbqt_scrubbed/5329520.pdbqt
     RDKit          3D

 19 21  0  0  1  0  0  0  0  0999 V2000
    6.2626   46.0747   51.7490 O   0  0  0  0  0  0  0  0  0  0  0  0
    7.0510   45.1923   51.0185 C   0  0  0  0  0  0  0  0  0  0  0  0
    7.4029   43.5742   49.2761 C   0  0  0  0  0  3  0  0  0  0  0  0
    6.5594   44.4907   50.0258 N   0  0  0  0  0  0  0  0  0  0  0  0
    8.6601   44.2953   49.0322 N   0  0  0  0  0  0  0  0  0  0  0  0
    9.2034   44.9754   49.9903 C   0  0  0  0  0  0  0  0  0  0  0  0
    8.4951   44.9747   51.2985 C   0  0  0  0  0  3  0  0  0  0  0  0
   10.3500   45.7721   50.1690 N   0  0  0  0  0  0  0  0  0  0  0  0
    9.1155   46.0356   52.0280 N   0  0  0  0  0  0  0  0  0  0  0  0
   10.3066   46.3697   51.3109 C   0  0  0  0  0  3  0  0  0  0  0  0
    7.7002   42.3581   50.0115 N   0  0  0  0  0  0  0  0  0  0  0  0
    4.9276   45.6898   52.0103 C   0  0  0  0  0  2  0  0  0  0  0  0
    4.4670   46.2323   53.3211 C   0  0  0  0  0  2  0  0  0  0  0  0
    3.0380   45.9033   53.5917 C   0  0  0  0  0  0  0  0  0  0  0  0
    2.6834   45.0318   54.5978 C   0  0  0  0  0  3  0  0  0  0  0  0
    2.0572   46.4858   52.8164 C   0  0  0  0  0  3  0  0  0  0  0  0
    1.3395   44.7743   54.7906 C   0  0  0  0  0  3  0  0  0  0  0  0
    0.7226   46.2280   53.0104 C   0  0  0  0  0  3  0  0  0  0  0  0
    0.3709   45.3562   54.0171 C   0  0  0  0  0  3  0  0  0  0  0  0
  2  1  1  0
  3 11  1  0
  3  4  1  0
  4  2  2  0
  5  3  1  0
  5  6  2  0
  7  6  1  0
  7  9  1  0
  7  2  1  0
  8  6  1  0
  8 10  2  0
 10  9  1  0
 12 13  1  0
 12  1  1  0
 14 13  1  0
 14 15  2  0
 16 14  1  0
 17 15  1  0
 18 16  2  0
 18 19  1  0
 19 17  2  0
M  RAD  8   3   2   7   2  10   2  12   3  13   3  15   2  16   2  17   2
M  RAD  2  18   2  19   2
M  END
>  <REMARK>  (1) 
 SMILES Nc1nc(OCCc2ccccc2)c2[nH]cnc2n1
 SMILES IDX 5 1 4 2 2 3 3 4 19 5 18 6 14 7 17 8 15 9 16 10 1 12 6 15
 SMILES IDX 7 16 8 17 9 18 13 19 10 20 12 21 11 22
 H PARENT 15 11 1 13 1 14

>  <TORSDO>  (1) 
F 5

$$$$
