/home/pchatterjee/Documents/git/vs_workflow/DiffDock/diffdock_run/pdbqt_scrubbed/5329520.pdbqt
     RDKit          3D

 19 21  0  0  1  0  0  0  0  0999 V2000
    6.2912   45.8949   51.9685 O   0  0  0  0  0  0  0  0  0  0  0  0
    7.1529   45.0960   51.2248 C   0  0  0  0  0  0  0  0  0  0  0  0
    7.6505   43.5732   49.4328 C   0  0  0  0  0  3  0  0  0  0  0  0
    6.7311   44.4017   50.1956 N   0  0  0  0  0  0  0  0  0  0  0  0
    8.8608   44.3859   49.2454 N   0  0  0  0  0  0  0  0  0  0  0  0
    9.3363   45.0636   50.2405 C   0  0  0  0  0  0  0  0  0  0  0  0
    8.6022   44.9652   51.5307 C   0  0  0  0  0  3  0  0  0  0  0  0
   10.4221   45.9279   50.4756 N   0  0  0  0  0  0  0  0  0  0  0  0
    9.1336   46.0365   52.3133 N   0  0  0  0  0  0  0  0  0  0  0  0
   10.3141   46.4770   51.6374 C   0  0  0  0  0  3  0  0  0  0  0  0
    8.0141   42.3525   50.1296 N   0  0  0  0  0  0  0  0  0  0  0  0
    4.9594   45.4462   52.1225 C   0  0  0  0  0  2  0  0  0  0  0  0
    4.4027   45.8811   53.4361 C   0  0  0  0  0  2  0  0  0  0  0  0
    2.9573   45.5406   53.5715 C   0  0  0  0  0  0  0  0  0  0  0  0
    2.0221   46.0279   52.6852 C   0  0  0  0  0  3  0  0  0  0  0  0
    2.5552   44.7216   54.6058 C   0  0  0  0  0  3  0  0  0  0  0  0
    0.7007   45.6701   52.8729 C   0  0  0  0  0  3  0  0  0  0  0  0
    1.2413   44.3677   54.7899 C   0  0  0  0  0  3  0  0  0  0  0  0
    0.3084   44.8565   53.9021 C   0  0  0  0  0  3  0  0  0  0  0  0
  2  1  1  0
  3 11  1  0
  3  4  1  0
  4  2  2  0
  5  3  1  0
  5  6  2  0
  7  6  1  0
  7  9  1  0
  7  2  1  0
  8  6  1  0
  8 10  2  0
 10  9  1  0
 12 13  1  0
 12  1  1  0
 14 13  1  0
 14 15  2  0
 16 14  1  0
 17 15  1  0
 18 16  2  0
 18 19  1  0
 19 17  2  0
M  RAD  8   3   2   7   2  10   2  12   3  13   3  15   2  16   2  17   2
M  RAD  2  18   2  19   2
M  END
>  <REMARK>  (1) 
 SMILES Nc1nc(OCCc2ccccc2)c2[nH]cnc2n1
 SMILES IDX 5 1 4 2 2 3 3 4 19 5 18 6 14 7 17 8 15 9 16 10 1 12 6 15
 SMILES IDX 7 16 8 17 9 18 13 19 10 20 12 21 11 22
 H PARENT 15 11 1 13 1 14

>  <TORSDO>  (1) 
F 5

$$$$
