/home/pchatterjee/Documents/git/vs_workflow/DiffDock/diffdock_run/pdbqt_scrubbed/5329520.pdbqt
     RDKit          3D

 19 21  0  0  1  0  0  0  0  0999 V2000
    6.2881   45.8834   51.8765 O   0  0  0  0  0  0  0  0  0  0  0  0
    7.1188   45.0474   51.1384 C   0  0  0  0  0  0  0  0  0  0  0  0
    7.5651   43.5173   49.3390 C   0  0  0  0  0  3  0  0  0  0  0  0
    6.6780   44.3858   50.0956 N   0  0  0  0  0  0  0  0  0  0  0  0
    8.8191   44.2669   49.1790 N   0  0  0  0  0  0  0  0  0  0  0  0
    9.3133   44.9094   50.1884 C   0  0  0  0  0  0  0  0  0  0  0  0
    8.5541   44.8376   51.4657 C   0  0  0  0  0  3  0  0  0  0  0  0
   10.4389   45.7131   50.4492 N   0  0  0  0  0  0  0  0  0  0  0  0
    9.1281   45.8722   52.2675 N   0  0  0  0  0  0  0  0  0  0  0  0
   10.3409   46.2563   51.6147 C   0  0  0  0  0  3  0  0  0  0  0  0
    7.8528   42.2727   50.0291 N   0  0  0  0  0  0  0  0  0  0  0  0
    4.9547   45.4600   52.0798 C   0  0  0  0  0  2  0  0  0  0  0  0
    4.4122   46.0125   53.3546 C   0  0  0  0  0  2  0  0  0  0  0  0
    3.0025   45.5889   53.5929 C   0  0  0  0  0  0  0  0  0  0  0  0
    2.6825   44.7035   54.5984 C   0  0  0  0  0  3  0  0  0  0  0  0
    2.0044   46.0968   52.7878 C   0  0  0  0  0  3  0  0  0  0  0  0
    1.3548   44.3564   54.7603 C   0  0  0  0  0  3  0  0  0  0  0  0
    0.6860   45.7501   52.9511 C   0  0  0  0  0  3  0  0  0  0  0  0
    0.3689   44.8645   53.9573 C   0  0  0  0  0  3  0  0  0  0  0  0
  2  1  1  0
  3 11  1  0
  3  4  1  0
  4  2  2  0
  5  3  1  0
  5  6  2  0
  7  6  1  0
  7  9  1  0
  7  2  1  0
  8  6  1  0
  8 10  2  0
 10  9  1  0
 12 13  1  0
 12  1  1  0
 14 13  1  0
 14 15  2  0
 16 14  1  0
 17 15  1  0
 18 16  2  0
 18 19  1  0
 19 17  2  0
M  RAD  8   3   2   7   2  10   2  12   3  13   3  15   2  16   2  17   2
M  RAD  2  18   2  19   2
M  END
>  <REMARK>  (1) 
 SMILES Nc1nc(OCCc2ccccc2)c2[nH]cnc2n1
 SMILES IDX 5 1 4 2 2 3 3 4 19 5 18 6 14 7 17 8 15 9 16 10 1 12 6 15
 SMILES IDX 7 16 8 17 9 18 13 19 10 20 12 21 11 22
 H PARENT 15 11 1 13 1 14

>  <TORSDO>  (1) 
F 5

$$$$
