/home/pchatterjee/Documents/git/vs_workflow/DiffDock/diffdock_run/pdbqt_scrubbed/5329520.pdbqt
     RDKit          3D

 19 21  0  0  1  0  0  0  0  0999 V2000
    6.1489   45.8426   51.7749 O   0  0  0  0  0  0  0  0  0  0  0  0
    7.0373   45.0897   51.0148 C   0  0  0  0  0  0  0  0  0  0  0  0
    7.5847   43.6165   49.1960 C   0  0  0  0  0  3  0  0  0  0  0  0
    6.6376   44.3964   49.9760 N   0  0  0  0  0  0  0  0  0  0  0  0
    8.7619   44.4781   49.0171 N   0  0  0  0  0  0  0  0  0  0  0  0
    9.2157   45.1574   50.0213 C   0  0  0  0  0  0  0  0  0  0  0  0
    8.4919   45.0098   51.3126 C   0  0  0  0  0  3  0  0  0  0  0  0
   10.2685   46.0589   50.2661 N   0  0  0  0  0  0  0  0  0  0  0  0
    8.9853   46.0879   52.1106 N   0  0  0  0  0  0  0  0  0  0  0  0
   10.1449   46.5845   51.4371 C   0  0  0  0  0  3  0  0  0  0  0  0
    7.9982   42.3995   49.8713 N   0  0  0  0  0  0  0  0  0  0  0  0
    4.8201   45.3710   51.8781 C   0  0  0  0  0  2  0  0  0  0  0  0
    4.2918   45.5740   53.2580 C   0  0  0  0  0  2  0  0  0  0  0  0
    2.8287   45.2994   53.3429 C   0  0  0  0  0  0  0  0  0  0  0  0
    1.9047   46.1832   52.8303 C   0  0  0  0  0  3  0  0  0  0  0  0
    2.3984   44.1367   53.9473 C   0  0  0  0  0  3  0  0  0  0  0  0
    0.5655   45.8625   52.9452 C   0  0  0  0  0  3  0  0  0  0  0  0
    1.0670   43.8207   54.0600 C   0  0  0  0  0  3  0  0  0  0  0  0
    0.1453   44.7063   53.5466 C   0  0  0  0  0  3  0  0  0  0  0  0
  2  1  1  0
  3 11  1  0
  3  4  1  0
  4  2  2  0
  5  3  1  0
  5  6  2  0
  7  6  1  0
  7  9  1  0
  7  2  1  0
  8  6  1  0
  8 10  2  0
 10  9  1  0
 12 13  1  0
 12  1  1  0
 14 13  1  0
 14 15  2  0
 16 14  1  0
 17 15  1  0
 18 16  2  0
 18 19  1  0
 19 17  2  0
M  RAD  8   3   2   7   2  10   2  12   3  13   3  15   2  16   2  17   2
M  RAD  2  18   2  19   2
M  END
>  <REMARK>  (1) 
 SMILES Nc1nc(OCCc2ccccc2)c2[nH]cnc2n1
 SMILES IDX 5 1 4 2 2 3 3 4 19 5 18 6 14 7 17 8 15 9 16 10 1 12 6 15
 SMILES IDX 7 16 8 17 9 18 13 19 10 20 12 21 11 22
 H PARENT 15 11 1 13 1 14

>  <TORSDO>  (1) 
F 5

$$$$
