/home/pchatterjee/Documents/git/vs_workflow/DiffDock/diffdock_run/pdbqt_scrubbed/5329520.pdbqt
     RDKit          3D

 19 21  0  0  1  0  0  0  0  0999 V2000
    6.1418   45.8624   51.7516 O   0  0  0  0  0  0  0  0  0  0  0  0
    6.9990   45.0459   51.0219 C   0  0  0  0  0  0  0  0  0  0  0  0
    7.4972   43.5227   49.2304 C   0  0  0  0  0  3  0  0  0  0  0  0
    6.5827   44.3702   49.9782 N   0  0  0  0  0  0  0  0  0  0  0  0
    8.7325   44.3040   49.0768 N   0  0  0  0  0  0  0  0  0  0  0  0
    9.2029   44.9620   50.0875 C   0  0  0  0  0  0  0  0  0  0  0  0
    8.4369   44.8744   51.3598 C   0  0  0  0  0  3  0  0  0  0  0  0
   10.3055   45.7953   50.3537 N   0  0  0  0  0  0  0  0  0  0  0  0
    8.9783   45.9257   52.1623 N   0  0  0  0  0  0  0  0  0  0  0  0
   10.1854   46.3392   51.5168 C   0  0  0  0  0  3  0  0  0  0  0  0
    7.8121   42.2879   49.9262 N   0  0  0  0  0  0  0  0  0  0  0  0
    4.7918   45.4567   51.8582 C   0  0  0  0  0  2  0  0  0  0  0  0
    4.2735   45.6978   53.2358 C   0  0  0  0  0  2  0  0  0  0  0  0
    2.8224   45.3752   53.3521 C   0  0  0  0  0  0  0  0  0  0  0  0
    2.3976   44.1326   53.7680 C   0  0  0  0  0  3  0  0  0  0  0  0
    1.8925   46.3435   53.0357 C   0  0  0  0  0  3  0  0  0  0  0  0
    1.0371   43.9054   53.8519 C   0  0  0  0  0  3  0  0  0  0  0  0
    0.5413   46.1149   53.1201 C   0  0  0  0  0  3  0  0  0  0  0  0
    0.1194   44.8715   53.5363 C   0  0  0  0  0  3  0  0  0  0  0  0
  2  1  1  0
  3 11  1  0
  3  4  1  0
  4  2  2  0
  5  3  1  0
  5  6  2  0
  7  6  1  0
  7  9  1  0
  7  2  1  0
  8  6  1  0
  8 10  2  0
 10  9  1  0
 12 13  1  0
 12  1  1  0
 14 13  1  0
 14 15  2  0
 16 14  1  0
 17 15  1  0
 18 16  2  0
 18 19  1  0
 19 17  2  0
M  RAD  8   3   2   7   2  10   2  12   3  13   3  15   2  16   2  17   2
M  RAD  2  18   2  19   2
M  END
>  <REMARK>  (1) 
 SMILES Nc1nc(OCCc2ccccc2)c2[nH]cnc2n1
 SMILES IDX 5 1 4 2 2 3 3 4 19 5 18 6 14 7 17 8 15 9 16 10 1 12 6 15
 SMILES IDX 7 16 8 17 9 18 13 19 10 20 12 21 11 22
 H PARENT 15 11 1 13 1 14

>  <TORSDO>  (1) 
F 5

$$$$
