/home/pchatterjee/Documents/git/vs_workflow/DiffDock/diffdock_run/pdbqt_scrubbed/5329520.pdbqt
     RDKit          3D

 19 21  0  0  1  0  0  0  0  0999 V2000
    6.2756   46.0322   51.5254 O   0  0  0  0  0  0  0  0  0  0  0  0
    7.0626   45.0753   50.8939 C   0  0  0  0  0  0  0  0  0  0  0  0
    7.4804   43.4297   49.1923 C   0  0  0  0  0  3  0  0  0  0  0  0
    6.6399   44.4261   49.8360 N   0  0  0  0  0  0  0  0  0  0  0  0
    8.8241   44.0215   49.1259 N   0  0  0  0  0  0  0  0  0  0  0  0
    9.3002   44.6441   50.1561 C   0  0  0  0  0  0  0  0  0  0  0  0
    8.4281   44.7145   51.3592 C   0  0  0  0  0  3  0  0  0  0  0  0
   10.4862   45.3222   50.4949 N   0  0  0  0  0  0  0  0  0  0  0  0
    9.0483   45.7082   52.1780 N   0  0  0  0  0  0  0  0  0  0  0  0
   10.3511   45.9214   51.6288 C   0  0  0  0  0  3  0  0  0  0  0  0
    7.5555   42.1901   49.9445 N   0  0  0  0  0  0  0  0  0  0  0  0
    4.9175   45.7108   51.7510 C   0  0  0  0  0  2  0  0  0  0  0  0
    4.4216   46.3551   53.0015 C   0  0  0  0  0  2  0  0  0  0  0  0
    3.0143   45.9700   53.3091 C   0  0  0  0  0  0  0  0  0  0  0  0
    2.7182   45.1131   54.3462 C   0  0  0  0  0  3  0  0  0  0  0  0
    1.9940   46.4848   52.5369 C   0  0  0  0  0  3  0  0  0  0  0  0
    1.3912   44.8010   54.5724 C   0  0  0  0  0  3  0  0  0  0  0  0
    0.6763   46.1728   52.7640 C   0  0  0  0  0  3  0  0  0  0  0  0
    0.3832   45.3158   53.8018 C   0  0  0  0  0  3  0  0  0  0  0  0
  2  1  1  0
  3 11  1  0
  3  4  1  0
  4  2  2  0
  5  3  1  0
  5  6  2  0
  7  6  1  0
  7  9  1  0
  7  2  1  0
  8  6  1  0
  8 10  2  0
 10  9  1  0
 12 13  1  0
 12  1  1  0
 14 13  1  0
 14 15  2  0
 16 14  1  0
 17 15  1  0
 18 16  2  0
 18 19  1  0
 19 17  2  0
M  RAD  8   3   2   7   2  10   2  12   3  13   3  15   2  16   2  17   2
M  RAD  2  18   2  19   2
M  END
>  <REMARK>  (1) 
 SMILES Nc1nc(OCCc2ccccc2)c2[nH]cnc2n1
 SMILES IDX 5 1 4 2 2 3 3 4 19 5 18 6 14 7 17 8 15 9 16 10 1 12 6 15
 SMILES IDX 7 16 8 17 9 18 13 19 10 20 12 21 11 22
 H PARENT 15 11 1 13 1 14

>  <TORSDO>  (1) 
F 5

$$$$
