/home/pchatterjee/Documents/git/vs_workflow/DiffDock/diffdock_run/pdbqt_scrubbed/5329520.pdbqt
     RDKit          3D

 19 21  0  0  1  0  0  0  0  0999 V2000
    6.3468   45.8761   51.9204 O   0  0  0  0  0  0  0  0  0  0  0  0
    7.1668   45.0761   51.1321 C   0  0  0  0  0  0  0  0  0  0  0  0
    7.5650   43.5447   49.3226 C   0  0  0  0  0  3  0  0  0  0  0  0
    6.6883   44.3742   50.1332 N   0  0  0  0  0  0  0  0  0  0  0  0
    8.7588   44.3607   49.0602 N   0  0  0  0  0  0  0  0  0  0  0  0
    9.2890   45.0460   50.0220 C   0  0  0  0  0  0  0  0  0  0  0  0
    8.6320   44.9524   51.3534 C   0  0  0  0  0  3  0  0  0  0  0  0
   10.3832   45.9156   50.1882 N   0  0  0  0  0  0  0  0  0  0  0  0
    9.2039   46.0302   52.0976 N   0  0  0  0  0  0  0  0  0  0  0  0
   10.3411   46.4711   51.3512 C   0  0  0  0  0  3  0  0  0  0  0  0
    7.9736   42.3294   50.0038 N   0  0  0  0  0  0  0  0  0  0  0  0
    5.0264   45.4259   52.1502 C   0  0  0  0  0  2  0  0  0  0  0  0
    4.5313   45.8927   53.4774 C   0  0  0  0  0  2  0  0  0  0  0  0
    3.0956   45.5512   53.6906 C   0  0  0  0  0  0  0  0  0  0  0  0
    2.0983   46.1763   52.9749 C   0  0  0  0  0  3  0  0  0  0  0  0
    2.7661   44.5902   54.6235 C   0  0  0  0  0  3  0  0  0  0  0  0
    0.7902   45.8085   53.2259 C   0  0  0  0  0  3  0  0  0  0  0  0
    1.4653   44.2268   54.8707 C   0  0  0  0  0  3  0  0  0  0  0  0
    0.4702   44.8535   54.1536 C   0  0  0  0  0  3  0  0  0  0  0  0
  2  1  1  0
  3 11  1  0
  3  4  1  0
  4  2  2  0
  5  3  1  0
  5  6  2  0
  7  6  1  0
  7  9  1  0
  7  2  1  0
  8  6  1  0
  8 10  2  0
 10  9  1  0
 12 13  1  0
 12  1  1  0
 14 13  1  0
 14 15  2  0
 16 14  1  0
 17 15  1  0
 18 16  2  0
 18 19  1  0
 19 17  2  0
M  RAD  8   3   2   7   2  10   2  12   3  13   3  15   2  16   2  17   2
M  RAD  2  18   2  19   2
M  END
>  <REMARK>  (1) 
 SMILES Nc1nc(OCCc2ccccc2)c2[nH]cnc2n1
 SMILES IDX 5 1 4 2 2 3 3 4 19 5 18 6 14 7 17 8 15 9 16 10 1 12 6 15
 SMILES IDX 7 16 8 17 9 18 13 19 10 20 12 21 11 22
 H PARENT 15 11 1 13 1 14

>  <TORSDO>  (1) 
F 5

$$$$
