/home/pchatterjee/Documents/git/vs_workflow/DiffDock/diffdock_run/pdbqt_scrubbed/5329506.pdbqt
     RDKit          3D

 20 22  0  0  1  0  0  0  0  0999 V2000
    5.9293   45.5351   51.7851 O   0  0  0  0  0  0  0  0  0  0  0  0
    4.6651   44.9028   51.8019 C   0  0  0  0  0  2  0  0  0  0  0  0
    3.7171   45.4766   52.7696 C   0  0  0  0  0  0  0  0  0  0  0  0
    3.9810   46.5389   53.5251 C   0  0  0  0  0  2  0  0  0  0  0  0
    2.4022   44.8098   52.8854 C   0  0  0  0  0  0  0  0  0  0  0  0
    2.2810   43.4787   53.1981 C   0  0  0  0  0  3  0  0  0  0  0  0
    1.2839   45.5714   52.6676 C   0  0  0  0  0  3  0  0  0  0  0  0
    0.9969   42.9857   53.2736 C   0  0  0  0  0  3  0  0  0  0  0  0
    0.0150   45.0557   52.7489 C   0  0  0  0  0  3  0  0  0  0  0  0
   -0.1385   43.7289   53.0596 C   0  0  0  0  0  3  0  0  0  0  0  0
    6.9248   45.2222   50.8760 C   0  0  0  0  0  0  0  0  0  0  0  0
    6.7146   44.2448   50.0583 N   0  0  0  0  0  0  0  0  0  0  0  0
    8.2142   45.9296   50.7751 C   0  0  0  0  0  3  0  0  0  0  0  0
    7.6800   43.8319   49.0708 C   0  0  0  0  0  3  0  0  0  0  0  0
    8.7600   46.3725   52.0245 N   0  0  0  0  0  0  0  0  0  0  0  0
    9.3045   45.0877   50.2536 C   0  0  0  0  0  0  0  0  0  0  0  0
    9.0383   44.1170   49.4627 N   0  0  0  0  0  0  0  0  0  0  0  0
   10.1931   46.3764   51.8522 C   0  0  0  0  0  3  0  0  0  0  0  0
   10.5080   45.6362   50.8319 N   0  0  0  0  0  0  0  0  0  0  0  0
    7.5299   42.4485   48.6911 N   0  0  0  0  0  0  0  0  0  0  0  0
  1  2  1  0
  2  3  1  0
  3  5  1  0
  4  3  2  0
  5  7  1  0
  6  5  2  0
  6  8  1  0
  7  9  2  0
  8 10  2  0
 10  9  1  0
 11 13  1  0
 11  1  1  0
 12 11  2  0
 13 16  1  0
 13 15  1  0
 14 20  1  0
 14 12  1  0
 16 19  1  0
 17 14  1  0
 17 16  2  0
 18 15  1  0
 19 18  2  0
M  RAD  8   2   3   4   3   6   2   7   2   8   2   9   2  10   2  13   2
M  RAD  2  14   2  18   2
M  END
>  <REMARK>  (1) 
 SMILES C=C(COc1nc(N)nc2nc[nH]c12)c1ccccc1
 SMILES IDX 4 1 3 2 2 3 1 4 15 5 16 6 20 7 17 8 19 9 18 10 5 11 6 12
 SMILES IDX 14 13 7 14 13 15 10 16 9 17 12 18 11 19 8 21
 H PARENT 13 20 8 22 8 23

>  <TORSDO>  (1) 
F 5

$$$$
