/home/pchatterjee/Documents/git/vs_workflow/DiffDock/diffdock_run/pdbqt_scrubbed/5329506.pdbqt
     RDKit          3D

 20 22  0  0  1  0  0  0  0  0999 V2000
    6.6075   45.7651   52.2993 O   0  0  0  0  0  0  0  0  0  0  0  0
    5.2131   45.5444   52.3720 C   0  0  0  0  0  2  0  0  0  0  0  0
    4.5971   45.9907   53.6313 C   0  0  0  0  0  0  0  0  0  0  0  0
    5.2643   46.5986   54.6081 C   0  0  0  0  0  2  0  0  0  0  0  0
    3.1494   45.7335   53.7893 C   0  0  0  0  0  0  0  0  0  0  0  0
    2.2192   46.2133   52.9011 C   0  0  0  0  0  3  0  0  0  0  0  0
    2.7521   44.9879   54.8683 C   0  0  0  0  0  3  0  0  0  0  0  0
    0.9045   45.8995   53.1678 C   0  0  0  0  0  3  0  0  0  0  0  0
    1.4351   44.6891   55.1115 C   0  0  0  0  0  3  0  0  0  0  0  0
    0.4823   45.1544   54.2419 C   0  0  0  0  0  3  0  0  0  0  0  0
    7.3907   45.3429   51.2393 C   0  0  0  0  0  0  0  0  0  0  0  0
    6.9412   44.3878   50.4951 N   0  0  0  0  0  0  0  0  0  0  0  0
    8.7083   45.9097   50.8984 C   0  0  0  0  0  3  0  0  0  0  0  0
    7.6709   43.8689   49.3656 C   0  0  0  0  0  3  0  0  0  0  0  0
    9.5072   46.3006   52.0226 N   0  0  0  0  0  0  0  0  0  0  0  0
    9.5979   44.9539   50.2167 C   0  0  0  0  0  0  0  0  0  0  0  0
    9.0988   44.0116   49.5085 N   0  0  0  0  0  0  0  0  0  0  0  0
   10.8806   46.1521   51.6041 C   0  0  0  0  0  3  0  0  0  0  0  0
   10.9340   45.3762   50.5634 N   0  0  0  0  0  0  0  0  0  0  0  0
    7.3152   42.5066   49.0523 N   0  0  0  0  0  0  0  0  0  0  0  0
  1  2  1  0
  2  3  1  0
  3  5  1  0
  4  3  2  0
  5  7  1  0
  6  5  2  0
  6  8  1  0
  7  9  2  0
  8 10  2  0
 10  9  1  0
 11 13  1  0
 11  1  1  0
 12 11  2  0
 13 16  1  0
 13 15  1  0
 14 20  1  0
 14 12  1  0
 16 19  1  0
 17 14  1  0
 17 16  2  0
 18 15  1  0
 19 18  2  0
M  RAD  8   2   3   4   3   6   2   7   2   8   2   9   2  10   2  13   2
M  RAD  2  14   2  18   2
M  END
>  <REMARK>  (1) 
 SMILES C=C(COc1nc(N)nc2nc[nH]c12)c1ccccc1
 SMILES IDX 4 1 3 2 2 3 1 4 15 5 16 6 20 7 17 8 19 9 18 10 5 11 6 12
 SMILES IDX 14 13 7 14 13 15 10 16 9 17 12 18 11 19 8 21
 H PARENT 13 20 8 22 8 23

>  <TORSDO>  (1) 
F 5

$$$$
