/home/pchatterjee/Documents/git/vs_workflow/DiffDock/diffdock_run/pdbqt_scrubbed/5329506.pdbqt
     RDKit          3D

 20 22  0  0  1  0  0  0  0  0999 V2000
    6.0611   45.6468   51.7259 O   0  0  0  0  0  0  0  0  0  0  0  0
    4.7515   45.1145   51.7399 C   0  0  0  0  0  2  0  0  0  0  0  0
    3.8692   45.7113   52.7547 C   0  0  0  0  0  0  0  0  0  0  0  0
    4.2320   46.7058   53.5598 C   0  0  0  0  0  2  0  0  0  0  0  0
    2.5052   45.1499   52.8605 C   0  0  0  0  0  0  0  0  0  0  0  0
    1.3823   45.9064   52.6343 C   0  0  0  0  0  3  0  0  0  0  0  0
    2.3886   43.8267   53.1976 C   0  0  0  0  0  3  0  0  0  0  0  0
    0.1743   45.2575   52.7671 C   0  0  0  0  0  3  0  0  0  0  0  0
    1.1726   43.2037   53.3235 C   0  0  0  0  0  3  0  0  0  0  0  0
    0.0325   43.9332   53.1036 C   0  0  0  0  0  3  0  0  0  0  0  0
    7.0461   45.2217   50.8517 C   0  0  0  0  0  0  0  0  0  0  0  0
    6.7699   44.2430   50.0555 N   0  0  0  0  0  0  0  0  0  0  0  0
    8.3949   45.8104   50.7653 C   0  0  0  0  0  3  0  0  0  0  0  0
    7.7180   43.7187   49.1049 C   0  0  0  0  0  3  0  0  0  0  0  0
    8.9481   46.2400   52.0161 N   0  0  0  0  0  0  0  0  0  0  0  0
    9.4187   44.8614   50.2952 C   0  0  0  0  0  0  0  0  0  0  0  0
    9.0866   43.8952   49.5241 N   0  0  0  0  0  0  0  0  0  0  0  0
   10.3796   46.1135   51.8810 C   0  0  0  0  0  3  0  0  0  0  0  0
   10.6519   45.3192   50.8895 N   0  0  0  0  0  0  0  0  0  0  0  0
    7.4555   42.3432   48.7588 N   0  0  0  0  0  0  0  0  0  0  0  0
  1  2  1  0
  2  3  1  0
  3  5  1  0
  4  3  2  0
  5  7  1  0
  6  5  2  0
  6  8  1  0
  7  9  2  0
  8 10  2  0
 10  9  1  0
 11 13  1  0
 11  1  1  0
 12 11  2  0
 13 16  1  0
 13 15  1  0
 14 20  1  0
 14 12  1  0
 16 19  1  0
 17 14  1  0
 17 16  2  0
 18 15  1  0
 19 18  2  0
M  RAD  8   2   3   4   3   6   2   7   2   8   2   9   2  10   2  13   2
M  RAD  2  14   2  18   2
M  END
>  <REMARK>  (1) 
 SMILES C=C(COc1nc(N)nc2nc[nH]c12)c1ccccc1
 SMILES IDX 4 1 3 2 2 3 1 4 15 5 16 6 20 7 17 8 19 9 18 10 5 11 6 12
 SMILES IDX 14 13 7 14 13 15 10 16 9 17 12 18 11 19 8 21
 H PARENT 13 20 8 22 8 23

>  <TORSDO>  (1) 
F 5

$$$$
