/home/pchatterjee/Documents/git/vs_workflow/DiffDock/diffdock_run/pdbqt_scrubbed/5329506.pdbqt
     RDKit          3D

 20 22  0  0  1  0  0  0  0  0999 V2000
    7.3222   46.2799   52.1081 O   0  0  0  0  0  0  0  0  0  0  0  0
    8.0468   47.2177   52.8786 C   0  0  0  0  0  2  0  0  0  0  0  0
    7.3568   47.6539   54.1026 C   0  0  0  0  0  0  0  0  0  0  0  0
    6.1323   47.2618   54.4428 C   0  0  0  0  0  2  0  0  0  0  0  0
    8.0952   48.5826   54.9853 C   0  0  0  0  0  0  0  0  0  0  0  0
    7.5235   49.7245   55.4889 C   0  0  0  0  0  3  0  0  0  0  0  0
    9.3926   48.2672   55.2940 C   0  0  0  0  0  3  0  0  0  0  0  0
    8.3242   50.5000   56.2984 C   0  0  0  0  0  3  0  0  0  0  0  0
   10.1694   49.0572   56.1033 C   0  0  0  0  0  3  0  0  0  0  0  0
    9.6263   50.2047   56.6218 C   0  0  0  0  0  3  0  0  0  0  0  0
    7.9239   45.2931   51.3469 C   0  0  0  0  0  0  0  0  0  0  0  0
    9.1920   45.3889   51.1216 N   0  0  0  0  0  0  0  0  0  0  0  0
    7.2154   44.1349   50.7724 C   0  0  0  0  0  3  0  0  0  0  0  0
    9.9218   44.4201   50.3429 C   0  0  0  0  0  3  0  0  0  0  0  0
    5.8789   44.4032   50.3287 N   0  0  0  0  0  0  0  0  0  0  0  0
    7.8407   43.6170   49.5435 C   0  0  0  0  0  0  0  0  0  0  0  0
    9.0997   43.7582   49.3601 N   0  0  0  0  0  0  0  0  0  0  0  0
    5.6272   43.4805   49.2476 C   0  0  0  0  0  3  0  0  0  0  0  0
    6.7571   43.0268   48.7943 N   0  0  0  0  0  0  0  0  0  0  0  0
   11.1085   44.9734   49.7378 N   0  0  0  0  0  0  0  0  0  0  0  0
  1  2  1  0
  2  3  1  0
  3  5  1  0
  4  3  2  0
  5  7  1  0
  6  5  2  0
  6  8  1  0
  7  9  2  0
  8 10  2  0
 10  9  1  0
 11 13  1  0
 11  1  1  0
 12 11  2  0
 13 16  1  0
 13 15  1  0
 14 20  1  0
 14 12  1  0
 16 19  1  0
 17 14  1  0
 17 16  2  0
 18 15  1  0
 19 18  2  0
M  RAD  8   2   3   4   3   6   2   7   2   8   2   9   2  10   2  13   2
M  RAD  2  14   2  18   2
M  END
>  <REMARK>  (1) 
 SMILES C=C(COc1nc(N)nc2nc[nH]c12)c1ccccc1
 SMILES IDX 4 1 3 2 2 3 1 4 15 5 16 6 20 7 17 8 19 9 18 10 5 11 6 12
 SMILES IDX 14 13 7 14 13 15 10 16 9 17 12 18 11 19 8 21
 H PARENT 13 20 8 22 8 23

>  <TORSDO>  (1) 
F 5

$$$$
