/home/pchatterjee/Documents/git/vs_workflow/DiffDock/diffdock_run/pdbqt_scrubbed/5329506.pdbqt
     RDKit          3D

 20 22  0  0  1  0  0  0  0  0999 V2000
    6.4418   45.6643   52.2626 O   0  0  0  0  0  0  0  0  0  0  0  0
    5.0680   45.3336   52.3045 C   0  0  0  0  0  2  0  0  0  0  0  0
    4.3494   45.8888   53.4619 C   0  0  0  0  0  0  0  0  0  0  0  0
    4.9011   46.7061   54.3544 C   0  0  0  0  0  2  0  0  0  0  0  0
    2.9318   45.4958   53.6135 C   0  0  0  0  0  0  0  0  0  0  0  0
    2.5379   44.4858   54.4555 C   0  0  0  0  0  3  0  0  0  0  0  0
    2.0018   46.1806   52.8758 C   0  0  0  0  0  3  0  0  0  0  0  0
    1.1863   44.2232   54.5005 C   0  0  0  0  0  3  0  0  0  0  0  0
    0.6603   45.8992   52.9388 C   0  0  0  0  0  3  0  0  0  0  0  0
    0.2358   44.8954   53.7711 C   0  0  0  0  0  3  0  0  0  0  0  0
    7.2973   45.2378   51.2619 C   0  0  0  0  0  0  0  0  0  0  0  0
    6.8984   44.2835   50.4883 N   0  0  0  0  0  0  0  0  0  0  0  0
    8.6381   45.7989   51.0158 C   0  0  0  0  0  3  0  0  0  0  0  0
    7.7051   43.7603   49.4145 C   0  0  0  0  0  3  0  0  0  0  0  0
    9.3559   46.1882   52.1940 N   0  0  0  0  0  0  0  0  0  0  0  0
    9.5705   44.8389   50.4005 C   0  0  0  0  0  0  0  0  0  0  0  0
    9.1197   43.8977   49.6592 N   0  0  0  0  0  0  0  0  0  0  0  0
   10.7552   46.0338   51.8751 C   0  0  0  0  0  3  0  0  0  0  0  0
   10.8800   45.2564   50.8416 N   0  0  0  0  0  0  0  0  0  0  0  0
    7.3674   42.3990   49.0779 N   0  0  0  0  0  0  0  0  0  0  0  0
  1  2  1  0
  2  3  1  0
  3  5  1  0
  4  3  2  0
  5  7  1  0
  6  5  2  0
  6  8  1  0
  7  9  2  0
  8 10  2  0
 10  9  1  0
 11 13  1  0
 11  1  1  0
 12 11  2  0
 13 16  1  0
 13 15  1  0
 14 20  1  0
 14 12  1  0
 16 19  1  0
 17 14  1  0
 17 16  2  0
 18 15  1  0
 19 18  2  0
M  RAD  8   2   3   4   3   6   2   7   2   8   2   9   2  10   2  13   2
M  RAD  2  14   2  18   2
M  END
>  <REMARK>  (1) 
 SMILES C=C(COc1nc(N)nc2nc[nH]c12)c1ccccc1
 SMILES IDX 4 1 3 2 2 3 1 4 15 5 16 6 20 7 17 8 19 9 18 10 5 11 6 12
 SMILES IDX 14 13 7 14 13 15 10 16 9 17 12 18 11 19 8 21
 H PARENT 13 20 8 22 8 23

>  <TORSDO>  (1) 
F 5

$$$$
