/home/pchatterjee/Documents/git/vs_workflow/DiffDock/diffdock_run/pdbqt_scrubbed/5329506.pdbqt
     RDKit          3D

 20 22  0  0  1  0  0  0  0  0999 V2000
    6.6379   45.9274   52.2225 O   0  0  0  0  0  0  0  0  0  0  0  0
    5.2506   45.6937   52.3607 C   0  0  0  0  0  2  0  0  0  0  0  0
    4.6487   46.3221   53.5470 C   0  0  0  0  0  0  0  0  0  0  0  0
    5.3137   47.1125   54.3848 C   0  0  0  0  0  2  0  0  0  0  0  0
    3.2187   46.0383   53.7944 C   0  0  0  0  0  0  0  0  0  0  0  0
    2.7990   45.2369   54.8270 C   0  0  0  0  0  3  0  0  0  0  0  0
    2.3036   46.6082   52.9483 C   0  0  0  0  0  3  0  0  0  0  0  0
    1.4382   45.0563   54.9429 C   0  0  0  0  0  3  0  0  0  0  0  0
    0.9525   46.4123   53.0855 C   0  0  0  0  0  3  0  0  0  0  0  0
    0.5024   45.6166   54.1077 C   0  0  0  0  0  3  0  0  0  0  0  0
    7.3999   45.4001   51.1946 C   0  0  0  0  0  0  0  0  0  0  0  0
    6.8965   44.4352   50.4992 N   0  0  0  0  0  0  0  0  0  0  0  0
    8.7523   45.8647   50.8362 C   0  0  0  0  0  3  0  0  0  0  0  0
    7.5996   43.8109   49.4067 C   0  0  0  0  0  3  0  0  0  0  0  0
    9.5669   46.2667   51.9451 N   0  0  0  0  0  0  0  0  0  0  0  0
    9.5850   44.8199   50.2161 C   0  0  0  0  0  0  0  0  0  0  0  0
    9.0327   43.8728   49.5554 N   0  0  0  0  0  0  0  0  0  0  0  0
   10.9310   46.0109   51.5485 C   0  0  0  0  0  3  0  0  0  0  0  0
   10.9426   45.1772   50.5522 N   0  0  0  0  0  0  0  0  0  0  0  0
    7.1618   42.4580   49.1645 N   0  0  0  0  0  0  0  0  0  0  0  0
  1  2  1  0
  2  3  1  0
  3  5  1  0
  4  3  2  0
  5  7  1  0
  6  5  2  0
  6  8  1  0
  7  9  2  0
  8 10  2  0
 10  9  1  0
 11 13  1  0
 11  1  1  0
 12 11  2  0
 13 16  1  0
 13 15  1  0
 14 20  1  0
 14 12  1  0
 16 19  1  0
 17 14  1  0
 17 16  2  0
 18 15  1  0
 19 18  2  0
M  RAD  8   2   3   4   3   6   2   7   2   8   2   9   2  10   2  13   2
M  RAD  2  14   2  18   2
M  END
>  <REMARK>  (1) 
 SMILES C=C(COc1nc(N)nc2nc[nH]c12)c1ccccc1
 SMILES IDX 4 1 3 2 2 3 1 4 15 5 16 6 20 7 17 8 19 9 18 10 5 11 6 12
 SMILES IDX 14 13 7 14 13 15 10 16 9 17 12 18 11 19 8 21
 H PARENT 13 20 8 22 8 23

>  <TORSDO>  (1) 
F 5

$$$$
