/home/pchatterjee/Documents/git/vs_workflow/DiffDock/diffdock_run/pdbqt_scrubbed/5329506.pdbqt
     RDKit          3D

 20 22  0  0  1  0  0  0  0  0999 V2000
    6.6471   45.8224   52.3600 O   0  0  0  0  0  0  0  0  0  0  0  0
    5.2742   45.5204   52.5100 C   0  0  0  0  0  2  0  0  0  0  0  0
    4.6885   45.9903   53.7751 C   0  0  0  0  0  0  0  0  0  0  0  0
    5.3787   46.6169   54.7237 C   0  0  0  0  0  2  0  0  0  0  0  0
    3.2453   45.7355   53.9730 C   0  0  0  0  0  0  0  0  0  0  0  0
    2.7752   44.9303   54.9804 C   0  0  0  0  0  3  0  0  0  0  0  0
    2.3707   46.3369   53.1061 C   0  0  0  0  0  3  0  0  0  0  0  0
    1.4077   44.7788   55.0505 C   0  0  0  0  0  3  0  0  0  0  0  0
    1.0119   46.1697   53.1976 C   0  0  0  0  0  3  0  0  0  0  0  0
    0.5118   45.3709   54.1938 C   0  0  0  0  0  3  0  0  0  0  0  0
    7.4252   45.3337   51.3251 C   0  0  0  0  0  0  0  0  0  0  0  0
    6.9901   44.3092   50.6700 N   0  0  0  0  0  0  0  0  0  0  0  0
    8.7221   45.9032   50.9162 C   0  0  0  0  0  3  0  0  0  0  0  0
    7.7163   43.7170   49.5748 C   0  0  0  0  0  3  0  0  0  0  0  0
    9.5270   46.4060   51.9906 N   0  0  0  0  0  0  0  0  0  0  0  0
    9.6264   44.9170   50.3005 C   0  0  0  0  0  0  0  0  0  0  0  0
    9.1419   43.9070   49.6810 N   0  0  0  0  0  0  0  0  0  0  0  0
   10.8975   46.2579   51.5622 C   0  0  0  0  0  3  0  0  0  0  0  0
   10.9559   45.4000   50.5883 N   0  0  0  0  0  0  0  0  0  0  0  0
    7.3922   42.3249   49.3809 N   0  0  0  0  0  0  0  0  0  0  0  0
  1  2  1  0
  2  3  1  0
  3  5  1  0
  4  3  2  0
  5  7  1  0
  6  5  2  0
  6  8  1  0
  7  9  2  0
  8 10  2  0
 10  9  1  0
 11 13  1  0
 11  1  1  0
 12 11  2  0
 13 16  1  0
 13 15  1  0
 14 20  1  0
 14 12  1  0
 16 19  1  0
 17 14  1  0
 17 16  2  0
 18 15  1  0
 19 18  2  0
M  RAD  8   2   3   4   3   6   2   7   2   8   2   9   2  10   2  13   2
M  RAD  2  14   2  18   2
M  END
>  <REMARK>  (1) 
 SMILES C=C(COc1nc(N)nc2nc[nH]c12)c1ccccc1
 SMILES IDX 4 1 3 2 2 3 1 4 15 5 16 6 20 7 17 8 19 9 18 10 5 11 6 12
 SMILES IDX 14 13 7 14 13 15 10 16 9 17 12 18 11 19 8 21
 H PARENT 13 20 8 22 8 23

>  <TORSDO>  (1) 
F 5

$$$$
