/home/pchatterjee/Documents/git/vs_workflow/DiffDock/diffdock_run/pdbqt_scrubbed/5329506.pdbqt
     RDKit          3D

 20 22  0  0  1  0  0  0  0  0999 V2000
    6.1176   45.4580   51.9301 O   0  0  0  0  0  0  0  0  0  0  0  0
    4.7730   45.0223   51.9097 C   0  0  0  0  0  2  0  0  0  0  0  0
    3.9444   45.5733   52.9934 C   0  0  0  0  0  0  0  0  0  0  0  0
    4.3375   46.5535   53.8018 C   0  0  0  0  0  2  0  0  0  0  0  0
    2.6007   44.9808   53.1678 C   0  0  0  0  0  0  0  0  0  0  0  0
    2.4199   43.6871   53.5897 C   0  0  0  0  0  3  0  0  0  0  0  0
    1.5175   45.7736   52.8915 C   0  0  0  0  0  3  0  0  0  0  0  0
    1.1147   43.2627   53.7096 C   0  0  0  0  0  3  0  0  0  0  0  0
    0.2266   45.3265   53.0191 C   0  0  0  0  0  3  0  0  0  0  0  0
    0.0137   44.0384   53.4386 C   0  0  0  0  0  3  0  0  0  0  0  0
    7.0730   45.0212   51.0291 C   0  0  0  0  0  0  0  0  0  0  0  0
    6.7645   44.0435   50.2436 N   0  0  0  0  0  0  0  0  0  0  0  0
    8.4245   45.5964   50.9026 C   0  0  0  0  0  3  0  0  0  0  0  0
    7.6797   43.5078   49.2675 C   0  0  0  0  0  3  0  0  0  0  0  0
    9.0175   46.0234   52.1359 N   0  0  0  0  0  0  0  0  0  0  0  0
    9.4250   44.6364   50.4057 C   0  0  0  0  0  0  0  0  0  0  0  0
    9.0614   43.6718   49.6468 N   0  0  0  0  0  0  0  0  0  0  0  0
   10.4432   45.8825   51.9601 C   0  0  0  0  0  3  0  0  0  0  0  0
   10.6792   45.0834   50.9632 N   0  0  0  0  0  0  0  0  0  0  0  0
    7.3940   42.1342   48.9325 N   0  0  0  0  0  0  0  0  0  0  0  0
  1  2  1  0
  2  3  1  0
  3  5  1  0
  4  3  2  0
  5  7  1  0
  6  5  2  0
  6  8  1  0
  7  9  2  0
  8 10  2  0
 10  9  1  0
 11 13  1  0
 11  1  1  0
 12 11  2  0
 13 16  1  0
 13 15  1  0
 14 20  1  0
 14 12  1  0
 16 19  1  0
 17 14  1  0
 17 16  2  0
 18 15  1  0
 19 18  2  0
M  RAD  8   2   3   4   3   6   2   7   2   8   2   9   2  10   2  13   2
M  RAD  2  14   2  18   2
M  END
>  <REMARK>  (1) 
 SMILES C=C(COc1nc(N)nc2nc[nH]c12)c1ccccc1
 SMILES IDX 4 1 3 2 2 3 1 4 15 5 16 6 20 7 17 8 19 9 18 10 5 11 6 12
 SMILES IDX 14 13 7 14 13 15 10 16 9 17 12 18 11 19 8 21
 H PARENT 13 20 8 22 8 23

>  <TORSDO>  (1) 
F 5

$$$$
