/home/pchatterjee/Documents/git/vs_workflow/DiffDock/diffdock_run/pdbqt_scrubbed/5329506.pdbqt
     RDKit          3D

 20 22  0  0  1  0  0  0  0  0999 V2000
    6.0779   45.5375   51.8331 O   0  0  0  0  0  0  0  0  0  0  0  0
    4.7636   45.0185   51.7941 C   0  0  0  0  0  2  0  0  0  0  0  0
    3.8748   45.5489   52.8396 C   0  0  0  0  0  0  0  0  0  0  0  0
    4.2344   46.4851   53.7132 C   0  0  0  0  0  2  0  0  0  0  0  0
    2.5079   44.9875   52.8960 C   0  0  0  0  0  0  0  0  0  0  0  0
    1.3907   45.7577   52.6890 C   0  0  0  0  0  3  0  0  0  0  0  0
    2.3827   43.6497   53.1659 C   0  0  0  0  0  3  0  0  0  0  0  0
    0.1791   45.1070   52.7704 C   0  0  0  0  0  3  0  0  0  0  0  0
    1.1632   43.0252   53.2416 C   0  0  0  0  0  3  0  0  0  0  0  0
    0.0286   43.7684   53.0394 C   0  0  0  0  0  3  0  0  0  0  0  0
    7.0793   45.1401   50.9645 C   0  0  0  0  0  0  0  0  0  0  0  0
    6.8405   44.1439   50.1779 N   0  0  0  0  0  0  0  0  0  0  0  0
    8.4057   45.7772   50.8736 C   0  0  0  0  0  3  0  0  0  0  0  0
    7.8087   43.6453   49.2338 C   0  0  0  0  0  3  0  0  0  0  0  0
    8.9408   46.2395   52.1206 N   0  0  0  0  0  0  0  0  0  0  0  0
    9.4644   44.8618   50.4144 C   0  0  0  0  0  0  0  0  0  0  0  0
    9.1692   43.8763   49.6527 N   0  0  0  0  0  0  0  0  0  0  0  0
   10.3762   46.1644   51.9884 C   0  0  0  0  0  3  0  0  0  0  0  0
   10.6790   45.3707   51.0054 N   0  0  0  0  0  0  0  0  0  0  0  0
    7.5975   42.2576   48.9014 N   0  0  0  0  0  0  0  0  0  0  0  0
  1  2  1  0
  2  3  1  0
  3  5  1  0
  4  3  2  0
  5  7  1  0
  6  5  2  0
  6  8  1  0
  7  9  2  0
  8 10  2  0
 10  9  1  0
 11 13  1  0
 11  1  1  0
 12 11  2  0
 13 16  1  0
 13 15  1  0
 14 20  1  0
 14 12  1  0
 16 19  1  0
 17 14  1  0
 17 16  2  0
 18 15  1  0
 19 18  2  0
M  RAD  8   2   3   4   3   6   2   7   2   8   2   9   2  10   2  13   2
M  RAD  2  14   2  18   2
M  END
>  <REMARK>  (1) 
 SMILES C=C(COc1nc(N)nc2nc[nH]c12)c1ccccc1
 SMILES IDX 4 1 3 2 2 3 1 4 15 5 16 6 20 7 17 8 19 9 18 10 5 11 6 12
 SMILES IDX 14 13 7 14 13 15 10 16 9 17 12 18 11 19 8 21
 H PARENT 13 20 8 22 8 23

>  <TORSDO>  (1) 
F 5

$$$$
