/home/pchatterjee/Documents/git/vs_workflow/DiffDock/diffdock_run/pdbqt_scrubbed/5329506.pdbqt
     RDKit          3D

 20 22  0  0  1  0  0  0  0  0999 V2000
    6.5908   45.6973   52.3890 O   0  0  0  0  0  0  0  0  0  0  0  0
    5.2278   45.3512   52.5330 C   0  0  0  0  0  2  0  0  0  0  0  0
    4.6063   45.8512   53.7691 C   0  0  0  0  0  0  0  0  0  0  0  0
    5.2573   46.5469   54.6971 C   0  0  0  0  0  2  0  0  0  0  0  0
    3.1722   45.5455   53.9613 C   0  0  0  0  0  0  0  0  0  0  0  0
    2.7341   44.6527   54.9075 C   0  0  0  0  0  3  0  0  0  0  0  0
    2.2728   46.1904   53.1531 C   0  0  0  0  0  3  0  0  0  0  0  0
    1.3717   44.4618   54.9796 C   0  0  0  0  0  3  0  0  0  0  0  0
    0.9196   45.9823   53.2451 C   0  0  0  0  0  3  0  0  0  0  0  0
    0.4513   45.0961   54.1810 C   0  0  0  0  0  3  0  0  0  0  0  0
    7.3626   45.3160   51.3053 C   0  0  0  0  0  0  0  0  0  0  0  0
    6.9579   44.3173   50.5934 N   0  0  0  0  0  0  0  0  0  0  0  0
    8.6201   45.9731   50.9048 C   0  0  0  0  0  3  0  0  0  0  0  0
    7.6810   43.8343   49.4439 C   0  0  0  0  0  3  0  0  0  0  0  0
    9.4296   46.4420   51.9910 N   0  0  0  0  0  0  0  0  0  0  0  0
    9.5522   45.0743   50.2028 C   0  0  0  0  0  0  0  0  0  0  0  0
    9.0987   44.0853   49.5286 N   0  0  0  0  0  0  0  0  0  0  0  0
   10.7933   46.3887   51.5211 C   0  0  0  0  0  3  0  0  0  0  0  0
   10.8652   45.6007   50.4906 N   0  0  0  0  0  0  0  0  0  0  0  0
    7.4168   42.4440   49.1647 N   0  0  0  0  0  0  0  0  0  0  0  0
  1  2  1  0
  2  3  1  0
  3  5  1  0
  4  3  2  0
  5  7  1  0
  6  5  2  0
  6  8  1  0
  7  9  2  0
  8 10  2  0
 10  9  1  0
 11 13  1  0
 11  1  1  0
 12 11  2  0
 13 16  1  0
 13 15  1  0
 14 20  1  0
 14 12  1  0
 16 19  1  0
 17 14  1  0
 17 16  2  0
 18 15  1  0
 19 18  2  0
M  RAD  8   2   3   4   3   6   2   7   2   8   2   9   2  10   2  13   2
M  RAD  2  14   2  18   2
M  END
>  <REMARK>  (1) 
 SMILES C=C(COc1nc(N)nc2nc[nH]c12)c1ccccc1
 SMILES IDX 4 1 3 2 2 3 1 4 15 5 16 6 20 7 17 8 19 9 18 10 5 11 6 12
 SMILES IDX 14 13 7 14 13 15 10 16 9 17 12 18 11 19 8 21
 H PARENT 13 20 8 22 8 23

>  <TORSDO>  (1) 
F 5

$$$$
