/home/pchatterjee/Documents/git/vs_workflow/DiffDock/diffdock_run/pdbqt_scrubbed/Z237513862.pdbqt
     RDKit          3D

 27 26  0  0  1  0  0  0  0  0999 V2000
   14.0193   62.8067   82.2623 S   0  0  0  0  0  0  0  0  0  0  0  0
   12.3786   63.2787   82.7616 C   0  0  0  0  0  0  0  0  0  0  0  0
   10.1795   63.4688   82.6761 C   0  0  0  0  0  0  0  0  0  0  0  0
   10.6434   64.0696   83.7873 N   0  0  0  0  0  0  0  0  0  0  0  0
   11.2753   62.9815   82.0490 N   0  0  0  0  0  0  0  0  0  0  0  0
   11.9640   63.9578   83.8427 N   0  0  0  0  0  0  0  0  0  0  0  0
    8.7839   63.3329   82.1841 C   0  0  0  0  0  2  0  0  0  0  0  0
    8.2672   64.5570   81.7360 O   0  0  0  0  0  0  0  0  0  0  0  0
    8.3055   65.7498   82.4239 C   0  0  0  0  0  0  0  0  0  0  0  0
    9.3184   66.6713   82.3372 C   0  0  0  0  0  0  0  0  0  0  0  0
    9.3005   67.8622   83.0593 C   0  0  0  0  0  3  0  0  0  0  0  0
    8.2391   68.1249   83.8832 C   0  0  0  0  0  3  0  0  0  0  0  0
    7.2298   66.0223   83.2626 C   0  0  0  0  0  3  0  0  0  0  0  0
    7.2351   67.2005   83.9626 C   0  0  0  0  0  3  0  0  0  0  0  0
   10.4618   66.3968   81.4547 C   0  0  0  0  0  1  0  0  0  0  0  0
   14.4770   61.1858   82.9216 C   0  0  0  0  0  3  0  0  0  0  0  0
   15.8585   60.8158   82.4865 C   0  0  0  0  0  1  0  0  0  0  0  0
   14.3873   61.2684   84.4204 C   0  0  0  0  0  0  0  0  0  0  0  0
   13.1230   61.2783   85.0704 N   0  0  0  0  0  0  0  0  0  0  0  0
   15.4841   61.3276   85.0591 O   0  0  0  0  0  0  0  0  0  0  0  0
   13.1113   61.3591   86.5083 C   0  0  0  0  0  3  0  0  0  0  0  0
   13.0775   62.7792   86.9852 C   0  0  0  0  0  2  0  0  0  0  0  0
   13.7921   62.8794   88.3149 C   0  0  0  0  0  1  0  0  0  0  0  0
   11.5910   63.5290   84.0289 *   0  0  0  0  0  0  0  0  0  0  0  0
   14.2255   60.6061   87.1527 C   0  0  0  0  0  2  0  0  0  0  0  0
   13.9486   60.5267   88.6383 C   0  0  0  0  0  1  0  0  0  0  0  0
   11.5910   63.5290   84.0289 *   0  0  0  0  0  0  0  0  0  0  0  0
  1  2  1  0
  2  6  1  0
  2  5  2  0
  3  4  2  0
  3  7  1  0
  5  3  1  0
  6  4  1  0
  8  7  1  0
  9 10  2  0
  9  8  1  0
 10 15  1  0
 11 10  1  0
 12 11  2  0
 13  9  1  0
 14 12  1  0
 14 13  2  0
 16  1  1  0
 16 17  1  0
 18 16  1  0
 19 18  1  0
 20 18  2  0
 21 22  1  0
 21 19  1  0
 23 22  1  0
 25 21  1  0
 26 25  1  0
M  RAD  8   7   3  11   2  12   2  13   2  14   2  15   2  16   2  17   2
M  RAD  5  21   2  22   3  23   2  25   3  26   2
V   24 *
V   27 *
M  END
>  <REMARK>  (1) 
 SMILES Cc1ccccc1OCc1n[nH]c(SC(C)C(=O)NC2CCCCCC2)n1
 SMILES IDX 14 1 13 2 10 3 11 4 27 5 12 6 9 8 8 9 7 10 2 11 3 12 4 13
 SMILES IDX 6 14 5 15 1 16 15 17 16 18 17 19 19 20 18 21 20 23 21 24
 SMILES IDX 22 25 23 26 26 28 25 29 24 30
 H PARENT 12 7 19 22
 Flexibility Score:   83.900

>  <TORSDO>  (1) 
F 7

$$$$
