/home/pchatterjee/Documents/git/vs_workflow/DiffDock/diffdock_run/pdbqt_scrubbed/Z237513862.pdbqt
     RDKit          3D

 27 26  0  0  1  0  0  0  0  0999 V2000
   13.9412   62.6743   82.6344 S   0  0  0  0  0  0  0  0  0  0  0  0
   12.2482   63.0564   83.0239 C   0  0  0  0  0  0  0  0  0  0  0  0
   10.0550   63.1541   82.7793 C   0  0  0  0  0  0  0  0  0  0  0  0
   10.4076   63.7337   83.9414 N   0  0  0  0  0  0  0  0  0  0  0  0
   11.2153   62.7377   82.2208 N   0  0  0  0  0  0  0  0  0  0  0  0
   11.7243   63.6773   84.0924 N   0  0  0  0  0  0  0  0  0  0  0  0
    8.7073   62.9758   82.1793 C   0  0  0  0  0  2  0  0  0  0  0  0
    8.1694   64.1918   81.7340 O   0  0  0  0  0  0  0  0  0  0  0  0
    8.1021   65.3595   82.4617 C   0  0  0  0  0  0  0  0  0  0  0  0
    9.0753   66.3265   82.4819 C   0  0  0  0  0  0  0  0  0  0  0  0
    8.9495   67.4885   83.2393 C   0  0  0  0  0  3  0  0  0  0  0  0
    7.8193   67.6750   83.9892 C   0  0  0  0  0  3  0  0  0  0  0  0
    6.9561   65.5546   83.2255 C   0  0  0  0  0  3  0  0  0  0  0  0
    6.8556   66.7058   83.9622 C   0  0  0  0  0  3  0  0  0  0  0  0
   10.2921   66.1339   81.6795 C   0  0  0  0  0  1  0  0  0  0  0  0
   14.4229   61.0519   83.2726 C   0  0  0  0  0  3  0  0  0  0  0  0
   15.8483   60.7580   82.9309 C   0  0  0  0  0  1  0  0  0  0  0  0
   14.2191   61.0762   84.7624 C   0  0  0  0  0  0  0  0  0  0  0  0
   12.9112   61.0078   85.3152 N   0  0  0  0  0  0  0  0  0  0  0  0
   15.2620   61.1596   85.4835 O   0  0  0  0  0  0  0  0  0  0  0  0
   12.7897   61.0359   86.7501 C   0  0  0  0  0  3  0  0  0  0  0  0
   12.6557   62.4350   87.2695 C   0  0  0  0  0  2  0  0  0  0  0  0
   13.2649   62.5178   88.6518 C   0  0  0  0  0  1  0  0  0  0  0  0
   11.3586   63.2264   84.2358 *   0  0  0  0  0  0  0  0  0  0  0  0
   13.8867   60.3090   87.4514 C   0  0  0  0  0  2  0  0  0  0  0  0
   13.5049   60.1639   88.9085 C   0  0  0  0  0  1  0  0  0  0  0  0
   11.3586   63.2264   84.2358 *   0  0  0  0  0  0  0  0  0  0  0  0
  1  2  1  0
  2  6  1  0
  2  5  2  0
  3  4  2  0
  3  7  1  0
  5  3  1  0
  6  4  1  0
  8  7  1  0
  9 10  2  0
  9  8  1  0
 10 15  1  0
 11 10  1  0
 12 11  2  0
 13  9  1  0
 14 12  1  0
 14 13  2  0
 16  1  1  0
 16 17  1  0
 18 16  1  0
 19 18  1  0
 20 18  2  0
 21 22  1  0
 21 19  1  0
 23 22  1  0
 25 21  1  0
 26 25  1  0
M  RAD  8   7   3  11   2  12   2  13   2  14   2  15   2  16   2  17   2
M  RAD  5  21   2  22   3  23   2  25   3  26   2
V   24 *
V   27 *
M  END
>  <REMARK>  (1) 
 SMILES Cc1ccccc1OCc1n[nH]c(SC(C)C(=O)NC2CCCCCC2)n1
 SMILES IDX 14 1 13 2 10 3 11 4 27 5 12 6 9 8 8 9 7 10 2 11 3 12 4 13
 SMILES IDX 6 14 5 15 1 16 15 17 16 18 17 19 19 20 18 21 20 23 21 24
 SMILES IDX 22 25 23 26 26 28 25 29 24 30
 H PARENT 12 7 19 22
 Flexibility Score:   83.900

>  <TORSDO>  (1) 
F 7

$$$$
