/home/pchatterjee/Documents/git/vs_workflow/DiffDock/diffdock_run/pdbqt_scrubbed/Z237513862.pdbqt
     RDKit          3D

 27 26  0  0  1  0  0  0  0  0999 V2000
   12.3861   85.1961   69.2908 S   0  0  0  0  0  0  0  0  0  0  0  0
   14.0718   85.4714   69.7877 C   0  0  0  0  0  0  0  0  0  0  0  0
   16.0673   86.4167   69.8506 C   0  0  0  0  0  0  0  0  0  0  0  0
   16.0284   85.3826   70.7108 N   0  0  0  0  0  0  0  0  0  0  0  0
   14.8388   86.4570   69.2841 N   0  0  0  0  0  0  0  0  0  0  0  0
   14.8315   84.8118   70.6762 N   0  0  0  0  0  0  0  0  0  0  0  0
   17.1806   87.3508   69.5407 C   0  0  0  0  0  2  0  0  0  0  0  0
   18.2078   86.7189   68.8250 O   0  0  0  0  0  0  0  0  0  0  0  0
   18.8057   85.5232   69.1568 C   0  0  0  0  0  0  0  0  0  0  0  0
   18.3784   84.2901   68.7330 C   0  0  0  0  0  0  0  0  0  0  0  0
   19.0261   83.1140   69.1031 C   0  0  0  0  0  3  0  0  0  0  0  0
   20.1252   83.1871   69.9162 C   0  0  0  0  0  3  0  0  0  0  0  0
   19.9229   85.5911   69.9827 C   0  0  0  0  0  3  0  0  0  0  0  0
   20.5430   84.4203   70.3330 C   0  0  0  0  0  3  0  0  0  0  0  0
   17.1989   84.2029   67.8597 C   0  0  0  0  0  1  0  0  0  0  0  0
   11.2264   86.1253   70.3219 C   0  0  0  0  0  3  0  0  0  0  0  0
    9.8197   85.8751   69.8820 C   0  0  0  0  0  1  0  0  0  0  0  0
   11.4341   85.6820   71.7438 C   0  0  0  0  0  0  0  0  0  0  0  0
   12.5737   86.1120   72.4768 N   0  0  0  0  0  0  0  0  0  0  0  0
   10.5504   84.9167   72.2417 O   0  0  0  0  0  0  0  0  0  0  0  0
   12.7092   85.6489   73.8339 C   0  0  0  0  0  3  0  0  0  0  0  0
   13.4697   84.3599   73.9082 C   0  0  0  0  0  2  0  0  0  0  0  0
   12.9787   83.5549   75.0914 C   0  0  0  0  0  1  0  0  0  0  0  0
   14.9537   85.2965   71.0044 *   0  0  0  0  0  0  0  0  0  0  0  0
   11.4090   85.5439   74.5563 C   0  0  0  0  0  2  0  0  0  0  0  0
   11.6980   85.3298   76.0262 C   0  0  0  0  0  1  0  0  0  0  0  0
   14.9537   85.2965   71.0044 *   0  0  0  0  0  0  0  0  0  0  0  0
  1  2  1  0
  2  6  1  0
  2  5  2  0
  3  4  2  0
  3  7  1  0
  5  3  1  0
  6  4  1  0
  8  7  1  0
  9 10  2  0
  9  8  1  0
 10 15  1  0
 11 10  1  0
 12 11  2  0
 13  9  1  0
 14 12  1  0
 14 13  2  0
 16  1  1  0
 16 17  1  0
 18 16  1  0
 19 18  1  0
 20 18  2  0
 21 22  1  0
 21 19  1  0
 23 22  1  0
 25 21  1  0
 26 25  1  0
M  RAD  8   7   3  11   2  12   2  13   2  14   2  15   2  16   2  17   2
M  RAD  5  21   2  22   3  23   2  25   3  26   2
V   24 *
V   27 *
M  END
>  <REMARK>  (1) 
 SMILES Cc1ccccc1OCc1n[nH]c(SC(C)C(=O)NC2CCCCCC2)n1
 SMILES IDX 14 1 13 2 10 3 11 4 27 5 12 6 9 8 8 9 7 10 2 11 3 12 4 13
 SMILES IDX 6 14 5 15 1 16 15 17 16 18 17 19 19 20 18 21 20 23 21 24
 SMILES IDX 22 25 23 26 26 28 25 29 24 30
 H PARENT 12 7 19 22
 Flexibility Score:   83.900

>  <TORSDO>  (1) 
F 7

$$$$
