/home/pchatterjee/Documents/git/vs_workflow/DiffDock/diffdock_run/pdbqt_scrubbed/Z237513862.pdbqt
     RDKit          3D

 27 26  0  0  1  0  0  0  0  0999 V2000
    7.5025   83.5398   72.1383 S   0  0  0  0  0  0  0  0  0  0  0  0
    9.2103   83.5638   72.6351 C   0  0  0  0  0  0  0  0  0  0  0  0
   11.2096   84.3912   73.0800 C   0  0  0  0  0  0  0  0  0  0  0  0
   11.2076   83.0647   73.3062 N   0  0  0  0  0  0  0  0  0  0  0  0
    9.9562   84.6846   72.6622 N   0  0  0  0  0  0  0  0  0  0  0  0
   10.0086   82.5635   73.0402 N   0  0  0  0  0  0  0  0  0  0  0  0
   12.3102   85.3776   73.2341 C   0  0  0  0  0  2  0  0  0  0  0  0
   13.3009   85.2110   72.2558 O   0  0  0  0  0  0  0  0  0  0  0  0
   13.9098   84.0226   71.9176 C   0  0  0  0  0  0  0  0  0  0  0  0
   13.4594   83.1595   70.9509 C   0  0  0  0  0  0  0  0  0  0  0  0
   14.1200   81.9699   70.6536 C   0  0  0  0  0  3  0  0  0  0  0  0
   15.2561   81.6484   71.3468 C   0  0  0  0  0  3  0  0  0  0  0  0
   15.0646   83.6906   72.6186 C   0  0  0  0  0  3  0  0  0  0  0  0
   15.6966   82.5149   72.3079 C   0  0  0  0  0  3  0  0  0  0  0  0
   12.2402   83.4973   70.2019 C   0  0  0  0  0  1  0  0  0  0  0  0
    6.3950   83.8029   73.5439 C   0  0  0  0  0  3  0  0  0  0  0  0
    4.9686   83.7778   73.0972 C   0  0  0  0  0  1  0  0  0  0  0  0
    6.6674   82.7111   74.5414 C   0  0  0  0  0  0  0  0  0  0  0  0
    7.8412   82.7392   75.3428 N   0  0  0  0  0  0  0  0  0  0  0  0
    5.8055   81.7812   74.6248 O   0  0  0  0  0  0  0  0  0  0  0  0
    8.0384   81.6612   76.2774 C   0  0  0  0  0  3  0  0  0  0  0  0
    8.7975   80.5246   75.6633 C   0  0  0  0  0  2  0  0  0  0  0  0
    8.3596   79.2251   76.3024 C   0  0  0  0  0  1  0  0  0  0  0  0
   10.1475   82.8209   73.5618 *   0  0  0  0  0  0  0  0  0  0  0  0
    6.7729   81.1815   76.9035 C   0  0  0  0  0  2  0  0  0  0  0  0
    7.1294   80.2655   78.0541 C   0  0  0  0  0  1  0  0  0  0  0  0
   10.1475   82.8209   73.5618 *   0  0  0  0  0  0  0  0  0  0  0  0
  1  2  1  0
  2  6  1  0
  2  5  2  0
  3  4  2  0
  3  7  1  0
  5  3  1  0
  6  4  1  0
  8  7  1  0
  9 10  2  0
  9  8  1  0
 10 15  1  0
 11 10  1  0
 12 11  2  0
 13  9  1  0
 14 12  1  0
 14 13  2  0
 16  1  1  0
 16 17  1  0
 18 16  1  0
 19 18  1  0
 20 18  2  0
 21 22  1  0
 21 19  1  0
 23 22  1  0
 25 21  1  0
 26 25  1  0
M  RAD  8   7   3  11   2  12   2  13   2  14   2  15   2  16   2  17   2
M  RAD  5  21   2  22   3  23   2  25   3  26   2
V   24 *
V   27 *
M  END
>  <REMARK>  (1) 
 SMILES Cc1ccccc1OCc1n[nH]c(SC(C)C(=O)NC2CCCCCC2)n1
 SMILES IDX 14 1 13 2 10 3 11 4 27 5 12 6 9 8 8 9 7 10 2 11 3 12 4 13
 SMILES IDX 6 14 5 15 1 16 15 17 16 18 17 19 19 20 18 21 20 23 21 24
 SMILES IDX 22 25 23 26 26 28 25 29 24 30
 H PARENT 12 7 19 22
 Flexibility Score:   83.900

>  <TORSDO>  (1) 
F 7

$$$$
