/home/pchatterjee/Documents/git/vs_workflow/DiffDock/diffdock_run/pdbqt_scrubbed/Z237513862.pdbqt
     RDKit          3D

 27 26  0  0  1  0  0  0  0  0999 V2000
   16.2539   88.1815   71.5165 S   0  0  0  0  0  0  0  0  0  0  0  0
   14.9879   87.0430   71.0017 C   0  0  0  0  0  0  0  0  0  0  0  0
   13.1005   86.3422   70.0928 C   0  0  0  0  0  0  0  0  0  0  0  0
   13.7748   85.2946   70.6016 N   0  0  0  0  0  0  0  0  0  0  0  0
   13.8719   87.4237   70.3515 N   0  0  0  0  0  0  0  0  0  0  0  0
   14.9093   85.7110   71.1485 N   0  0  0  0  0  0  0  0  0  0  0  0
   11.7922   86.3762   69.3891 C   0  0  0  0  0  2  0  0  0  0  0  0
   10.7246   86.1139   70.2597 O   0  0  0  0  0  0  0  0  0  0  0  0
   10.6446   85.0617   71.1451 C   0  0  0  0  0  0  0  0  0  0  0  0
   11.0915   85.0941   72.4420 C   0  0  0  0  0  0  0  0  0  0  0  0
   10.9825   83.9954   73.2909 C   0  0  0  0  0  3  0  0  0  0  0  0
   10.4114   82.8440   72.8191 C   0  0  0  0  0  3  0  0  0  0  0  0
   10.0653   83.8892   70.6714 C   0  0  0  0  0  3  0  0  0  0  0  0
    9.9694   82.8218   71.5257 C   0  0  0  0  0  3  0  0  0  0  0  0
   11.7060   86.3268   72.9563 C   0  0  0  0  0  1  0  0  0  0  0  0
   17.5148   88.3999   70.2382 C   0  0  0  0  0  3  0  0  0  0  0  0
   18.5641   89.3604   70.6978 C   0  0  0  0  0  1  0  0  0  0  0  0
   18.1080   87.0471   69.9560 C   0  0  0  0  0  0  0  0  0  0  0  0
   17.3831   86.0811   69.2061 N   0  0  0  0  0  0  0  0  0  0  0  0
   19.2704   86.8222   70.4171 O   0  0  0  0  0  0  0  0  0  0  0  0
   18.0118   84.8064   68.9735 C   0  0  0  0  0  3  0  0  0  0  0  0
   17.6935   83.8231   70.0585 C   0  0  0  0  0  2  0  0  0  0  0  0
   18.8526   82.8650   70.2235 C   0  0  0  0  0  1  0  0  0  0  0  0
   14.8486   85.6015   70.5638 *   0  0  0  0  0  0  0  0  0  0  0  0
   19.4839   84.9031   68.7559 C   0  0  0  0  0  2  0  0  0  0  0  0
   19.9779   83.5663   68.2471 C   0  0  0  0  0  1  0  0  0  0  0  0
   14.8486   85.6015   70.5638 *   0  0  0  0  0  0  0  0  0  0  0  0
  1  2  1  0
  2  6  1  0
  2  5  2  0
  3  4  2  0
  3  7  1  0
  5  3  1  0
  6  4  1  0
  8  7  1  0
  9 10  2  0
  9  8  1  0
 10 15  1  0
 11 10  1  0
 12 11  2  0
 13  9  1  0
 14 12  1  0
 14 13  2  0
 16  1  1  0
 16 17  1  0
 18 16  1  0
 19 18  1  0
 20 18  2  0
 21 22  1  0
 21 19  1  0
 23 22  1  0
 25 21  1  0
 26 25  1  0
M  RAD  8   7   3  11   2  12   2  13   2  14   2  15   2  16   2  17   2
M  RAD  5  21   2  22   3  23   2  25   3  26   2
V   24 *
V   27 *
M  END
>  <REMARK>  (1) 
 SMILES Cc1ccccc1OCc1n[nH]c(SC(C)C(=O)NC2CCCCCC2)n1
 SMILES IDX 14 1 13 2 10 3 11 4 27 5 12 6 9 8 8 9 7 10 2 11 3 12 4 13
 SMILES IDX 6 14 5 15 1 16 15 17 16 18 17 19 19 20 18 21 20 23 21 24
 SMILES IDX 22 25 23 26 26 28 25 29 24 30
 H PARENT 12 7 19 22
 Flexibility Score:   83.900

>  <TORSDO>  (1) 
F 7

$$$$
