/home/pchatterjee/Documents/git/vs_workflow/DiffDock/diffdock_run/pdbqt_scrubbed/Z237513862.pdbqt
     RDKit          3D

 27 26  0  0  1  0  0  0  0  0999 V2000
    8.6695   45.2144   49.8557 S   0  0  0  0  0  0  0  0  0  0  0  0
    7.3585   44.0123   49.8393 C   0  0  0  0  0  0  0  0  0  0  0  0
    6.3917   42.0263   49.8184 C   0  0  0  0  0  0  0  0  0  0  0  0
    5.4508   42.9882   49.8212 N   0  0  0  0  0  0  0  0  0  0  0  0
    7.5749   42.6833   49.8298 N   0  0  0  0  0  0  0  0  0  0  0  0
    6.0271   44.1830   49.8337 N   0  0  0  0  0  0  0  0  0  0  0  0
    6.2367   40.5485   49.8058 C   0  0  0  0  0  2  0  0  0  0  0  0
    5.7609   40.0844   48.5711 O   0  0  0  0  0  0  0  0  0  0  0  0
    4.6722   40.5794   47.8876 C   0  0  0  0  0  0  0  0  0  0  0  0
    4.7219   41.5945   46.9658 C   0  0  0  0  0  0  0  0  0  0  0  0
    3.5840   42.0525   46.3060 C   0  0  0  0  0  3  0  0  0  0  0  0
    2.3751   41.4731   46.5840 C   0  0  0  0  0  3  0  0  0  0  0  0
    3.4411   39.9947   48.1658 C   0  0  0  0  0  3  0  0  0  0  0  0
    2.3362   40.4626   47.5038 C   0  0  0  0  0  3  0  0  0  0  0  0
    6.0162   42.2219   46.6616 C   0  0  0  0  0  1  0  0  0  0  0  0
    9.1525   45.6519   51.5429 C   0  0  0  0  0  3  0  0  0  0  0  0
   10.2542   46.6622   51.5258 C   0  0  0  0  0  1  0  0  0  0  0  0
    7.9322   46.1959   52.2332 C   0  0  0  0  0  0  0  0  0  0  0  0
    6.8924   45.3248   52.6582 N   0  0  0  0  0  0  0  0  0  0  0  0
    7.8854   47.4532   52.4108 O   0  0  0  0  0  0  0  0  0  0  0  0
    5.7527   45.9139   53.3128 C   0  0  0  0  0  3  0  0  0  0  0  0
    4.6831   46.2919   52.3338 C   0  0  0  0  0  2  0  0  0  0  0  0
    3.9266   47.4936   52.8559 C   0  0  0  0  0  1  0  0  0  0  0  0
    5.9348   43.8588   50.3277 *   0  0  0  0  0  0  0  0  0  0  0  0
    6.1046   47.0669   54.1905 C   0  0  0  0  0  2  0  0  0  0  0  0
    4.8934   47.4126   55.0292 C   0  0  0  0  0  1  0  0  0  0  0  0
    5.9348   43.8588   50.3277 *   0  0  0  0  0  0  0  0  0  0  0  0
  1  2  1  0
  2  6  1  0
  2  5  2  0
  3  4  2  0
  3  7  1  0
  5  3  1  0
  6  4  1  0
  8  7  1  0
  9 10  2  0
  9  8  1  0
 10 15  1  0
 11 10  1  0
 12 11  2  0
 13  9  1  0
 14 12  1  0
 14 13  2  0
 16  1  1  0
 16 17  1  0
 18 16  1  0
 19 18  1  0
 20 18  2  0
 21 22  1  0
 21 19  1  0
 23 22  1  0
 25 21  1  0
 26 25  1  0
M  RAD  8   7   3  11   2  12   2  13   2  14   2  15   2  16   2  17   2
M  RAD  5  21   2  22   3  23   2  25   3  26   2
V   24 *
V   27 *
M  END
>  <REMARK>  (1) 
 SMILES Cc1ccccc1OCc1n[nH]c(SC(C)C(=O)NC2CCCCCC2)n1
 SMILES IDX 14 1 13 2 10 3 11 4 27 5 12 6 9 8 8 9 7 10 2 11 3 12 4 13
 SMILES IDX 6 14 5 15 1 16 15 17 16 18 17 19 19 20 18 21 20 23 21 24
 SMILES IDX 22 25 23 26 26 28 25 29 24 30
 H PARENT 12 7 19 22
 Flexibility Score:   83.900

>  <TORSDO>  (1) 
F 7

$$$$
