/home/pchatterjee/Documents/git/vs_workflow/DiffDock/diffdock_run/pdbqt_scrubbed/Z237513862.pdbqt
     RDKit          3D

 27 26  0  0  1  0  0  0  0  0999 V2000
    8.7269   45.0327   49.9659 S   0  0  0  0  0  0  0  0  0  0  0  0
    7.3536   43.9033   49.9171 C   0  0  0  0  0  0  0  0  0  0  0  0
    6.2814   41.9725   49.8752 C   0  0  0  0  0  0  0  0  0  0  0  0
    5.3943   42.9840   49.8499 N   0  0  0  0  0  0  0  0  0  0  0  0
    7.4977   42.5645   49.9170 N   0  0  0  0  0  0  0  0  0  0  0  0
    6.0340   44.1458   49.8750 N   0  0  0  0  0  0  0  0  0  0  0  0
    6.0468   40.5052   49.8622 C   0  0  0  0  0  2  0  0  0  0  0  0
    5.5800   40.0625   48.6162 O   0  0  0  0  0  0  0  0  0  0  0  0
    4.5386   40.6130   47.9022 C   0  0  0  0  0  0  0  0  0  0  0  0
    4.6681   41.6201   46.9794 C   0  0  0  0  0  0  0  0  0  0  0  0
    3.5750   42.1364   46.2878 C   0  0  0  0  0  3  0  0  0  0  0  0
    2.3294   41.6245   46.5344 C   0  0  0  0  0  3  0  0  0  0  0  0
    3.2706   40.0969   48.1484 C   0  0  0  0  0  3  0  0  0  0  0  0
    2.2109   40.6213   47.4555 C   0  0  0  0  0  3  0  0  0  0  0  0
    6.0023   42.1753   46.7089 C   0  0  0  0  0  1  0  0  0  0  0  0
    9.1873   45.4503   51.6645 C   0  0  0  0  0  3  0  0  0  0  0  0
   10.3423   46.3994   51.6746 C   0  0  0  0  0  1  0  0  0  0  0  0
    7.9802   46.0624   52.3200 C   0  0  0  0  0  0  0  0  0  0  0  0
    6.8835   45.2506   52.7189 N   0  0  0  0  0  0  0  0  0  0  0  0
    7.9968   47.3211   52.4930 O   0  0  0  0  0  0  0  0  0  0  0  0
    5.7602   45.9033   53.3408 C   0  0  0  0  0  3  0  0  0  0  0  0
    4.7395   46.3346   52.3321 C   0  0  0  0  0  2  0  0  0  0  0  0
    4.0355   47.5776   52.8304 C   0  0  0  0  0  1  0  0  0  0  0  0
    5.9110   43.8291   50.3671 *   0  0  0  0  0  0  0  0  0  0  0  0
    6.1503   47.0391   54.2246 C   0  0  0  0  0  2  0  0  0  0  0  0
    4.9375   47.4533   55.0293 C   0  0  0  0  0  1  0  0  0  0  0  0
    5.9110   43.8291   50.3671 *   0  0  0  0  0  0  0  0  0  0  0  0
  1  2  1  0
  2  6  1  0
  2  5  2  0
  3  4  2  0
  3  7  1  0
  5  3  1  0
  6  4  1  0
  8  7  1  0
  9 10  2  0
  9  8  1  0
 10 15  1  0
 11 10  1  0
 12 11  2  0
 13  9  1  0
 14 12  1  0
 14 13  2  0
 16  1  1  0
 16 17  1  0
 18 16  1  0
 19 18  1  0
 20 18  2  0
 21 22  1  0
 21 19  1  0
 23 22  1  0
 25 21  1  0
 26 25  1  0
M  RAD  8   7   3  11   2  12   2  13   2  14   2  15   2  16   2  17   2
M  RAD  5  21   2  22   3  23   2  25   3  26   2
V   24 *
V   27 *
M  END
>  <REMARK>  (1) 
 SMILES Cc1ccccc1OCc1n[nH]c(SC(C)C(=O)NC2CCCCCC2)n1
 SMILES IDX 14 1 13 2 10 3 11 4 27 5 12 6 9 8 8 9 7 10 2 11 3 12 4 13
 SMILES IDX 6 14 5 15 1 16 15 17 16 18 17 19 19 20 18 21 20 23 21 24
 SMILES IDX 22 25 23 26 26 28 25 29 24 30
 H PARENT 12 7 19 22
 Flexibility Score:   83.900

>  <TORSDO>  (1) 
F 7

$$$$
