/home/pchatterjee/Documents/git/vs_workflow/DiffDock/diffdock_run/pdbqt_scrubbed/Z237513862.pdbqt
     RDKit          3D

 27 26  0  0  1  0  0  0  0  0999 V2000
    8.5765   45.1777   49.7623 S   0  0  0  0  0  0  0  0  0  0  0  0
    7.2288   44.0173   49.7225 C   0  0  0  0  0  0  0  0  0  0  0  0
    6.2005   42.0626   49.6903 C   0  0  0  0  0  0  0  0  0  0  0  0
    5.2906   43.0537   49.6662 N   0  0  0  0  0  0  0  0  0  0  0  0
    7.4033   42.6821   49.7253 N   0  0  0  0  0  0  0  0  0  0  0  0
    5.9040   44.2298   49.6854 N   0  0  0  0  0  0  0  0  0  0  0  0
    5.9992   40.5904   49.6823 C   0  0  0  0  0  2  0  0  0  0  0  0
    5.5372   40.1338   48.4396 O   0  0  0  0  0  0  0  0  0  0  0  0
    4.4806   40.6585   47.7286 C   0  0  0  0  0  0  0  0  0  0  0  0
    4.5833   41.6658   46.8026 C   0  0  0  0  0  0  0  0  0  0  0  0
    3.4758   42.1553   46.1143 C   0  0  0  0  0  3  0  0  0  0  0  0
    2.2432   41.6160   46.3676 C   0  0  0  0  0  3  0  0  0  0  0  0
    3.2256   40.1146   47.9816 C   0  0  0  0  0  3  0  0  0  0  0  0
    2.1514   40.6130   47.2918 C   0  0  0  0  0  3  0  0  0  0  0  0
    5.9034   42.2503   46.5247 C   0  0  0  0  0  1  0  0  0  0  0  0
    9.0345   45.6103   51.4578 C   0  0  0  0  0  3  0  0  0  0  0  0
   10.1677   46.5852   51.4604 C   0  0  0  0  0  1  0  0  0  0  0  0
    7.8166   46.1967   52.1168 C   0  0  0  0  0  0  0  0  0  0  0  0
    6.7403   45.3614   52.5227 N   0  0  0  0  0  0  0  0  0  0  0  0
    7.8055   47.4559   52.2864 O   0  0  0  0  0  0  0  0  0  0  0  0
    5.6052   45.9902   53.1476 C   0  0  0  0  0  3  0  0  0  0  0  0
    4.5707   46.3955   52.1423 C   0  0  0  0  0  2  0  0  0  0  0  0
    3.8409   47.6236   52.6402 C   0  0  0  0  0  1  0  0  0  0  0  0
    5.7903   43.9117   50.1789 *   0  0  0  0  0  0  0  0  0  0  0  0
    5.9733   47.1370   54.0268 C   0  0  0  0  0  2  0  0  0  0  0  0
    4.7548   47.5259   54.8356 C   0  0  0  0  0  1  0  0  0  0  0  0
    5.7903   43.9117   50.1789 *   0  0  0  0  0  0  0  0  0  0  0  0
  1  2  1  0
  2  6  1  0
  2  5  2  0
  3  4  2  0
  3  7  1  0
  5  3  1  0
  6  4  1  0
  8  7  1  0
  9 10  2  0
  9  8  1  0
 10 15  1  0
 11 10  1  0
 12 11  2  0
 13  9  1  0
 14 12  1  0
 14 13  2  0
 16  1  1  0
 16 17  1  0
 18 16  1  0
 19 18  1  0
 20 18  2  0
 21 22  1  0
 21 19  1  0
 23 22  1  0
 25 21  1  0
 26 25  1  0
M  RAD  8   7   3  11   2  12   2  13   2  14   2  15   2  16   2  17   2
M  RAD  5  21   2  22   3  23   2  25   3  26   2
V   24 *
V   27 *
M  END
>  <REMARK>  (1) 
 SMILES Cc1ccccc1OCc1n[nH]c(SC(C)C(=O)NC2CCCCCC2)n1
 SMILES IDX 14 1 13 2 10 3 11 4 27 5 12 6 9 8 8 9 7 10 2 11 3 12 4 13
 SMILES IDX 6 14 5 15 1 16 15 17 16 18 17 19 19 20 18 21 20 23 21 24
 SMILES IDX 22 25 23 26 26 28 25 29 24 30
 H PARENT 12 7 19 22
 Flexibility Score:   83.900

>  <TORSDO>  (1) 
F 7

$$$$
