/home/pchatterjee/Documents/git/vs_workflow/DiffDock/diffdock_run/pdbqt_scrubbed/Z237513862.pdbqt
     RDKit          3D

 27 26  0  0  1  0  0  0  0  0999 V2000
    8.6323   45.2457   49.8061 S   0  0  0  0  0  0  0  0  0  0  0  0
    7.3251   44.0394   49.8053 C   0  0  0  0  0  0  0  0  0  0  0  0
    6.3647   42.0502   49.8049 C   0  0  0  0  0  0  0  0  0  0  0  0
    5.4206   43.0092   49.8037 N   0  0  0  0  0  0  0  0  0  0  0  0
    7.5457   42.7110   49.8059 N   0  0  0  0  0  0  0  0  0  0  0  0
    5.9932   44.2057   49.8040 N   0  0  0  0  0  0  0  0  0  0  0  0
    6.2143   40.5718   49.8052 C   0  0  0  0  0  2  0  0  0  0  0  0
    5.7348   40.0960   48.5764 O   0  0  0  0  0  0  0  0  0  0  0  0
    4.6417   40.5819   47.8934 C   0  0  0  0  0  0  0  0  0  0  0  0
    4.6842   41.5894   46.9631 C   0  0  0  0  0  0  0  0  0  0  0  0
    3.5421   42.0384   46.3043 C   0  0  0  0  0  3  0  0  0  0  0  0
    2.3362   41.4575   46.5922 C   0  0  0  0  0  3  0  0  0  0  0  0
    3.4136   39.9956   48.1817 C   0  0  0  0  0  3  0  0  0  0  0  0
    2.3044   40.4546   47.5205 C   0  0  0  0  0  3  0  0  0  0  0  0
    5.9752   42.2185   46.6482 C   0  0  0  0  0  1  0  0  0  0  0  0
    9.1211   45.6987   51.4877 C   0  0  0  0  0  3  0  0  0  0  0  0
   10.2195   46.7123   51.4575 C   0  0  0  0  0  1  0  0  0  0  0  0
    7.9020   46.2446   52.1785 C   0  0  0  0  0  0  0  0  0  0  0  0
    6.8667   45.3737   52.6152 N   0  0  0  0  0  0  0  0  0  0  0  0
    7.8518   47.5031   52.3460 O   0  0  0  0  0  0  0  0  0  0  0  0
    5.7279   45.9646   53.2697 C   0  0  0  0  0  3  0  0  0  0  0  0
    4.6529   46.3311   52.2921 C   0  0  0  0  0  2  0  0  0  0  0  0
    3.8949   47.5346   52.8075 C   0  0  0  0  0  1  0  0  0  0  0  0
    5.9040   43.8854   50.3009 *   0  0  0  0  0  0  0  0  0  0  0  0
    6.0798   47.1260   54.1363 C   0  0  0  0  0  2  0  0  0  0  0  0
    4.8710   47.4748   54.9773 C   0  0  0  0  0  1  0  0  0  0  0  0
    5.9040   43.8854   50.3009 *   0  0  0  0  0  0  0  0  0  0  0  0
  1  2  1  0
  2  6  1  0
  2  5  2  0
  3  4  2  0
  3  7  1  0
  5  3  1  0
  6  4  1  0
  8  7  1  0
  9 10  2  0
  9  8  1  0
 10 15  1  0
 11 10  1  0
 12 11  2  0
 13  9  1  0
 14 12  1  0
 14 13  2  0
 16  1  1  0
 16 17  1  0
 18 16  1  0
 19 18  1  0
 20 18  2  0
 21 22  1  0
 21 19  1  0
 23 22  1  0
 25 21  1  0
 26 25  1  0
M  RAD  8   7   3  11   2  12   2  13   2  14   2  15   2  16   2  17   2
M  RAD  5  21   2  22   3  23   2  25   3  26   2
V   24 *
V   27 *
M  END
>  <REMARK>  (1) 
 SMILES Cc1ccccc1OCc1n[nH]c(SC(C)C(=O)NC2CCCCCC2)n1
 SMILES IDX 14 1 13 2 10 3 11 4 27 5 12 6 9 8 8 9 7 10 2 11 3 12 4 13
 SMILES IDX 6 14 5 15 1 16 15 17 16 18 17 19 19 20 18 21 20 23 21 24
 SMILES IDX 22 25 23 26 26 28 25 29 24 30
 H PARENT 12 7 19 22
 Flexibility Score:   83.900

>  <TORSDO>  (1) 
F 7

$$$$
