/home/pchatterjee/Documents/git/vs_workflow/DiffDock/diffdock_run/pdbqt_scrubbed/Z237513862.pdbqt
     RDKit          3D

 27 26  0  0  1  0  0  0  0  0999 V2000
    8.6632   44.9859   49.8725 S   0  0  0  0  0  0  0  0  0  0  0  0
    7.2841   43.8656   49.7872 C   0  0  0  0  0  0  0  0  0  0  0  0
    6.2006   41.9420   49.7175 C   0  0  0  0  0  0  0  0  0  0  0  0
    5.3213   42.9594   49.6677 N   0  0  0  0  0  0  0  0  0  0  0  0
    7.4192   42.5259   49.7918 N   0  0  0  0  0  0  0  0  0  0  0  0
    5.9679   44.1169   49.7094 N   0  0  0  0  0  0  0  0  0  0  0  0
    5.9566   40.4763   49.6990 C   0  0  0  0  0  2  0  0  0  0  0  0
    5.5207   40.0358   48.4411 O   0  0  0  0  0  0  0  0  0  0  0  0
    4.5026   40.5927   47.6989 C   0  0  0  0  0  0  0  0  0  0  0  0
    4.6637   41.5982   46.7794 C   0  0  0  0  0  0  0  0  0  0  0  0
    3.5932   42.1213   46.0582 C   0  0  0  0  0  3  0  0  0  0  0  0
    2.3379   41.6179   46.2713 C   0  0  0  0  0  3  0  0  0  0  0  0
    3.2249   40.0853   47.9111 C   0  0  0  0  0  3  0  0  0  0  0  0
    2.1879   40.6163   47.1895 C   0  0  0  0  0  3  0  0  0  0  0  0
    6.0085   42.1443   46.5447 C   0  0  0  0  0  1  0  0  0  0  0  0
    9.0804   45.4016   51.5827 C   0  0  0  0  0  3  0  0  0  0  0  0
   10.2410   46.3429   51.6235 C   0  0  0  0  0  1  0  0  0  0  0  0
    7.8601   46.0223   52.2049 C   0  0  0  0  0  0  0  0  0  0  0  0
    6.7476   45.2181   52.5746 N   0  0  0  0  0  0  0  0  0  0  0  0
    7.8805   47.2810   52.3776 O   0  0  0  0  0  0  0  0  0  0  0  0
    5.6124   45.8787   53.1655 C   0  0  0  0  0  3  0  0  0  0  0  0
    4.6222   46.3162   52.1294 C   0  0  0  0  0  2  0  0  0  0  0  0
    3.9134   47.5642   52.6078 C   0  0  0  0  0  1  0  0  0  0  0  0
    5.8295   43.8014   50.1981 *   0  0  0  0  0  0  0  0  0  0  0  0
    5.9861   47.0126   54.0590 C   0  0  0  0  0  2  0  0  0  0  0  0
    4.7548   47.4355   54.8303 C   0  0  0  0  0  1  0  0  0  0  0  0
    5.8295   43.8014   50.1981 *   0  0  0  0  0  0  0  0  0  0  0  0
  1  2  1  0
  2  6  1  0
  2  5  2  0
  3  4  2  0
  3  7  1  0
  5  3  1  0
  6  4  1  0
  8  7  1  0
  9 10  2  0
  9  8  1  0
 10 15  1  0
 11 10  1  0
 12 11  2  0
 13  9  1  0
 14 12  1  0
 14 13  2  0
 16  1  1  0
 16 17  1  0
 18 16  1  0
 19 18  1  0
 20 18  2  0
 21 22  1  0
 21 19  1  0
 23 22  1  0
 25 21  1  0
 26 25  1  0
M  RAD  8   7   3  11   2  12   2  13   2  14   2  15   2  16   2  17   2
M  RAD  5  21   2  22   3  23   2  25   3  26   2
V   24 *
V   27 *
M  END
>  <REMARK>  (1) 
 SMILES Cc1ccccc1OCc1n[nH]c(SC(C)C(=O)NC2CCCCCC2)n1
 SMILES IDX 14 1 13 2 10 3 11 4 27 5 12 6 9 8 8 9 7 10 2 11 3 12 4 13
 SMILES IDX 6 14 5 15 1 16 15 17 16 18 17 19 19 20 18 21 20 23 21 24
 SMILES IDX 22 25 23 26 26 28 25 29 24 30
 H PARENT 12 7 19 22
 Flexibility Score:   83.900

>  <TORSDO>  (1) 
F 7

$$$$
