/home/pchatterjee/Documents/git/vs_workflow/DiffDock/diffdock_run/pdbqt_scrubbed/Z1587228937.pdbqt
     RDKit          3D

 25 28  0  0  1  0  0  0  0  0999 V2000
    7.0904   46.2195   52.0516 C   0  0  0  0  0  3  0  0  0  0  0  0
    8.0115   45.2255   51.4635 C   0  0  0  0  0  2  0  0  0  0  0  0
    7.3761   43.9907   50.9167 C   0  0  0  0  0  2  0  0  0  0  0  0
    6.1054   43.6691   51.5221 N   0  0  0  0  0  0  0  0  0  0  0  0
    5.8611   44.2305   52.8546 C   0  0  0  0  0  2  0  0  0  0  0  0
    5.8049   45.7217   52.5982 C   0  0  0  0  0  2  0  0  0  0  0  0
    7.8242   46.9988   53.0835 C   0  0  0  0  0  0  0  0  0  0  0  0
    7.1857   47.9205   53.9591 N   0  0  0  0  0  0  0  0  0  0  0  0
    9.0825   46.8160   53.1689 O   0  0  0  0  0  0  0  0  0  0  0  0
    7.9959   49.0246   54.4551 C   0  0  0  0  0  2  0  0  0  0  0  0
    7.0670   50.2032   54.5094 C   0  0  0  0  0  0  0  0  0  0  0  0
    5.7239   50.0284   54.1870 C   0  0  0  0  0  3  0  0  0  0  0  0
    7.5782   51.4271   54.8792 C   0  0  0  0  0  3  0  0  0  0  0  0
    4.9287   51.1541   54.2585 C   0  0  0  0  0  3  0  0  0  0  0  0
    6.7470   52.4907   54.9298 N   0  0  0  0  0  0  0  0  0  0  0  0
    5.4319   52.3845   54.6280 C   0  0  0  0  0  3  0  0  0  0  0  0
    5.1486   42.8534   50.8585 C   0  0  0  0  0  0  0  0  0  0  0  0
    3.8804   42.8517   51.3587 N   0  0  0  0  0  0  0  0  0  0  0  0
    5.4371   42.0815   49.7571 C   0  0  0  0  0  0  0  0  0  0  0  0
    2.9190   42.1020   50.7813 C   0  0  0  0  0  3  0  0  0  0  0  0
    6.5646   41.8953   49.0722 N   0  0  0  0  0  0  0  0  0  0  0  0
    4.4239   41.3297   49.1974 C   0  0  0  0  0  0  0  0  0  0  0  0
    3.1851   41.3395   49.7009 N   0  0  0  0  0  0  0  0  0  0  0  0
    6.2558   41.0294   48.0874 C   0  0  0  0  0  3  0  0  0  0  0  0
    4.9560   40.6841   48.1611 N   0  0  0  0  0  0  0  0  0  0  0  0
  1  7  1  0
  2  1  1  0
  3  2  1  0
  4  3  1  0
  5  4  1  0
  5  6  1  0
  6  1  1  0
  7  8  1  0
  7  9  2  0
  8 10  1  0
 11 10  1  0
 12 11  2  0
 13 11  1  0
 14 12  1  0
 15 13  2  0
 16 14  2  0
 16 15  1  0
 17  4  1  0
 18 17  2  0
 19 17  1  0
 19 21  1  0
 20 18  1  0
 22 25  1  0
 22 19  2  0
 23 20  2  0
 23 22  1  0
 24 21  1  0
 25 24  2  0
M  RAD  8   1   2   2   3   3   3   5   3   6   3  10   3  12   2  13   2
M  RAD  4  14   2  16   2  20   2  24   2
M  END
>  <REMARK>  (1) 
 SMILES O=C(NCc1cccnc1)C1CCN(c2ncnc3nc[nH]c23)CC1
 SMILES IDX 11 1 12 2 13 3 14 4 24 5 25 6 2 7 3 8 1 9 4 11 5 12 6 13
 SMILES IDX 10 14 7 15 9 16 8 17 15 18 16 19 23 20 17 21 22 22 19 23
 SMILES IDX 18 24 21 25 20 26
 H PARENT 3 10 22 27

>  <TORSDO>  (1) 
F 4

$$$$
