/home/pchatterjee/Documents/git/vs_workflow/DiffDock/diffdock_run/pdbqt_scrubbed/Z1587228937.pdbqt
     RDKit          3D

 25 28  0  0  1  0  0  0  0  0999 V2000
    6.3818   47.7455   53.5578 C   0  0  0  0  0  3  0  0  0  0  0  0
    7.8224   48.0594   53.6508 C   0  0  0  0  0  2  0  0  0  0  0  0
    8.7235   47.2530   52.7759 C   0  0  0  0  0  2  0  0  0  0  0  0
    8.1905   45.9588   52.4213 N   0  0  0  0  0  0  0  0  0  0  0  0
    7.1643   45.4129   53.3153 C   0  0  0  0  0  2  0  0  0  0  0  0
    6.0062   46.3727   53.1414 C   0  0  0  0  0  2  0  0  0  0  0  0
    5.7336   48.0896   54.8508 C   0  0  0  0  0  0  0  0  0  0  0  0
    4.8027   47.2345   55.5036 N   0  0  0  0  0  0  0  0  0  0  0  0
    6.0417   49.2073   55.3799 O   0  0  0  0  0  0  0  0  0  0  0  0
    3.4133   47.6709   55.5254 C   0  0  0  0  0  2  0  0  0  0  0  0
    2.6875   46.7246   54.6129 C   0  0  0  0  0  0  0  0  0  0  0  0
    2.4181   47.1121   53.3031 C   0  0  0  0  0  3  0  0  0  0  0  0
    2.3097   45.4955   55.1056 C   0  0  0  0  0  3  0  0  0  0  0  0
    1.7483   46.1929   52.5214 C   0  0  0  0  0  3  0  0  0  0  0  0
    1.6565   44.6404   54.2890 N   0  0  0  0  0  0  0  0  0  0  0  0
    1.3657   44.9591   53.0062 C   0  0  0  0  0  3  0  0  0  0  0  0
    8.6396   45.2580   51.2687 C   0  0  0  0  0  0  0  0  0  0  0  0
    9.9234   45.4804   50.8678 N   0  0  0  0  0  0  0  0  0  0  0  0
    7.8546   44.3836   50.5537 C   0  0  0  0  0  0  0  0  0  0  0  0
   10.4193   44.8508   49.7827 C   0  0  0  0  0  3  0  0  0  0  0  0
    6.5933   43.9856   50.7141 N   0  0  0  0  0  0  0  0  0  0  0  0
    8.4016   43.7608   49.4500 C   0  0  0  0  0  0  0  0  0  0  0  0
    9.6630   43.9903   49.0704 N   0  0  0  0  0  0  0  0  0  0  0  0
    6.3536   43.1165   49.7129 C   0  0  0  0  0  3  0  0  0  0  0  0
    7.4504   42.9781   48.9435 N   0  0  0  0  0  0  0  0  0  0  0  0
  1  7  1  0
  2  1  1  0
  3  2  1  0
  4  3  1  0
  5  4  1  0
  5  6  1  0
  6  1  1  0
  7  8  1  0
  7  9  2  0
  8 10  1  0
 11 10  1  0
 12 11  2  0
 13 11  1  0
 14 12  1  0
 15 13  2  0
 16 14  2  0
 16 15  1  0
 17  4  1  0
 18 17  2  0
 19 17  1  0
 19 21  1  0
 20 18  1  0
 22 25  1  0
 22 19  2  0
 23 20  2  0
 23 22  1  0
 24 21  1  0
 25 24  2  0
M  RAD  8   1   2   2   3   3   3   5   3   6   3  10   3  12   2  13   2
M  RAD  4  14   2  16   2  20   2  24   2
M  END
>  <REMARK>  (1) 
 SMILES O=C(NCc1cccnc1)C1CCN(c2ncnc3nc[nH]c23)CC1
 SMILES IDX 11 1 12 2 13 3 14 4 24 5 25 6 2 7 3 8 1 9 4 11 5 12 6 13
 SMILES IDX 10 14 7 15 9 16 8 17 15 18 16 19 23 20 17 21 22 22 19 23
 SMILES IDX 18 24 21 25 20 26
 H PARENT 3 10 22 27

>  <TORSDO>  (1) 
F 4

$$$$
