/home/pchatterjee/Documents/git/vs_workflow/DiffDock/diffdock_run/pdbqt_scrubbed/Z1587228937.pdbqt
     RDKit          3D

 25 28  0  0  1  0  0  0  0  0999 V2000
    7.5856   48.0551   53.5105 C   0  0  0  0  0  3  0  0  0  0  0  0
    8.9756   47.5598   53.5824 C   0  0  0  0  0  2  0  0  0  0  0  0
    9.3263   46.4611   52.6352 C   0  0  0  0  0  2  0  0  0  0  0  0
    8.1962   45.6657   52.2171 N   0  0  0  0  0  0  0  0  0  0  0  0
    7.0286   45.6809   53.1042 C   0  0  0  0  0  2  0  0  0  0  0  0
    6.5486   47.1146   53.0217 C   0  0  0  0  0  2  0  0  0  0  0  0
    7.2038   48.6010   54.8398 C   0  0  0  0  0  0  0  0  0  0  0  0
    5.8907   49.0568   55.1430 N   0  0  0  0  0  0  0  0  0  0  0  0
    8.1114   48.6531   55.7328 O   0  0  0  0  0  0  0  0  0  0  0  0
    5.7847   50.2613   55.9551 C   0  0  0  0  0  2  0  0  0  0  0  0
    5.0811   51.2634   55.0859 C   0  0  0  0  0  0  0  0  0  0  0  0
    4.1903   50.8165   54.1137 C   0  0  0  0  0  3  0  0  0  0  0  0
    5.3424   52.6013   55.2805 C   0  0  0  0  0  3  0  0  0  0  0  0
    3.5801   51.7922   53.3519 C   0  0  0  0  0  3  0  0  0  0  0  0
    4.7122   53.5070   54.5013 N   0  0  0  0  0  0  0  0  0  0  0  0
    3.8355   53.1351   53.5396 C   0  0  0  0  0  3  0  0  0  0  0  0
    8.2200   44.9121   51.0118 C   0  0  0  0  0  0  0  0  0  0  0  0
    9.3932   44.8877   50.3178 N   0  0  0  0  0  0  0  0  0  0  0  0
    7.1362   44.2204   50.5230 C   0  0  0  0  0  0  0  0  0  0  0  0
    9.4912   44.1937   49.1652 C   0  0  0  0  0  3  0  0  0  0  0  0
    5.8944   44.0726   50.9828 N   0  0  0  0  0  0  0  0  0  0  0  0
    7.2798   43.5235   49.3403 C   0  0  0  0  0  0  0  0  0  0  0  0
    8.4380   43.5100   48.6721 N   0  0  0  0  0  0  0  0  0  0  0  0
    5.2646   43.2853   50.0891 C   0  0  0  0  0  3  0  0  0  0  0  0
    6.1039   42.9502   49.0904 N   0  0  0  0  0  0  0  0  0  0  0  0
  1  7  1  0
  2  1  1  0
  3  2  1  0
  4  3  1  0
  5  4  1  0
  5  6  1  0
  6  1  1  0
  7  8  1  0
  7  9  2  0
  8 10  1  0
 11 10  1  0
 12 11  2  0
 13 11  1  0
 14 12  1  0
 15 13  2  0
 16 14  2  0
 16 15  1  0
 17  4  1  0
 18 17  2  0
 19 17  1  0
 19 21  1  0
 20 18  1  0
 22 25  1  0
 22 19  2  0
 23 20  2  0
 23 22  1  0
 24 21  1  0
 25 24  2  0
M  RAD  8   1   2   2   3   3   3   5   3   6   3  10   3  12   2  13   2
M  RAD  4  14   2  16   2  20   2  24   2
M  END
>  <REMARK>  (1) 
 SMILES O=C(NCc1cccnc1)C1CCN(c2ncnc3nc[nH]c23)CC1
 SMILES IDX 11 1 12 2 13 3 14 4 24 5 25 6 2 7 3 8 1 9 4 11 5 12 6 13
 SMILES IDX 10 14 7 15 9 16 8 17 15 18 16 19 23 20 17 21 22 22 19 23
 SMILES IDX 18 24 21 25 20 26
 H PARENT 3 10 22 27

>  <TORSDO>  (1) 
F 4

$$$$
