/home/pchatterjee/Documents/git/vs_workflow/DiffDock/diffdock_run/pdbqt_scrubbed/Z1587228937.pdbqt
     RDKit          3D

 25 28  0  0  1  0  0  0  0  0999 V2000
    3.7272   45.1434   53.3525 C   0  0  0  0  0  3  0  0  0  0  0  0
    3.2681   44.8826   51.9728 C   0  0  0  0  0  2  0  0  0  0  0  0
    4.3413   44.6888   50.9539 C   0  0  0  0  0  2  0  0  0  0  0  0
    5.5916   45.3270   51.2921 N   0  0  0  0  0  0  0  0  0  0  0  0
    5.5149   46.4411   52.2424 C   0  0  0  0  0  2  0  0  0  0  0  0
    5.0583   45.7743   53.5229 C   0  0  0  0  0  2  0  0  0  0  0  0
    2.6857   45.9333   54.0611 C   0  0  0  0  0  0  0  0  0  0  0  0
    1.2915   45.7072   53.8913 N   0  0  0  0  0  0  0  0  0  0  0  0
    3.0843   46.8497   54.8518 O   0  0  0  0  0  0  0  0  0  0  0  0
    0.6921   44.6587   54.7056 C   0  0  0  0  0  2  0  0  0  0  0  0
   -0.5747   44.2809   53.9934 C   0  0  0  0  0  0  0  0  0  0  0  0
   -0.9083   44.9269   52.8060 C   0  0  0  0  0  3  0  0  0  0  0  0
   -1.3707   43.3006   54.5426 C   0  0  0  0  0  3  0  0  0  0  0  0
   -2.0859   44.5293   52.2062 C   0  0  0  0  0  3  0  0  0  0  0  0
   -2.5114   42.9568   53.9061 N   0  0  0  0  0  0  0  0  0  0  0  0
   -2.8898   43.5480   52.7488 C   0  0  0  0  0  3  0  0  0  0  0  0
    6.8247   44.8948   50.7317 C   0  0  0  0  0  0  0  0  0  0  0  0
    6.7645   43.9414   49.7592 N   0  0  0  0  0  0  0  0  0  0  0  0
    8.0510   45.3841   51.1175 C   0  0  0  0  0  0  0  0  0  0  0  0
    7.8937   43.4824   49.1812 C   0  0  0  0  0  3  0  0  0  0  0  0
    8.3993   46.2980   52.0223 N   0  0  0  0  0  0  0  0  0  0  0  0
    9.1810   44.8869   50.5003 C   0  0  0  0  0  0  0  0  0  0  0  0
    9.1041   43.9515   49.5478 N   0  0  0  0  0  0  0  0  0  0  0  0
    9.7436   46.3710   51.9698 C   0  0  0  0  0  3  0  0  0  0  0  0
   10.2211   45.5149   51.0461 N   0  0  0  0  0  0  0  0  0  0  0  0
  1  7  1  0
  2  1  1  0
  3  2  1  0
  4  3  1  0
  5  4  1  0
  5  6  1  0
  6  1  1  0
  7  8  1  0
  7  9  2  0
  8 10  1  0
 11 10  1  0
 12 11  2  0
 13 11  1  0
 14 12  1  0
 15 13  2  0
 16 14  2  0
 16 15  1  0
 17  4  1  0
 18 17  2  0
 19 17  1  0
 19 21  1  0
 20 18  1  0
 22 25  1  0
 22 19  2  0
 23 20  2  0
 23 22  1  0
 24 21  1  0
 25 24  2  0
M  RAD  8   1   2   2   3   3   3   5   3   6   3  10   3  12   2  13   2
M  RAD  4  14   2  16   2  20   2  24   2
M  END
>  <REMARK>  (1) 
 SMILES O=C(NCc1cccnc1)C1CCN(c2ncnc3nc[nH]c23)CC1
 SMILES IDX 11 1 12 2 13 3 14 4 24 5 25 6 2 7 3 8 1 9 4 11 5 12 6 13
 SMILES IDX 10 14 7 15 9 16 8 17 15 18 16 19 23 20 17 21 22 22 19 23
 SMILES IDX 18 24 21 25 20 26
 H PARENT 3 10 22 27

>  <TORSDO>  (1) 
F 4

$$$$
