/home/pchatterjee/Documents/git/vs_workflow/DiffDock/diffdock_run/pdbqt_scrubbed/Z1587228937.pdbqt
     RDKit          3D

 25 28  0  0  1  0  0  0  0  0999 V2000
    7.0023   47.4653   54.4278 C   0  0  0  0  0  3  0  0  0  0  0  0
    5.8211   46.8947   53.7486 C   0  0  0  0  0  2  0  0  0  0  0  0
    6.1044   46.0085   52.5815 C   0  0  0  0  0  2  0  0  0  0  0  0
    7.3678   46.2769   51.9360 N   0  0  0  0  0  0  0  0  0  0  0  0
    7.9293   47.6159   52.1409 C   0  0  0  0  0  2  0  0  0  0  0  0
    8.2357   47.6408   53.6235 C   0  0  0  0  0  2  0  0  0  0  0  0
    6.6124   48.7511   55.0644 C   0  0  0  0  0  0  0  0  0  0  0  0
    5.2878   49.2682   55.0201 N   0  0  0  0  0  0  0  0  0  0  0  0
    7.5237   49.4026   55.6720 O   0  0  0  0  0  0  0  0  0  0  0  0
    4.9413   50.2732   56.0159 C   0  0  0  0  0  2  0  0  0  0  0  0
    4.6291   51.5152   55.2319 C   0  0  0  0  0  0  0  0  0  0  0  0
    3.9203   51.4081   54.0383 C   0  0  0  0  0  3  0  0  0  0  0  0
    5.0573   52.7282   55.7231 C   0  0  0  0  0  3  0  0  0  0  0  0
    3.6690   52.5896   53.3709 C   0  0  0  0  0  3  0  0  0  0  0  0
    4.7791   53.8487   55.0219 N   0  0  0  0  0  0  0  0  0  0  0  0
    4.0941   53.8096   53.8553 C   0  0  0  0  0  3  0  0  0  0  0  0
    8.0255   45.2939   51.1472 C   0  0  0  0  0  0  0  0  0  0  0  0
    9.3769   45.4102   51.0100 N   0  0  0  0  0  0  0  0  0  0  0  0
    7.3749   44.2518   50.5284 C   0  0  0  0  0  0  0  0  0  0  0  0
   10.0690   44.5144   50.2763 C   0  0  0  0  0  3  0  0  0  0  0  0
    6.0900   43.9015   50.4923 N   0  0  0  0  0  0  0  0  0  0  0  0
    8.1212   43.3580   49.7873 C   0  0  0  0  0  0  0  0  0  0  0  0
    9.4464   43.4867   49.6630 N   0  0  0  0  0  0  0  0  0  0  0  0
    6.0345   42.7917   49.7305 C   0  0  0  0  0  3  0  0  0  0  0  0
    7.2670   42.4593   49.3009 N   0  0  0  0  0  0  0  0  0  0  0  0
  1  7  1  0
  2  1  1  0
  3  2  1  0
  4  3  1  0
  5  4  1  0
  5  6  1  0
  6  1  1  0
  7  8  1  0
  7  9  2  0
  8 10  1  0
 11 10  1  0
 12 11  2  0
 13 11  1  0
 14 12  1  0
 15 13  2  0
 16 14  2  0
 16 15  1  0
 17  4  1  0
 18 17  2  0
 19 17  1  0
 19 21  1  0
 20 18  1  0
 22 25  1  0
 22 19  2  0
 23 20  2  0
 23 22  1  0
 24 21  1  0
 25 24  2  0
M  RAD  8   1   2   2   3   3   3   5   3   6   3  10   3  12   2  13   2
M  RAD  4  14   2  16   2  20   2  24   2
M  END
>  <REMARK>  (1) 
 SMILES O=C(NCc1cccnc1)C1CCN(c2ncnc3nc[nH]c23)CC1
 SMILES IDX 11 1 12 2 13 3 14 4 24 5 25 6 2 7 3 8 1 9 4 11 5 12 6 13
 SMILES IDX 10 14 7 15 9 16 8 17 15 18 16 19 23 20 17 21 22 22 19 23
 SMILES IDX 18 24 21 25 20 26
 H PARENT 3 10 22 27

>  <TORSDO>  (1) 
F 4

$$$$
