/home/pchatterjee/Documents/git/vs_workflow/DiffDock/diffdock_run/pdbqt_scrubbed/Z1587228937.pdbqt
     RDKit          3D

 25 28  0  0  1  0  0  0  0  0999 V2000
    3.2832   45.9788   52.5416 C   0  0  0  0  0  3  0  0  0  0  0  0
    4.4047   46.5930   53.2814 C   0  0  0  0  0  2  0  0  0  0  0  0
    5.7700   46.3114   52.7481 C   0  0  0  0  0  2  0  0  0  0  0  0
    5.8627   45.0819   51.9968 N   0  0  0  0  0  0  0  0  0  0  0  0
    4.8353   44.0731   52.2743 C   0  0  0  0  0  2  0  0  0  0  0  0
    3.5615   44.7320   51.7886 C   0  0  0  0  0  2  0  0  0  0  0  0
    2.1476   45.7743   53.4793 C   0  0  0  0  0  0  0  0  0  0  0  0
    0.9346   45.1348   53.1006 N   0  0  0  0  0  0  0  0  0  0  0  0
    2.2905   46.1999   54.6719 O   0  0  0  0  0  0  0  0  0  0  0  0
    0.5068   44.0039   53.9129 C   0  0  0  0  0  2  0  0  0  0  0  0
   -0.9902   43.9796   53.7992 C   0  0  0  0  0  0  0  0  0  0  0  0
   -1.5976   44.5258   52.6717 C   0  0  0  0  0  3  0  0  0  0  0  0
   -1.7184   43.4135   54.8218 C   0  0  0  0  0  3  0  0  0  0  0  0
   -2.9760   44.4688   52.6344 C   0  0  0  0  0  3  0  0  0  0  0  0
   -3.0655   43.3889   54.7247 N   0  0  0  0  0  0  0  0  0  0  0  0
   -3.7140   43.9036   53.6540 C   0  0  0  0  0  3  0  0  0  0  0  0
    6.8947   44.8673   51.0427 C   0  0  0  0  0  0  0  0  0  0  0  0
    6.6381   43.9809   50.0393 N   0  0  0  0  0  0  0  0  0  0  0  0
    8.1154   45.4999   51.0841 C   0  0  0  0  0  0  0  0  0  0  0  0
    7.5697   43.7262   49.0975 C   0  0  0  0  0  3  0  0  0  0  0  0
    8.6262   46.3928   51.9309 N   0  0  0  0  0  0  0  0  0  0  0  0
    9.0397   45.2102   50.1009 C   0  0  0  0  0  0  0  0  0  0  0  0
    8.7718   44.3379   49.1235 N   0  0  0  0  0  0  0  0  0  0  0  0
    9.8663   46.6598   51.4771 C   0  0  0  0  0  3  0  0  0  0  0  0
   10.1202   45.9427   50.3655 N   0  0  0  0  0  0  0  0  0  0  0  0
  1  7  1  0
  2  1  1  0
  3  2  1  0
  4  3  1  0
  5  4  1  0
  5  6  1  0
  6  1  1  0
  7  8  1  0
  7  9  2  0
  8 10  1  0
 11 10  1  0
 12 11  2  0
 13 11  1  0
 14 12  1  0
 15 13  2  0
 16 14  2  0
 16 15  1  0
 17  4  1  0
 18 17  2  0
 19 17  1  0
 19 21  1  0
 20 18  1  0
 22 25  1  0
 22 19  2  0
 23 20  2  0
 23 22  1  0
 24 21  1  0
 25 24  2  0
M  RAD  8   1   2   2   3   3   3   5   3   6   3  10   3  12   2  13   2
M  RAD  4  14   2  16   2  20   2  24   2
M  END
>  <REMARK>  (1) 
 SMILES O=C(NCc1cccnc1)C1CCN(c2ncnc3nc[nH]c23)CC1
 SMILES IDX 11 1 12 2 13 3 14 4 24 5 25 6 2 7 3 8 1 9 4 11 5 12 6 13
 SMILES IDX 10 14 7 15 9 16 8 17 15 18 16 19 23 20 17 21 22 22 19 23
 SMILES IDX 18 24 21 25 20 26
 H PARENT 3 10 22 27

>  <TORSDO>  (1) 
F 4

$$$$
