/home/pchatterjee/Documents/git/vs_workflow/DiffDock/diffdock_run/pdbqt_scrubbed/Z1587228937.pdbqt
     RDKit          3D

 25 28  0  0  1  0  0  0  0  0999 V2000
    2.8578   44.4327   51.9217 C   0  0  0  0  0  3  0  0  0  0  0  0
    3.5981   45.4564   52.6876 C   0  0  0  0  0  2  0  0  0  0  0  0
    5.0399   45.6174   52.3371 C   0  0  0  0  0  2  0  0  0  0  0  0
    5.6381   44.4354   51.7627 N   0  0  0  0  0  0  0  0  0  0  0  0
    4.9742   43.1623   52.0606 C   0  0  0  0  0  2  0  0  0  0  0  0
    3.6352   43.2984   51.3669 C   0  0  0  0  0  2  0  0  0  0  0  0
    1.7347   43.9309   52.7568 C   0  0  0  0  0  0  0  0  0  0  0  0
    0.8381   44.7916   53.4491 N   0  0  0  0  0  0  0  0  0  0  0  0
    1.5882   42.6679   52.8415 O   0  0  0  0  0  0  0  0  0  0  0  0
    0.0622   44.1996   54.5302 C   0  0  0  0  0  2  0  0  0  0  0  0
   -0.7017   45.3400   55.1390 C   0  0  0  0  0  0  0  0  0  0  0  0
   -1.3052   46.2783   54.3060 C   0  0  0  0  0  3  0  0  0  0  0  0
   -0.7806   45.4207   56.5114 C   0  0  0  0  0  3  0  0  0  0  0  0
   -1.9903   47.2988   54.9337 C   0  0  0  0  0  3  0  0  0  0  0  0
   -1.4665   46.4446   57.0643 N   0  0  0  0  0  0  0  0  0  0  0  0
   -2.0748   47.3879   56.3079 C   0  0  0  0  0  3  0  0  0  0  0  0
    6.8054   44.5084   50.9545 C   0  0  0  0  0  0  0  0  0  0  0  0
    6.8315   43.7374   49.8304 N   0  0  0  0  0  0  0  0  0  0  0  0
    7.8880   45.3046   51.2480 C   0  0  0  0  0  0  0  0  0  0  0  0
    7.9059   43.7544   49.0148 C   0  0  0  0  0  3  0  0  0  0  0  0
    8.1294   46.1410   52.2566 N   0  0  0  0  0  0  0  0  0  0  0  0
    8.9664   45.2919   50.3866 C   0  0  0  0  0  0  0  0  0  0  0  0
    8.9756   44.5295   49.2880 N   0  0  0  0  0  0  0  0  0  0  0  0
    9.3556   46.6491   52.0252 C   0  0  0  0  0  3  0  0  0  0  0  0
    9.8663   46.1349   50.8898 N   0  0  0  0  0  0  0  0  0  0  0  0
  1  7  1  0
  2  1  1  0
  3  2  1  0
  4  3  1  0
  5  4  1  0
  5  6  1  0
  6  1  1  0
  7  8  1  0
  7  9  2  0
  8 10  1  0
 11 10  1  0
 12 11  2  0
 13 11  1  0
 14 12  1  0
 15 13  2  0
 16 14  2  0
 16 15  1  0
 17  4  1  0
 18 17  2  0
 19 17  1  0
 19 21  1  0
 20 18  1  0
 22 25  1  0
 22 19  2  0
 23 20  2  0
 23 22  1  0
 24 21  1  0
 25 24  2  0
M  RAD  8   1   2   2   3   3   3   5   3   6   3  10   3  12   2  13   2
M  RAD  4  14   2  16   2  20   2  24   2
M  END
>  <REMARK>  (1) 
 SMILES O=C(NCc1cccnc1)C1CCN(c2ncnc3nc[nH]c23)CC1
 SMILES IDX 11 1 12 2 13 3 14 4 24 5 25 6 2 7 3 8 1 9 4 11 5 12 6 13
 SMILES IDX 10 14 7 15 9 16 8 17 15 18 16 19 23 20 17 21 22 22 19 23
 SMILES IDX 18 24 21 25 20 26
 H PARENT 3 10 22 27

>  <TORSDO>  (1) 
F 4

$$$$
