/home/pchatterjee/Documents/git/vs_workflow/DiffDock/diffdock_run/pdbqt_scrubbed/Z1587228937.pdbqt
     RDKit          3D

 25 28  0  0  1  0  0  0  0  0999 V2000
    7.5470   47.7884   53.2262 C   0  0  0  0  0  3  0  0  0  0  0  0
    8.9496   47.3246   53.2404 C   0  0  0  0  0  2  0  0  0  0  0  0
    9.2609   46.1610   52.3591 C   0  0  0  0  0  2  0  0  0  0  0  0
    8.1236   45.3156   52.0824 N   0  0  0  0  0  0  0  0  0  0  0  0
    7.0182   45.3802   53.0437 C   0  0  0  0  0  2  0  0  0  0  0  0
    6.5012   46.7943   52.8839 C   0  0  0  0  0  2  0  0  0  0  0  0
    7.2430   48.4303   54.5324 C   0  0  0  0  0  0  0  0  0  0  0  0
    5.9334   48.8381   54.9101 N   0  0  0  0  0  0  0  0  0  0  0  0
    8.2164   48.6134   55.3343 O   0  0  0  0  0  0  0  0  0  0  0  0
    5.8359   49.9502   55.8456 C   0  0  0  0  0  2  0  0  0  0  0  0
    5.2400   51.0798   55.0559 C   0  0  0  0  0  0  0  0  0  0  0  0
    4.3102   50.7986   54.0584 C   0  0  0  0  0  3  0  0  0  0  0  0
    5.6358   52.3663   55.3466 C   0  0  0  0  0  3  0  0  0  0  0  0
    3.8043   51.8846   53.3735 C   0  0  0  0  0  3  0  0  0  0  0  0
    5.1029   53.3862   54.6393 N   0  0  0  0  0  0  0  0  0  0  0  0
    4.1949   53.1771   53.6576 C   0  0  0  0  0  3  0  0  0  0  0  0
    8.0836   44.4701   50.9401 C   0  0  0  0  0  0  0  0  0  0  0  0
    9.1590   44.5061   50.1030 N   0  0  0  0  0  0  0  0  0  0  0  0
    7.0314   43.6343   50.6461 C   0  0  0  0  0  0  0  0  0  0  0  0
    9.1920   43.7315   48.9991 C   0  0  0  0  0  3  0  0  0  0  0  0
    5.8789   43.4012   51.2726 N   0  0  0  0  0  0  0  0  0  0  0  0
    7.1061   42.8590   49.5067 C   0  0  0  0  0  0  0  0  0  0  0  0
    8.1686   42.9064   48.6962 N   0  0  0  0  0  0  0  0  0  0  0  0
    5.2358   42.4825   50.5259 C   0  0  0  0  0  3  0  0  0  0  0  0
    5.9791   42.1513   49.4525 N   0  0  0  0  0  0  0  0  0  0  0  0
  1  7  1  0
  2  1  1  0
  3  2  1  0
  4  3  1  0
  5  4  1  0
  5  6  1  0
  6  1  1  0
  7  8  1  0
  7  9  2  0
  8 10  1  0
 11 10  1  0
 12 11  2  0
 13 11  1  0
 14 12  1  0
 15 13  2  0
 16 14  2  0
 16 15  1  0
 17  4  1  0
 18 17  2  0
 19 17  1  0
 19 21  1  0
 20 18  1  0
 22 25  1  0
 22 19  2  0
 23 20  2  0
 23 22  1  0
 24 21  1  0
 25 24  2  0
M  RAD  8   1   2   2   3   3   3   5   3   6   3  10   3  12   2  13   2
M  RAD  4  14   2  16   2  20   2  24   2
M  END
>  <REMARK>  (1) 
 SMILES O=C(NCc1cccnc1)C1CCN(c2ncnc3nc[nH]c23)CC1
 SMILES IDX 11 1 12 2 13 3 14 4 24 5 25 6 2 7 3 8 1 9 4 11 5 12 6 13
 SMILES IDX 10 14 7 15 9 16 8 17 15 18 16 19 23 20 17 21 22 22 19 23
 SMILES IDX 18 24 21 25 20 26
 H PARENT 3 10 22 27

>  <TORSDO>  (1) 
F 4

$$$$
