/home/pchatterjee/Documents/git/vs_workflow/DiffDock/diffdock_run/pdbqt_scrubbed/Z1587228937.pdbqt
     RDKit          3D

 25 28  0  0  1  0  0  0  0  0999 V2000
    6.5808   47.9509   53.6970 C   0  0  0  0  0  3  0  0  0  0  0  0
    7.8905   47.5192   54.2270 C   0  0  0  0  0  2  0  0  0  0  0  0
    8.6594   46.5687   53.3709 C   0  0  0  0  0  2  0  0  0  0  0  0
    7.8350   45.7787   52.4872 N   0  0  0  0  0  0  0  0  0  0  0  0
    6.4299   45.6235   52.8770 C   0  0  0  0  0  2  0  0  0  0  0  0
    5.8818   47.0307   52.7677 C   0  0  0  0  0  2  0  0  0  0  0  0
    5.6963   48.3035   54.8389 C   0  0  0  0  0  0  0  0  0  0  0  0
    5.0221   47.3299   55.6271 N   0  0  0  0  0  0  0  0  0  0  0  0
    5.5505   49.5412   55.1049 O   0  0  0  0  0  0  0  0  0  0  0  0
    3.6299   47.6019   55.9580 C   0  0  0  0  0  2  0  0  0  0  0  0
    2.8272   46.7220   55.0437 C   0  0  0  0  0  0  0  0  0  0  0  0
    2.7797   47.0150   53.6834 C   0  0  0  0  0  3  0  0  0  0  0  0
    2.1594   45.6463   55.5850 C   0  0  0  0  0  3  0  0  0  0  0  0
    2.0233   46.1644   52.9031 C   0  0  0  0  0  3  0  0  0  0  0  0
    1.4357   44.8515   54.7670 N   0  0  0  0  0  0  0  0  0  0  0  0
    1.3507   45.0842   53.4363 C   0  0  0  0  0  3  0  0  0  0  0  0
    8.3619   45.1870   51.3067 C   0  0  0  0  0  0  0  0  0  0  0  0
    9.6902   45.3698   51.0601 N   0  0  0  0  0  0  0  0  0  0  0  0
    7.6089   44.4534   50.4196 C   0  0  0  0  0  0  0  0  0  0  0  0
   10.2604   44.8380   49.9593 C   0  0  0  0  0  3  0  0  0  0  0  0
    6.3183   44.1227   50.4096 N   0  0  0  0  0  0  0  0  0  0  0  0
    8.2321   43.9272   49.3062 C   0  0  0  0  0  0  0  0  0  0  0  0
    9.5363   44.1160   49.0794 N   0  0  0  0  0  0  0  0  0  0  0  0
    6.1365   43.3917   49.2925 C   0  0  0  0  0  3  0  0  0  0  0  0
    7.2975   43.2714   48.6204 N   0  0  0  0  0  0  0  0  0  0  0  0
  1  7  1  0
  2  1  1  0
  3  2  1  0
  4  3  1  0
  5  4  1  0
  5  6  1  0
  6  1  1  0
  7  8  1  0
  7  9  2  0
  8 10  1  0
 11 10  1  0
 12 11  2  0
 13 11  1  0
 14 12  1  0
 15 13  2  0
 16 14  2  0
 16 15  1  0
 17  4  1  0
 18 17  2  0
 19 17  1  0
 19 21  1  0
 20 18  1  0
 22 25  1  0
 22 19  2  0
 23 20  2  0
 23 22  1  0
 24 21  1  0
 25 24  2  0
M  RAD  8   1   2   2   3   3   3   5   3   6   3  10   3  12   2  13   2
M  RAD  4  14   2  16   2  20   2  24   2
M  END
>  <REMARK>  (1) 
 SMILES O=C(NCc1cccnc1)C1CCN(c2ncnc3nc[nH]c23)CC1
 SMILES IDX 11 1 12 2 13 3 14 4 24 5 25 6 2 7 3 8 1 9 4 11 5 12 6 13
 SMILES IDX 10 14 7 15 9 16 8 17 15 18 16 19 23 20 17 21 22 22 19 23
 SMILES IDX 18 24 21 25 20 26
 H PARENT 3 10 22 27

>  <TORSDO>  (1) 
F 4

$$$$
