/home/pchatterjee/Documents/git/vs_workflow/DiffDock/diffdock_run/pdbqt_scrubbed/Z1587228937.pdbqt
     RDKit          3D

 25 28  0  0  1  0  0  0  0  0999 V2000
    5.8311   47.4749   53.7398 C   0  0  0  0  0  3  0  0  0  0  0  0
    7.1547   47.3138   54.3760 C   0  0  0  0  0  2  0  0  0  0  0  0
    8.1666   46.5471   53.5913 C   0  0  0  0  0  2  0  0  0  0  0  0
    7.5932   45.6138   52.6506 N   0  0  0  0  0  0  0  0  0  0  0  0
    6.2225   45.1728   52.9281 C   0  0  0  0  0  2  0  0  0  0  0  0
    5.4102   46.4401   52.7647 C   0  0  0  0  0  2  0  0  0  0  0  0
    4.8052   47.6302   54.8047 C   0  0  0  0  0  0  0  0  0  0  0  0
    3.5765   46.9131   54.8085 N   0  0  0  0  0  0  0  0  0  0  0  0
    5.0603   48.4491   55.7472 O   0  0  0  0  0  0  0  0  0  0  0  0
    3.0377   46.5400   56.1092 C   0  0  0  0  0  2  0  0  0  0  0  0
    1.6451   46.0502   55.8344 C   0  0  0  0  0  0  0  0  0  0  0  0
    1.0635   46.3078   54.5959 C   0  0  0  0  0  3  0  0  0  0  0  0
    0.9843   45.3573   56.8240 C   0  0  0  0  0  3  0  0  0  0  0  0
   -0.2176   45.8285   54.4130 C   0  0  0  0  0  3  0  0  0  0  0  0
   -0.2687   44.9144   56.5822 N   0  0  0  0  0  0  0  0  0  0  0  0
   -0.8876   45.1332   55.3986 C   0  0  0  0  0  3  0  0  0  0  0  0
    8.3218   45.1520   51.5205 C   0  0  0  0  0  0  0  0  0  0  0  0
    9.5890   45.6289   51.3614 N   0  0  0  0  0  0  0  0  0  0  0  0
    7.8177   44.2642   50.5986 C   0  0  0  0  0  0  0  0  0  0  0  0
   10.3406   45.2355   50.3126 C   0  0  0  0  0  3  0  0  0  0  0  0
    6.6385   43.6508   50.5071 N   0  0  0  0  0  0  0  0  0  0  0  0
    8.6205   43.8882   49.5407 C   0  0  0  0  0  0  0  0  0  0  0  0
    9.8615   44.3657   49.3996 N   0  0  0  0  0  0  0  0  0  0  0  0
    6.7053   42.8936   49.3947 C   0  0  0  0  0  3  0  0  0  0  0  0
    7.9082   43.0360   48.8056 N   0  0  0  0  0  0  0  0  0  0  0  0
  1  7  1  0
  2  1  1  0
  3  2  1  0
  4  3  1  0
  5  4  1  0
  5  6  1  0
  6  1  1  0
  7  8  1  0
  7  9  2  0
  8 10  1  0
 11 10  1  0
 12 11  2  0
 13 11  1  0
 14 12  1  0
 15 13  2  0
 16 14  2  0
 16 15  1  0
 17  4  1  0
 18 17  2  0
 19 17  1  0
 19 21  1  0
 20 18  1  0
 22 25  1  0
 22 19  2  0
 23 20  2  0
 23 22  1  0
 24 21  1  0
 25 24  2  0
M  RAD  8   1   2   2   3   3   3   5   3   6   3  10   3  12   2  13   2
M  RAD  4  14   2  16   2  20   2  24   2
M  END
>  <REMARK>  (1) 
 SMILES O=C(NCc1cccnc1)C1CCN(c2ncnc3nc[nH]c23)CC1
 SMILES IDX 11 1 12 2 13 3 14 4 24 5 25 6 2 7 3 8 1 9 4 11 5 12 6 13
 SMILES IDX 10 14 7 15 9 16 8 17 15 18 16 19 23 20 17 21 22 22 19 23
 SMILES IDX 18 24 21 25 20 26
 H PARENT 3 10 22 27

>  <TORSDO>  (1) 
F 4

$$$$
