/home/pchatterjee/Documents/git/vs_workflow/DiffDock/diffdock_run/pdbqt_scrubbed/Z1646104587.pdbqt
     RDKit          3D

 27 30  0  0  0  0  0  0  0  0999 V2000
    5.7758   42.4710   49.1312 O   0  0  0  0  0  0  0  0  0  0  0  0
    5.7689   43.8163   49.5678 C   0  0  0  0  0  2  0  0  0  0  0  0
    7.1110   44.3301   49.9196 C   0  0  0  0  0  0  0  0  0  0  0  0
    7.3305   45.3468   50.7732 N   0  0  0  0  0  0  0  0  0  0  0  0
    8.6641   45.5137   50.8295 C   0  0  0  0  0  0  0  0  0  0  0  0
    8.3243   43.9008   49.4747 N   0  0  0  0  0  0  0  0  0  0  0  0
    9.2856   44.6214   50.0277 N   0  0  0  0  0  0  0  0  0  0  0  0
    6.3053   46.1048   51.4864 C   0  0  0  0  0  1  0  0  0  0  0  0
    9.2958   46.5691   51.6896 C   0  0  0  0  0  3  0  0  0  0  0  0
    8.4600   46.9780   52.8913 C   0  0  0  0  0  2  0  0  0  0  0  0
   10.3683   46.0448   52.6128 C   0  0  0  0  0  2  0  0  0  0  0  0
    9.5647   46.5147   53.8122 C   0  0  0  0  0  2  0  0  0  0  0  0
    4.7234   41.5996   49.3763 C   0  0  0  0  0  0  0  0  0  0  0  0
    4.3610   41.3447   50.6962 C   0  0  0  0  0  3  0  0  0  0  0  0
    4.0640   41.0092   48.3170 C   0  0  0  0  0  0  0  0  0  0  0  0
    3.3227   40.4869   50.9896 C   0  0  0  0  0  3  0  0  0  0  0  0
    3.0243   40.1510   48.6300 C   0  0  0  0  0  3  0  0  0  0  0  0
    2.6536   39.8888   49.9387 C   0  0  0  0  0  3  0  0  0  0  0  0
    4.4509   41.2822   46.9310 C   0  0  0  0  0  0  0  0  0  0  0  0
    3.5722   40.8721   45.9049 N   0  0  0  0  0  0  0  0  0  0  0  0
    5.5390   41.8639   46.7326 O   0  0  0  0  0  0  0  0  0  0  0  0
    3.9393   41.0350   44.5399 C   0  0  0  0  0  0  0  0  0  0  0  0
    3.1516   41.7658   43.6753 C   0  0  0  0  0  3  0  0  0  0  0  0
    5.0846   40.4754   44.0307 C   0  0  0  0  0  3  0  0  0  0  0  0
    3.4464   41.9640   42.3421 C   0  0  0  0  0  3  0  0  0  0  0  0
    5.4200   40.6506   42.6910 C   0  0  0  0  0  3  0  0  0  0  0  0
    4.6021   41.3927   41.8517 C   0  0  0  0  0  3  0  0  0  0  0  0
  1 13  1  0
  2  1  1  0
  2  3  1  0
  3  6  2  0
  4  3  1  0
  4  5  1  0
  5  9  1  0
  5  7  2  0
  6  7  1  0
  8  4  1  0
  9 11  1  0
 10 12  1  0
 10  9  1  0
 12 11  1  0
 13 15  1  0
 13 14  2  0
 14 16  1  0
 15 17  2  0
 16 18  2  0
 17 18  1  0
 19 21  2  0
 19 15  1  0
 20 19  1  0
 22 24  1  0
 22 20  1  0
 23 22  2  0
 25 27  2  0
 25 23  1  0
 26 24  2  0
 27 26  1  0
M  RAD  8   2   3   8   2   9   2  10   3  11   3  12   3  14   2  16   2
M  RAD  7  17   2  18   2  23   2  24   2  25   2  26   2  27   2
M  END
>  <REMARK>  (1) 
 SMILES Cn1c(COc2ccccc2C(=O)Nc2ccccc2)nnc1C1CCC1
 SMILES IDX 5 1 4 2 3 3 2 4 23 5 21 6 22 7 1 8 24 9 25 10 27 11 26 12
 SMILES IDX 6 13 7 14 11 15 8 16 10 17 9 18 12 19 14 20 13 21 15 23
 SMILES IDX 16 24 20 25 17 26 19 27 18 28
 H PARENT 14 22

>  <TORSDO>  (1) 
F 6

$$$$
