/home/pchatterjee/Documents/git/vs_workflow/DiffDock/diffdock_run/pdbqt_scrubbed/Z1646104587.pdbqt
     RDKit          3D

 27 30  0  0  0  0  0  0  0  0999 V2000
   12.2341   62.3108   83.7935 O   0  0  0  0  0  0  0  0  0  0  0  0
   11.3354   62.9330   82.8958 C   0  0  0  0  0  2  0  0  0  0  0  0
   10.0213   63.2477   83.4986 C   0  0  0  0  0  0  0  0  0  0  0  0
    9.0046   63.8264   82.8337 N   0  0  0  0  0  0  0  0  0  0  0  0
    7.9945   63.9447   83.7140 C   0  0  0  0  0  0  0  0  0  0  0  0
    9.6017   63.0268   84.7751 N   0  0  0  0  0  0  0  0  0  0  0  0
    8.3575   63.4515   84.9183 N   0  0  0  0  0  0  0  0  0  0  0  0
    9.0195   64.2363   81.4316 C   0  0  0  0  0  1  0  0  0  0  0  0
    6.6765   64.5527   83.3317 C   0  0  0  0  0  3  0  0  0  0  0  0
    5.8382   63.6920   82.4010 C   0  0  0  0  0  2  0  0  0  0  0  0
    5.6156   64.4340   84.3985 C   0  0  0  0  0  2  0  0  0  0  0  0
    4.7479   63.6316   83.4453 C   0  0  0  0  0  2  0  0  0  0  0  0
   13.5027   61.8946   83.4136 C   0  0  0  0  0  0  0  0  0  0  0  0
   13.9291   62.1534   82.1138 C   0  0  0  0  0  3  0  0  0  0  0  0
   14.3079   61.2391   84.3232 C   0  0  0  0  0  0  0  0  0  0  0  0
   15.1803   61.7596   81.6901 C   0  0  0  0  0  3  0  0  0  0  0  0
   15.5606   60.8510   83.8808 C   0  0  0  0  0  3  0  0  0  0  0  0
   15.9970   61.1022   82.5904 C   0  0  0  0  0  3  0  0  0  0  0  0
   13.8525   60.9703   85.6890 C   0  0  0  0  0  0  0  0  0  0  0  0
   14.6458   60.1282   86.4983 N   0  0  0  0  0  0  0  0  0  0  0  0
   12.7853   61.5018   86.0637 O   0  0  0  0  0  0  0  0  0  0  0  0
   14.2799   59.8826   87.8512 C   0  0  0  0  0  0  0  0  0  0  0  0
   14.2928   58.6046   88.3692 C   0  0  0  0  0  3  0  0  0  0  0  0
   13.9017   60.9006   88.6907 C   0  0  0  0  0  3  0  0  0  0  0  0
   13.9507   58.2947   89.6695 C   0  0  0  0  0  3  0  0  0  0  0  0
   13.5486   60.6322   90.0103 C   0  0  0  0  0  3  0  0  0  0  0  0
   13.5738   59.3330   90.4956 C   0  0  0  0  0  3  0  0  0  0  0  0
  1 13  1  0
  2  1  1  0
  2  3  1  0
  3  6  2  0
  4  3  1  0
  4  5  1  0
  5  9  1  0
  5  7  2  0
  6  7  1  0
  8  4  1  0
  9 11  1  0
 10 12  1  0
 10  9  1  0
 12 11  1  0
 13 15  1  0
 13 14  2  0
 14 16  1  0
 15 17  2  0
 16 18  2  0
 17 18  1  0
 19 21  2  0
 19 15  1  0
 20 19  1  0
 22 24  1  0
 22 20  1  0
 23 22  2  0
 25 27  2  0
 25 23  1  0
 26 24  2  0
 27 26  1  0
M  RAD  8   2   3   8   2   9   2  10   3  11   3  12   3  14   2  16   2
M  RAD  7  17   2  18   2  23   2  24   2  25   2  26   2  27   2
M  END
>  <REMARK>  (1) 
 SMILES Cn1c(COc2ccccc2C(=O)Nc2ccccc2)nnc1C1CCC1
 SMILES IDX 5 1 4 2 3 3 2 4 23 5 21 6 22 7 1 8 24 9 25 10 27 11 26 12
 SMILES IDX 6 13 7 14 11 15 8 16 10 17 9 18 12 19 14 20 13 21 15 23
 SMILES IDX 16 24 20 25 17 26 19 27 18 28
 H PARENT 14 22

>  <TORSDO>  (1) 
F 6

$$$$
