/home/pchatterjee/Documents/git/vs_workflow/DiffDock/diffdock_run/pdbqt_scrubbed/Z1646104587.pdbqt
     RDKit          3D

 27 30  0  0  0  0  0  0  0  0999 V2000
    9.8540   65.7314   82.5286 O   0  0  0  0  0  0  0  0  0  0  0  0
    8.5491   65.6069   81.9971 C   0  0  0  0  0  2  0  0  0  0  0  0
    7.7234   64.5932   82.6898 C   0  0  0  0  0  0  0  0  0  0  0  0
    6.5366   64.1488   82.2376 N   0  0  0  0  0  0  0  0  0  0  0  0
    6.1037   63.2442   83.1341 C   0  0  0  0  0  0  0  0  0  0  0  0
    7.9849   63.9439   83.8578 N   0  0  0  0  0  0  0  0  0  0  0  0
    6.9959   63.1125   84.1402 N   0  0  0  0  0  0  0  0  0  0  0  0
    5.8700   64.5794   81.0110 C   0  0  0  0  0  1  0  0  0  0  0  0
    4.7975   62.5240   82.9669 C   0  0  0  0  0  3  0  0  0  0  0  0
    4.4436   61.5972   84.1181 C   0  0  0  0  0  2  0  0  0  0  0  0
    3.5877   63.3716   83.2759 C   0  0  0  0  0  2  0  0  0  0  0  0
    3.1963   62.4081   84.3823 C   0  0  0  0  0  2  0  0  0  0  0  0
   10.7826   66.6336   82.0280 C   0  0  0  0  0  0  0  0  0  0  0  0
   10.3289   67.6999   81.2563 C   0  0  0  0  0  3  0  0  0  0  0  0
   12.1238   66.4572   82.3026 C   0  0  0  0  0  0  0  0  0  0  0  0
   11.2127   68.6216   80.7374 C   0  0  0  0  0  3  0  0  0  0  0  0
   12.9969   67.3919   81.7736 C   0  0  0  0  0  3  0  0  0  0  0  0
   12.5586   68.4572   81.0044 C   0  0  0  0  0  3  0  0  0  0  0  0
   12.5938   65.3329   83.1152 C   0  0  0  0  0  0  0  0  0  0  0  0
   13.9431   64.9389   82.9837 N   0  0  0  0  0  0  0  0  0  0  0  0
   11.7735   64.7835   83.8814 O   0  0  0  0  0  0  0  0  0  0  0  0
   14.4283   63.7998   83.6850 C   0  0  0  0  0  0  0  0  0  0  0  0
   14.1389   63.6118   85.0202 C   0  0  0  0  0  3  0  0  0  0  0  0
   15.1992   62.8479   83.0658 C   0  0  0  0  0  3  0  0  0  0  0  0
   14.5756   62.5326   85.7607 C   0  0  0  0  0  3  0  0  0  0  0  0
   15.6610   61.7429   83.7758 C   0  0  0  0  0  3  0  0  0  0  0  0
   15.3489   61.5882   85.1184 C   0  0  0  0  0  3  0  0  0  0  0  0
  1 13  1  0
  2  1  1  0
  2  3  1  0
  3  6  2  0
  4  3  1  0
  4  5  1  0
  5  9  1  0
  5  7  2  0
  6  7  1  0
  8  4  1  0
  9 11  1  0
 10 12  1  0
 10  9  1  0
 12 11  1  0
 13 15  1  0
 13 14  2  0
 14 16  1  0
 15 17  2  0
 16 18  2  0
 17 18  1  0
 19 21  2  0
 19 15  1  0
 20 19  1  0
 22 24  1  0
 22 20  1  0
 23 22  2  0
 25 27  2  0
 25 23  1  0
 26 24  2  0
 27 26  1  0
M  RAD  8   2   3   8   2   9   2  10   3  11   3  12   3  14   2  16   2
M  RAD  7  17   2  18   2  23   2  24   2  25   2  26   2  27   2
M  END
>  <REMARK>  (1) 
 SMILES Cn1c(COc2ccccc2C(=O)Nc2ccccc2)nnc1C1CCC1
 SMILES IDX 5 1 4 2 3 3 2 4 23 5 21 6 22 7 1 8 24 9 25 10 27 11 26 12
 SMILES IDX 6 13 7 14 11 15 8 16 10 17 9 18 12 19 14 20 13 21 15 23
 SMILES IDX 16 24 20 25 17 26 19 27 18 28
 H PARENT 14 22

>  <TORSDO>  (1) 
F 6

$$$$
