/home/pchatterjee/Documents/git/vs_workflow/DiffDock/diffdock_run/pdbqt_scrubbed/Z1646104587.pdbqt
     RDKit          3D

 27 30  0  0  0  0  0  0  0  0999 V2000
    9.7837   66.0184   82.5278 O   0  0  0  0  0  0  0  0  0  0  0  0
    8.4196   66.3741   82.6435 C   0  0  0  0  0  2  0  0  0  0  0  0
    7.5999   65.3546   83.3347 C   0  0  0  0  0  0  0  0  0  0  0  0
    6.3501   65.5688   83.7849 N   0  0  0  0  0  0  0  0  0  0  0  0
    5.9467   64.4155   84.3474 C   0  0  0  0  0  0  0  0  0  0  0  0
    7.9280   64.0679   83.6364 N   0  0  0  0  0  0  0  0  0  0  0  0
    6.9191   63.4817   84.2589 N   0  0  0  0  0  0  0  0  0  0  0  0
    5.6001   66.8175   83.6728 C   0  0  0  0  0  1  0  0  0  0  0  0
    4.5874   64.2679   84.9668 C   0  0  0  0  0  3  0  0  0  0  0  0
    4.2970   62.8793   85.5116 C   0  0  0  0  0  2  0  0  0  0  0  0
    4.4854   64.8372   86.3607 C   0  0  0  0  0  2  0  0  0  0  0  0
    4.1279   63.4619   86.8955 C   0  0  0  0  0  2  0  0  0  0  0  0
   10.7516   66.9034   82.0730 C   0  0  0  0  0  0  0  0  0  0  0  0
   10.3422   68.0623   81.4189 C   0  0  0  0  0  3  0  0  0  0  0  0
   12.0870   66.6196   82.2765 C   0  0  0  0  0  0  0  0  0  0  0  0
   11.2661   68.9712   80.9494 C   0  0  0  0  0  3  0  0  0  0  0  0
   13.0006   67.5430   81.7987 C   0  0  0  0  0  3  0  0  0  0  0  0
   12.6067   68.6997   81.1462 C   0  0  0  0  0  3  0  0  0  0  0  0
   12.5101   65.3984   82.9656 C   0  0  0  0  0  0  0  0  0  0  0  0
   13.8134   64.9155   82.7177 N   0  0  0  0  0  0  0  0  0  0  0  0
   11.6932   64.8502   83.7362 O   0  0  0  0  0  0  0  0  0  0  0  0
   14.2310   63.6688   83.2617 C   0  0  0  0  0  0  0  0  0  0  0  0
   15.1070   62.8532   82.5767 C   0  0  0  0  0  3  0  0  0  0  0  0
   13.7823   63.2296   84.4822 C   0  0  0  0  0  3  0  0  0  0  0  0
   15.5529   61.6338   83.0438 C   0  0  0  0  0  3  0  0  0  0  0  0
   14.2070   62.0054   84.9911 C   0  0  0  0  0  3  0  0  0  0  0  0
   15.0892   61.2122   84.2724 C   0  0  0  0  0  3  0  0  0  0  0  0
  1 13  1  0
  2  1  1  0
  2  3  1  0
  3  6  2  0
  4  3  1  0
  4  5  1  0
  5  9  1  0
  5  7  2  0
  6  7  1  0
  8  4  1  0
  9 11  1  0
 10 12  1  0
 10  9  1  0
 12 11  1  0
 13 15  1  0
 13 14  2  0
 14 16  1  0
 15 17  2  0
 16 18  2  0
 17 18  1  0
 19 21  2  0
 19 15  1  0
 20 19  1  0
 22 24  1  0
 22 20  1  0
 23 22  2  0
 25 27  2  0
 25 23  1  0
 26 24  2  0
 27 26  1  0
M  RAD  8   2   3   8   2   9   2  10   3  11   3  12   3  14   2  16   2
M  RAD  7  17   2  18   2  23   2  24   2  25   2  26   2  27   2
M  END
>  <REMARK>  (1) 
 SMILES Cn1c(COc2ccccc2C(=O)Nc2ccccc2)nnc1C1CCC1
 SMILES IDX 5 1 4 2 3 3 2 4 23 5 21 6 22 7 1 8 24 9 25 10 27 11 26 12
 SMILES IDX 6 13 7 14 11 15 8 16 10 17 9 18 12 19 14 20 13 21 15 23
 SMILES IDX 16 24 20 25 17 26 19 27 18 28
 H PARENT 14 22

>  <TORSDO>  (1) 
F 6

$$$$
