/home/pchatterjee/Documents/git/vs_workflow/DiffDock/diffdock_run/pdbqt_scrubbed/Z1646104587.pdbqt
     RDKit          3D

 27 30  0  0  0  0  0  0  0  0999 V2000
    7.1817   46.1194   51.5380 O   0  0  0  0  0  0  0  0  0  0  0  0
    7.7338   44.8173   51.5537 C   0  0  0  0  0  2  0  0  0  0  0  0
    7.6186   44.1113   50.2585 C   0  0  0  0  0  0  0  0  0  0  0  0
    6.4705   43.6019   49.7757 N   0  0  0  0  0  0  0  0  0  0  0  0
    6.7720   43.0456   48.5887 C   0  0  0  0  0  0  0  0  0  0  0  0
    8.5964   43.8505   49.3474 N   0  0  0  0  0  0  0  0  0  0  0  0
    8.0870   43.1959   48.3173 N   0  0  0  0  0  0  0  0  0  0  0  0
    5.1658   43.6553   50.4307 C   0  0  0  0  0  1  0  0  0  0  0  0
    5.7327   42.3696   47.7427 C   0  0  0  0  0  3  0  0  0  0  0  0
    6.1198   40.9776   47.2716 C   0  0  0  0  0  2  0  0  0  0  0  0
    4.5870   41.7849   48.5321 C   0  0  0  0  0  2  0  0  0  0  0  0
    4.9319   40.4025   48.0072 C   0  0  0  0  0  2  0  0  0  0  0  0
    6.0863   46.4768   52.3121 C   0  0  0  0  0  0  0  0  0  0  0  0
    4.8147   46.1109   51.8791 C   0  0  0  0  0  3  0  0  0  0  0  0
    6.2779   47.1808   53.4840 C   0  0  0  0  0  0  0  0  0  0  0  0
    3.6966   46.4430   52.6136 C   0  0  0  0  0  3  0  0  0  0  0  0
    5.1443   47.5058   54.2086 C   0  0  0  0  0  3  0  0  0  0  0  0
    3.8737   47.1478   53.7890 C   0  0  0  0  0  3  0  0  0  0  0  0
    7.6187   47.5623   53.9331 C   0  0  0  0  0  0  0  0  0  0  0  0
    7.7485   48.1411   55.2143 N   0  0  0  0  0  0  0  0  0  0  0  0
    8.5756   47.3543   53.1567 O   0  0  0  0  0  0  0  0  0  0  0  0
    8.9968   48.6797   55.6340 C   0  0  0  0  0  0  0  0  0  0  0  0
   10.1642   47.9591   55.4931 C   0  0  0  0  0  3  0  0  0  0  0  0
    9.0900   49.9300   56.1925 C   0  0  0  0  0  3  0  0  0  0  0  0
   11.4070   48.4189   55.8777 C   0  0  0  0  0  3  0  0  0  0  0  0
   10.3244   50.4328   56.5946 C   0  0  0  0  0  3  0  0  0  0  0  0
   11.4773   49.6779   56.4366 C   0  0  0  0  0  3  0  0  0  0  0  0
  1 13  1  0
  2  1  1  0
  2  3  1  0
  3  6  2  0
  4  3  1  0
  4  5  1  0
  5  9  1  0
  5  7  2  0
  6  7  1  0
  8  4  1  0
  9 11  1  0
 10 12  1  0
 10  9  1  0
 12 11  1  0
 13 15  1  0
 13 14  2  0
 14 16  1  0
 15 17  2  0
 16 18  2  0
 17 18  1  0
 19 21  2  0
 19 15  1  0
 20 19  1  0
 22 24  1  0
 22 20  1  0
 23 22  2  0
 25 27  2  0
 25 23  1  0
 26 24  2  0
 27 26  1  0
M  RAD  8   2   3   8   2   9   2  10   3  11   3  12   3  14   2  16   2
M  RAD  7  17   2  18   2  23   2  24   2  25   2  26   2  27   2
M  END
>  <REMARK>  (1) 
 SMILES Cn1c(COc2ccccc2C(=O)Nc2ccccc2)nnc1C1CCC1
 SMILES IDX 5 1 4 2 3 3 2 4 23 5 21 6 22 7 1 8 24 9 25 10 27 11 26 12
 SMILES IDX 6 13 7 14 11 15 8 16 10 17 9 18 12 19 14 20 13 21 15 23
 SMILES IDX 16 24 20 25 17 26 19 27 18 28
 H PARENT 14 22

>  <TORSDO>  (1) 
F 6

$$$$
