/home/pchatterjee/Documents/git/vs_workflow/DiffDock/diffdock_run/pdbqt_scrubbed/Z1646104587.pdbqt
     RDKit          3D

 27 30  0  0  0  0  0  0  0  0999 V2000
    8.6025   46.3624   51.8255 O   0  0  0  0  0  0  0  0  0  0  0  0
    9.5289   45.3909   51.3799 C   0  0  0  0  0  2  0  0  0  0  0  0
    8.9473   44.4073   50.4400 C   0  0  0  0  0  0  0  0  0  0  0  0
    7.7661   43.7906   50.6276 N   0  0  0  0  0  0  0  0  0  0  0  0
    7.5883   42.9814   49.5680 C   0  0  0  0  0  0  0  0  0  0  0  0
    9.4621   43.9550   49.2633 N   0  0  0  0  0  0  0  0  0  0  0  0
    8.6349   43.0783   48.7191 N   0  0  0  0  0  0  0  0  0  0  0  0
    6.8709   43.9797   51.7666 C   0  0  0  0  0  1  0  0  0  0  0  0
    6.3670   42.1208   49.4233 C   0  0  0  0  0  3  0  0  0  0  0  0
    5.1146   42.8779   49.0135 C   0  0  0  0  0  2  0  0  0  0  0  0
    6.3184   41.3399   48.1328 C   0  0  0  0  0  2  0  0  0  0  0  0
    5.0294   42.0474   47.7542 C   0  0  0  0  0  2  0  0  0  0  0  0
    8.8345   47.1637   52.9350 C   0  0  0  0  0  0  0  0  0  0  0  0
   10.1119   47.6822   53.1289 C   0  0  0  0  0  3  0  0  0  0  0  0
    7.8042   47.4278   53.8149 C   0  0  0  0  0  0  0  0  0  0  0  0
   10.3909   48.4830   54.2156 C   0  0  0  0  0  3  0  0  0  0  0  0
    8.1021   48.2334   54.9002 C   0  0  0  0  0  3  0  0  0  0  0  0
    9.3686   48.7556   55.1047 C   0  0  0  0  0  3  0  0  0  0  0  0
    6.4628   46.8787   53.6044 C   0  0  0  0  0  0  0  0  0  0  0  0
    5.4107   47.3753   54.4042 N   0  0  0  0  0  0  0  0  0  0  0  0
    6.3230   45.9997   52.7272 O   0  0  0  0  0  0  0  0  0  0  0  0
    4.1035   46.8247   54.2911 C   0  0  0  0  0  0  0  0  0  0  0  0
    3.2379   47.2481   53.3046 C   0  0  0  0  0  3  0  0  0  0  0  0
    3.6534   45.8562   55.1533 C   0  0  0  0  0  3  0  0  0  0  0  0
    1.9588   46.7585   53.1371 C   0  0  0  0  0  3  0  0  0  0  0  0
    2.3695   45.3345   55.0200 C   0  0  0  0  0  3  0  0  0  0  0  0
    1.5272   45.7858   54.0146 C   0  0  0  0  0  3  0  0  0  0  0  0
  1 13  1  0
  2  1  1  0
  2  3  1  0
  3  6  2  0
  4  3  1  0
  4  5  1  0
  5  9  1  0
  5  7  2  0
  6  7  1  0
  8  4  1  0
  9 11  1  0
 10 12  1  0
 10  9  1  0
 12 11  1  0
 13 15  1  0
 13 14  2  0
 14 16  1  0
 15 17  2  0
 16 18  2  0
 17 18  1  0
 19 21  2  0
 19 15  1  0
 20 19  1  0
 22 24  1  0
 22 20  1  0
 23 22  2  0
 25 27  2  0
 25 23  1  0
 26 24  2  0
 27 26  1  0
M  RAD  8   2   3   8   2   9   2  10   3  11   3  12   3  14   2  16   2
M  RAD  7  17   2  18   2  23   2  24   2  25   2  26   2  27   2
M  END
>  <REMARK>  (1) 
 SMILES Cn1c(COc2ccccc2C(=O)Nc2ccccc2)nnc1C1CCC1
 SMILES IDX 5 1 4 2 3 3 2 4 23 5 21 6 22 7 1 8 24 9 25 10 27 11 26 12
 SMILES IDX 6 13 7 14 11 15 8 16 10 17 9 18 12 19 14 20 13 21 15 23
 SMILES IDX 16 24 20 25 17 26 19 27 18 28
 H PARENT 14 22

>  <TORSDO>  (1) 
F 6

$$$$
