/home/pchatterjee/Documents/git/vs_workflow/DiffDock/diffdock_run/pdbqt_scrubbed/Z1646104587.pdbqt
     RDKit          3D

 27 30  0  0  0  0  0  0  0  0999 V2000
    6.3423   42.7871   49.8660 O   0  0  0  0  0  0  0  0  0  0  0  0
    7.3906   43.1990   49.0104 C   0  0  0  0  0  2  0  0  0  0  0  0
    8.3891   44.0657   49.6745 C   0  0  0  0  0  0  0  0  0  0  0  0
    8.0871   45.2048   50.3242 N   0  0  0  0  0  0  0  0  0  0  0  0
    9.2505   45.6985   50.7847 C   0  0  0  0  0  0  0  0  0  0  0  0
    9.7374   43.8937   49.7564 N   0  0  0  0  0  0  0  0  0  0  0  0
   10.2766   44.8914   50.4366 N   0  0  0  0  0  0  0  0  0  0  0  0
    6.7507   45.7727   50.4843 C   0  0  0  0  0  1  0  0  0  0  0  0
    9.3146   46.9765   51.5693 C   0  0  0  0  0  3  0  0  0  0  0  0
    8.7067   46.8869   52.9594 C   0  0  0  0  0  2  0  0  0  0  0  0
   10.6676   47.2535   52.1778 C   0  0  0  0  0  2  0  0  0  0  0  0
   10.0479   47.2318   53.5638 C   0  0  0  0  0  2  0  0  0  0  0  0
    5.3010   41.9760   49.4363 C   0  0  0  0  0  0  0  0  0  0  0  0
    5.5743   40.9732   48.5099 C   0  0  0  0  0  3  0  0  0  0  0  0
    4.0283   42.1778   49.9311 C   0  0  0  0  0  0  0  0  0  0  0  0
    4.5734   40.1426   48.0534 C   0  0  0  0  0  3  0  0  0  0  0  0
    3.0359   41.3349   49.4619 C   0  0  0  0  0  3  0  0  0  0  0  0
    3.2943   40.3335   48.5405 C   0  0  0  0  0  3  0  0  0  0  0  0
    3.7484   43.2349   50.9055 C   0  0  0  0  0  0  0  0  0  0  0  0
    2.4129   43.4084   51.3295 N   0  0  0  0  0  0  0  0  0  0  0  0
    4.7083   43.9261   51.3087 O   0  0  0  0  0  0  0  0  0  0  0  0
    2.0891   44.4126   52.2840 C   0  0  0  0  0  0  0  0  0  0  0  0
    1.9896   44.1108   53.6260 C   0  0  0  0  0  3  0  0  0  0  0  0
    1.8638   45.7142   51.9111 C   0  0  0  0  0  3  0  0  0  0  0  0
    1.6799   45.0332   54.6043 C   0  0  0  0  0  3  0  0  0  0  0  0
    1.5485   46.6771   52.8659 C   0  0  0  0  0  3  0  0  0  0  0  0
    1.4575   46.3352   54.2071 C   0  0  0  0  0  3  0  0  0  0  0  0
  1 13  1  0
  2  1  1  0
  2  3  1  0
  3  6  2  0
  4  3  1  0
  4  5  1  0
  5  9  1  0
  5  7  2  0
  6  7  1  0
  8  4  1  0
  9 11  1  0
 10 12  1  0
 10  9  1  0
 12 11  1  0
 13 15  1  0
 13 14  2  0
 14 16  1  0
 15 17  2  0
 16 18  2  0
 17 18  1  0
 19 21  2  0
 19 15  1  0
 20 19  1  0
 22 24  1  0
 22 20  1  0
 23 22  2  0
 25 27  2  0
 25 23  1  0
 26 24  2  0
 27 26  1  0
M  RAD  8   2   3   8   2   9   2  10   3  11   3  12   3  14   2  16   2
M  RAD  7  17   2  18   2  23   2  24   2  25   2  26   2  27   2
M  END
>  <REMARK>  (1) 
 SMILES Cn1c(COc2ccccc2C(=O)Nc2ccccc2)nnc1C1CCC1
 SMILES IDX 5 1 4 2 3 3 2 4 23 5 21 6 22 7 1 8 24 9 25 10 27 11 26 12
 SMILES IDX 6 13 7 14 11 15 8 16 10 17 9 18 12 19 14 20 13 21 15 23
 SMILES IDX 16 24 20 25 17 26 19 27 18 28
 H PARENT 14 22

>  <TORSDO>  (1) 
F 6

$$$$
