/home/pchatterjee/Documents/git/vs_workflow/DiffDock/diffdock_run/pdbqt_scrubbed/Z1646104587.pdbqt
     RDKit          3D

 27 30  0  0  0  0  0  0  0  0999 V2000
    7.9412   65.5202   83.8644 O   0  0  0  0  0  0  0  0  0  0  0  0
    6.5938   65.1605   84.1004 C   0  0  0  0  0  2  0  0  0  0  0  0
    5.7312   66.3068   84.4624 C   0  0  0  0  0  0  0  0  0  0  0  0
    4.4254   66.2016   84.7701 N   0  0  0  0  0  0  0  0  0  0  0  0
    3.9974   67.4483   85.0383 C   0  0  0  0  0  0  0  0  0  0  0  0
    6.0673   67.6234   84.5516 N   0  0  0  0  0  0  0  0  0  0  0  0
    5.0092   68.3337   84.9048 N   0  0  0  0  0  0  0  0  0  0  0  0
    3.6479   64.9652   84.8001 C   0  0  0  0  0  1  0  0  0  0  0  0
    2.5754   67.7326   85.4255 C   0  0  0  0  0  3  0  0  0  0  0  0
    2.2237   69.2104   85.4693 C   0  0  0  0  0  2  0  0  0  0  0  0
    1.5842   67.5289   84.3059 C   0  0  0  0  0  2  0  0  0  0  0  0
    1.1835   68.9907   84.3956 C   0  0  0  0  0  2  0  0  0  0  0  0
    8.9527   64.5801   83.7229 C   0  0  0  0  0  0  0  0  0  0  0  0
    8.7453   63.2962   84.2199 C   0  0  0  0  0  3  0  0  0  0  0  0
   10.1319   64.9335   83.0985 C   0  0  0  0  0  0  0  0  0  0  0  0
    9.7199   62.3285   84.1031 C   0  0  0  0  0  3  0  0  0  0  0  0
   11.0993   63.9496   82.9900 C   0  0  0  0  0  3  0  0  0  0  0  0
   10.9057   62.6686   83.4802 C   0  0  0  0  0  3  0  0  0  0  0  0
   10.3429   66.2862   82.5781 C   0  0  0  0  0  0  0  0  0  0  0  0
   11.6129   66.6015   82.0480 N   0  0  0  0  0  0  0  0  0  0  0  0
    9.3860   67.0881   82.6320 O   0  0  0  0  0  0  0  0  0  0  0  0
   11.8653   67.8963   81.5148 C   0  0  0  0  0  0  0  0  0  0  0  0
   13.0733   68.5276   81.7252 C   0  0  0  0  0  3  0  0  0  0  0  0
   10.9234   68.5659   80.7743 C   0  0  0  0  0  3  0  0  0  0  0  0
   13.3851   69.7805   81.2387 C   0  0  0  0  0  3  0  0  0  0  0  0
   11.1966   69.8322   80.2643 C   0  0  0  0  0  3  0  0  0  0  0  0
   12.4239   70.4352   80.4971 C   0  0  0  0  0  3  0  0  0  0  0  0
  1 13  1  0
  2  1  1  0
  2  3  1  0
  3  6  2  0
  4  3  1  0
  4  5  1  0
  5  9  1  0
  5  7  2  0
  6  7  1  0
  8  4  1  0
  9 11  1  0
 10 12  1  0
 10  9  1  0
 12 11  1  0
 13 15  1  0
 13 14  2  0
 14 16  1  0
 15 17  2  0
 16 18  2  0
 17 18  1  0
 19 21  2  0
 19 15  1  0
 20 19  1  0
 22 24  1  0
 22 20  1  0
 23 22  2  0
 25 27  2  0
 25 23  1  0
 26 24  2  0
 27 26  1  0
M  RAD  8   2   3   8   2   9   2  10   3  11   3  12   3  14   2  16   2
M  RAD  7  17   2  18   2  23   2  24   2  25   2  26   2  27   2
M  END
>  <REMARK>  (1) 
 SMILES Cn1c(COc2ccccc2C(=O)Nc2ccccc2)nnc1C1CCC1
 SMILES IDX 5 1 4 2 3 3 2 4 23 5 21 6 22 7 1 8 24 9 25 10 27 11 26 12
 SMILES IDX 6 13 7 14 11 15 8 16 10 17 9 18 12 19 14 20 13 21 15 23
 SMILES IDX 16 24 20 25 17 26 19 27 18 28
 H PARENT 14 22

>  <TORSDO>  (1) 
F 6

$$$$
