/home/pchatterjee/Documents/git/vs_workflow/DiffDock/diffdock_run/pdbqt_scrubbed/Z1646104587.pdbqt
     RDKit          3D

 27 30  0  0  0  0  0  0  0  0999 V2000
    8.8841   46.4616   51.9610 O   0  0  0  0  0  0  0  0  0  0  0  0
    9.5438   45.2301   51.7400 C   0  0  0  0  0  2  0  0  0  0  0  0
    8.9475   44.4280   50.6490 C   0  0  0  0  0  0  0  0  0  0  0  0
    7.6262   44.2230   50.4978 N   0  0  0  0  0  0  0  0  0  0  0  0
    7.4846   43.4533   49.4038 C   0  0  0  0  0  0  0  0  0  0  0  0
    9.5811   43.7737   49.6367 N   0  0  0  0  0  0  0  0  0  0  0  0
    8.6914   43.1714   48.8656 N   0  0  0  0  0  0  0  0  0  0  0  0
    6.5724   44.7446   51.3647 C   0  0  0  0  0  1  0  0  0  0  0  0
    6.1364   43.0114   48.9140 C   0  0  0  0  0  3  0  0  0  0  0  0
    6.1761   41.8354   47.9523 C   0  0  0  0  0  2  0  0  0  0  0  0
    5.3689   42.1741   49.9077 C   0  0  0  0  0  2  0  0  0  0  0  0
    5.3491   41.0212   48.9198 C   0  0  0  0  0  2  0  0  0  0  0  0
    9.0836   47.2223   53.1049 C   0  0  0  0  0  0  0  0  0  0  0  0
   10.3778   47.6272   53.4202 C   0  0  0  0  0  3  0  0  0  0  0  0
    8.0056   47.5588   53.8987 C   0  0  0  0  0  0  0  0  0  0  0  0
   10.6259   48.3837   54.5454 C   0  0  0  0  0  3  0  0  0  0  0  0
    8.2730   48.3186   55.0242 C   0  0  0  0  0  3  0  0  0  0  0  0
    9.5558   48.7278   55.3493 C   0  0  0  0  0  3  0  0  0  0  0  0
    6.6468   47.1292   53.5605 C   0  0  0  0  0  0  0  0  0  0  0  0
    5.6271   47.3463   54.5126 N   0  0  0  0  0  0  0  0  0  0  0  0
    6.4643   46.5935   52.4464 O   0  0  0  0  0  0  0  0  0  0  0  0
    4.3325   46.7899   54.3152 C   0  0  0  0  0  0  0  0  0  0  0  0
    3.5405   47.1918   53.2603 C   0  0  0  0  0  3  0  0  0  0  0  0
    3.8221   45.8368   55.1609 C   0  0  0  0  0  3  0  0  0  0  0  0
    2.2777   46.6954   53.0095 C   0  0  0  0  0  3  0  0  0  0  0  0
    2.5521   45.3091   54.9446 C   0  0  0  0  0  3  0  0  0  0  0  0
    1.7846   45.7386   53.8720 C   0  0  0  0  0  3  0  0  0  0  0  0
  1 13  1  0
  2  1  1  0
  2  3  1  0
  3  6  2  0
  4  3  1  0
  4  5  1  0
  5  9  1  0
  5  7  2  0
  6  7  1  0
  8  4  1  0
  9 11  1  0
 10 12  1  0
 10  9  1  0
 12 11  1  0
 13 15  1  0
 13 14  2  0
 14 16  1  0
 15 17  2  0
 16 18  2  0
 17 18  1  0
 19 21  2  0
 19 15  1  0
 20 19  1  0
 22 24  1  0
 22 20  1  0
 23 22  2  0
 25 27  2  0
 25 23  1  0
 26 24  2  0
 27 26  1  0
M  RAD  8   2   3   8   2   9   2  10   3  11   3  12   3  14   2  16   2
M  RAD  7  17   2  18   2  23   2  24   2  25   2  26   2  27   2
M  END
>  <REMARK>  (1) 
 SMILES Cn1c(COc2ccccc2C(=O)Nc2ccccc2)nnc1C1CCC1
 SMILES IDX 5 1 4 2 3 3 2 4 23 5 21 6 22 7 1 8 24 9 25 10 27 11 26 12
 SMILES IDX 6 13 7 14 11 15 8 16 10 17 9 18 12 19 14 20 13 21 15 23
 SMILES IDX 16 24 20 25 17 26 19 27 18 28
 H PARENT 14 22

>  <TORSDO>  (1) 
F 6

$$$$
