/home/pchatterjee/Documents/git/vs_workflow/DiffDock/diffdock_run/pdbqt_scrubbed/Z1646104587.pdbqt
     RDKit          3D

 27 30  0  0  0  0  0  0  0  0999 V2000
   11.5624   61.5780   84.4424 O   0  0  0  0  0  0  0  0  0  0  0  0
   11.2322   60.7071   85.5068 C   0  0  0  0  0  2  0  0  0  0  0  0
    9.8423   60.8642   85.9891 C   0  0  0  0  0  0  0  0  0  0  0  0
    9.3361   60.2204   87.0568 N   0  0  0  0  0  0  0  0  0  0  0  0
    8.0579   60.6232   87.1716 C   0  0  0  0  0  0  0  0  0  0  0  0
    8.8530   61.6478   85.4776 N   0  0  0  0  0  0  0  0  0  0  0  0
    7.7521   61.5073   86.1968 N   0  0  0  0  0  0  0  0  0  0  0  0
   10.0539   59.2745   87.9079 C   0  0  0  0  0  1  0  0  0  0  0  0
    7.1604   60.1131   88.2613 C   0  0  0  0  0  3  0  0  0  0  0  0
    7.4860   60.6550   89.6433 C   0  0  0  0  0  2  0  0  0  0  0  0
    5.8132   60.7912   88.3117 C   0  0  0  0  0  2  0  0  0  0  0  0
    6.1106   61.2757   89.7196 C   0  0  0  0  0  2  0  0  0  0  0  0
   12.8277   61.6169   83.8727 C   0  0  0  0  0  0  0  0  0  0  0  0
   13.7164   60.5815   84.1490 C   0  0  0  0  0  3  0  0  0  0  0  0
   13.1757   62.6708   83.0519 C   0  0  0  0  0  0  0  0  0  0  0  0
   14.9837   60.5759   83.6067 C   0  0  0  0  0  3  0  0  0  0  0  0
   14.4517   62.6489   82.5162 C   0  0  0  0  0  3  0  0  0  0  0  0
   15.3455   61.6250   82.7830 C   0  0  0  0  0  3  0  0  0  0  0  0
   12.2352   63.7565   82.7658 C   0  0  0  0  0  0  0  0  0  0  0  0
   12.7522   65.0640   82.6369 N   0  0  0  0  0  0  0  0  0  0  0  0
   11.0253   63.4657   82.6513 O   0  0  0  0  0  0  0  0  0  0  0  0
   11.8817   66.1542   82.3571 C   0  0  0  0  0  0  0  0  0  0  0  0
   12.3686   67.4390   82.2385 C   0  0  0  0  0  3  0  0  0  0  0  0
   10.5308   65.9733   82.1948 C   0  0  0  0  0  3  0  0  0  0  0  0
   11.5831   68.5408   81.9689 C   0  0  0  0  0  3  0  0  0  0  0  0
    9.7017   67.0577   81.9216 C   0  0  0  0  0  3  0  0  0  0  0  0
   10.2284   68.3360   81.8095 C   0  0  0  0  0  3  0  0  0  0  0  0
  1 13  1  0
  2  1  1  0
  2  3  1  0
  3  6  2  0
  4  3  1  0
  4  5  1  0
  5  9  1  0
  5  7  2  0
  6  7  1  0
  8  4  1  0
  9 11  1  0
 10 12  1  0
 10  9  1  0
 12 11  1  0
 13 15  1  0
 13 14  2  0
 14 16  1  0
 15 17  2  0
 16 18  2  0
 17 18  1  0
 19 21  2  0
 19 15  1  0
 20 19  1  0
 22 24  1  0
 22 20  1  0
 23 22  2  0
 25 27  2  0
 25 23  1  0
 26 24  2  0
 27 26  1  0
M  RAD  8   2   3   8   2   9   2  10   3  11   3  12   3  14   2  16   2
M  RAD  7  17   2  18   2  23   2  24   2  25   2  26   2  27   2
M  END
>  <REMARK>  (1) 
 SMILES Cn1c(COc2ccccc2C(=O)Nc2ccccc2)nnc1C1CCC1
 SMILES IDX 5 1 4 2 3 3 2 4 23 5 21 6 22 7 1 8 24 9 25 10 27 11 26 12
 SMILES IDX 6 13 7 14 11 15 8 16 10 17 9 18 12 19 14 20 13 21 15 23
 SMILES IDX 16 24 20 25 17 26 19 27 18 28
 H PARENT 14 22

>  <TORSDO>  (1) 
F 6

$$$$
