/home/pchatterjee/Documents/git/vs_workflow/DiffDock/diffdock_run/pdbqt_scrubbed/Z1463055422.pdbqt
     RDKit          3D

 23 25  0  0  0  0  0  0  0  0999 V2000
    4.8465   45.1081   51.5578 C   0  0  0  0  0  0  0  0  0  0  0  0
    4.0975   46.0833   52.2350 C   0  0  0  0  0  3  0  0  0  0  0  0
    2.7586   45.9221   52.5114 C   0  0  0  0  0  3  0  0  0  0  0  0
    2.1034   44.7763   52.1233 C   0  0  0  0  0  3  0  0  0  0  0  0
    2.8189   43.7989   51.4549 C   0  0  0  0  0  3  0  0  0  0  0  0
    4.1812   43.9883   51.1870 C   0  0  0  0  0  0  0  0  0  0  0  0
    6.2333   45.4115   51.3349 C   0  0  0  0  0  0  0  0  0  0  0  0
    7.0762   46.1907   52.1456 N   0  0  0  0  0  0  0  0  0  0  0  0
    6.7694   44.9193   50.2851 O   0  0  0  0  0  0  0  0  0  0  0  0
    8.5062   46.1322   51.8867 C   0  0  1  0  0  0  0  0  0  0  0  0
    9.0348   47.4346   51.3558 C   0  0  0  0  0  2  0  0  0  0  0  0
    9.1915   45.6492   53.1177 C   0  0  0  0  0  2  0  0  0  0  0  0
    9.7647   48.2858   52.3223 C   0  0  0  0  0  2  0  0  0  0  0  0
   10.2020   46.5931   53.6875 C   0  0  0  0  0  2  0  0  0  0  0  0
    9.7011   47.8969   53.6404 O   0  0  0  0  0  0  0  0  0  0  0  0
    8.8259   45.1178   50.8351 C   0  0  0  0  0  0  0  0  0  0  0  0
    8.2681   43.8225   51.0191 N   0  0  0  0  0  0  0  0  0  0  0  0
    9.5265   45.3331   49.8438 O   0  0  0  0  0  0  0  0  0  0  0  0
    4.8076   42.9565   50.5235 O   0  0  0  0  0  0  0  0  0  0  0  0
    4.0295   41.8174   50.1178 C   0  0  0  0  0  2  0  0  0  0  0  0
    4.8477   40.8614   49.2781 C   0  0  0  0  0  3  0  0  0  0  0  0
    5.6416   41.4219   48.1211 C   0  0  0  0  0  2  0  0  0  0  0  0
    4.3545   40.5803   47.8807 C   0  0  0  0  0  2  0  0  0  0  0  0
  1  7  1  0
  1  2  2  0
  2  3  1  0
  4  3  2  0
  5  4  1  0
  6  5  2  0
  6  1  1  0
  7  9  2  0
  8  7  1  0
 10  8  1  1
 10 16  1  0
 10 12  1  0
 11 10  1  0
 13 11  1  0
 13 15  1  0
 14 12  1  0
 15 14  1  0
 16 18  2  0
 16 17  1  0
 19  6  1  0
 20 19  1  0
 21 20  1  0
 22 21  1  0
 23 22  1  0
 23 21  1  0
M  RAD  8   2   2   3   2   4   2   5   2  11   3  12   3  13   3  14   3
M  RAD  4  20   3  21   2  22   3  23   3
M  END
>  <REMARK>  (1) 
 SMILES NC(=O)C1(NC(=O)c2ccccc2OCC2CC2)CCOCC1
 SMILES IDX 8 1 9 2 10 3 11 4 12 5 13 6 6 7 5 8 7 10 4 11 19 12 23 13
 SMILES IDX 20 14 22 15 21 16 2 17 1 18 3 21 14 22 15 23 16 24 17 25
 SMILES IDX 18 26
 H PARENT 5 9 1 19 1 20

>  <TORSDO>  (1) 
F 6

$$$$
