/home/pchatterjee/Documents/git/vs_workflow/DiffDock/diffdock_run/pdbqt_scrubbed/Z1463055422.pdbqt
     RDKit          3D

 23 25  0  0  0  0  0  0  0  0999 V2000
   15.3897   84.4701   70.8089 C   0  0  0  0  0  0  0  0  0  0  0  0
   16.6252   83.9480   71.2231 C   0  0  0  0  0  3  0  0  0  0  0  0
   16.7867   82.6249   71.5673 C   0  0  0  0  0  3  0  0  0  0  0  0
   15.7189   81.7591   71.5138 C   0  0  0  0  0  3  0  0  0  0  0  0
   14.4901   82.2481   71.1079 C   0  0  0  0  0  3  0  0  0  0  0  0
   14.3535   83.5992   70.7624 C   0  0  0  0  0  0  0  0  0  0  0  0
   15.3668   85.8694   70.4832 C   0  0  0  0  0  0  0  0  0  0  0  0
   15.7787   86.9403   71.2947 N   0  0  0  0  0  0  0  0  0  0  0  0
   14.9263   86.1847   69.3263 O   0  0  0  0  0  0  0  0  0  0  0  0
   15.6009   88.2878   70.7772 C   0  0  1  0  0  0  0  0  0  0  0  0
   14.1791   88.5493   70.3676 C   0  0  0  0  0  2  0  0  0  0  0  0
   16.1382   89.2538   71.7755 C   0  0  0  0  0  2  0  0  0  0  0  0
   13.3663   89.3545   71.3069 C   0  0  0  0  0  2  0  0  0  0  0  0
   15.1433   90.2431   72.2932 C   0  0  0  0  0  2  0  0  0  0  0  0
   13.9282   89.5979   72.5389 O   0  0  0  0  0  0  0  0  0  0  0  0
   16.4147   88.5061   69.5415 C   0  0  0  0  0  0  0  0  0  0  0  0
   15.7022   88.5088   68.3105 N   0  0  0  0  0  0  0  0  0  0  0  0
   17.6352   88.6793   69.5276 O   0  0  0  0  0  0  0  0  0  0  0  0
   13.0937   83.9888   70.3648 O   0  0  0  0  0  0  0  0  0  0  0  0
   11.9504   83.3230   70.9279 C   0  0  0  0  0  2  0  0  0  0  0  0
   10.6600   83.8512   70.3411 C   0  0  0  0  0  3  0  0  0  0  0  0
   10.0821   85.1260   70.9102 C   0  0  0  0  0  2  0  0  0  0  0  0
    9.4226   83.7456   71.1971 C   0  0  0  0  0  2  0  0  0  0  0  0
  1  7  1  0
  1  2  2  0
  2  3  1  0
  4  3  2  0
  5  4  1  0
  6  5  2  0
  6  1  1  0
  7  9  2  0
  8  7  1  0
 10  8  1  1
 10 16  1  0
 10 12  1  0
 11 10  1  0
 13 11  1  0
 13 15  1  0
 14 12  1  0
 15 14  1  0
 16 18  2  0
 16 17  1  0
 19  6  1  0
 20 19  1  0
 21 20  1  0
 22 21  1  0
 23 22  1  0
 23 21  1  0
M  RAD  8   2   2   3   2   4   2   5   2  11   3  12   3  13   3  14   3
M  RAD  4  20   3  21   2  22   3  23   3
M  END
>  <REMARK>  (1) 
 SMILES NC(=O)C1(NC(=O)c2ccccc2OCC2CC2)CCOCC1
 SMILES IDX 8 1 9 2 10 3 11 4 12 5 13 6 6 7 5 8 7 10 4 11 19 12 23 13
 SMILES IDX 20 14 22 15 21 16 2 17 1 18 3 21 14 22 15 23 16 24 17 25
 SMILES IDX 18 26
 H PARENT 5 9 1 19 1 20

>  <TORSDO>  (1) 
F 6

$$$$
