/home/pchatterjee/Documents/git/vs_workflow/DiffDock/diffdock_run/pdbqt_scrubbed/Z1463055422.pdbqt
     RDKit          3D

 23 25  0  0  0  0  0  0  0  0999 V2000
   14.3992   57.4442   84.7007 C   0  0  0  0  0  0  0  0  0  0  0  0
   15.6203   57.2383   85.3621 C   0  0  0  0  0  3  0  0  0  0  0  0
   16.6677   58.1264   85.2665 C   0  0  0  0  0  3  0  0  0  0  0  0
   16.5443   59.2648   84.5040 C   0  0  0  0  0  3  0  0  0  0  0  0
   15.3508   59.4921   83.8425 C   0  0  0  0  0  3  0  0  0  0  0  0
   14.3002   58.5720   83.9575 C   0  0  0  0  0  0  0  0  0  0  0  0
   13.3953   56.4333   84.8879 C   0  0  0  0  0  0  0  0  0  0  0  0
   13.5585   55.1694   85.4802 N   0  0  0  0  0  0  0  0  0  0  0  0
   12.2180   56.7068   84.4745 O   0  0  0  0  0  0  0  0  0  0  0  0
   12.3581   54.4173   85.8097 C   0  0  1  0  0  0  0  0  0  0  0  0
   11.7283   53.8026   84.5918 C   0  0  0  0  0  2  0  0  0  0  0  0
   12.6898   53.4425   86.8858 C   0  0  0  0  0  2  0  0  0  0  0  0
   11.9627   52.3541   84.3959 C   0  0  0  0  0  2  0  0  0  0  0  0
   12.4559   52.0086   86.5307 C   0  0  0  0  0  2  0  0  0  0  0  0
   12.8948   51.7738   85.2249 O   0  0  0  0  0  0  0  0  0  0  0  0
   11.3053   55.3046   86.3938 C   0  0  0  0  0  0  0  0  0  0  0  0
   10.1369   55.4983   85.6062 N   0  0  0  0  0  0  0  0  0  0  0  0
   11.3886   55.8634   87.4895 O   0  0  0  0  0  0  0  0  0  0  0  0
   13.1510   58.8897   83.2678 O   0  0  0  0  0  0  0  0  0  0  0  0
   13.1684   60.0104   82.3672 C   0  0  0  0  0  2  0  0  0  0  0  0
   11.8288   60.1935   81.6886 C   0  0  0  0  0  3  0  0  0  0  0  0
   11.7571   61.0864   80.4719 C   0  0  0  0  0  2  0  0  0  0  0  0
   11.1618   61.5381   81.8373 C   0  0  0  0  0  2  0  0  0  0  0  0
  1  7  1  0
  1  2  2  0
  2  3  1  0
  4  3  2  0
  5  4  1  0
  6  5  2  0
  6  1  1  0
  7  9  2  0
  8  7  1  0
 10  8  1  6
 10 16  1  0
 10 12  1  0
 11 10  1  0
 13 11  1  0
 13 15  1  0
 14 12  1  0
 15 14  1  0
 16 18  2  0
 16 17  1  0
 19  6  1  0
 20 19  1  0
 21 20  1  0
 22 21  1  0
 23 22  1  0
 23 21  1  0
M  RAD  8   2   2   3   2   4   2   5   2  11   3  12   3  13   3  14   3
M  RAD  4  20   3  21   2  22   3  23   3
M  END
>  <REMARK>  (1) 
 SMILES NC(=O)C1(NC(=O)c2ccccc2OCC2CC2)CCOCC1
 SMILES IDX 8 1 9 2 10 3 11 4 12 5 13 6 6 7 5 8 7 10 4 11 19 12 23 13
 SMILES IDX 20 14 22 15 21 16 2 17 1 18 3 21 14 22 15 23 16 24 17 25
 SMILES IDX 18 26
 H PARENT 5 9 1 19 1 20

>  <TORSDO>  (1) 
F 6

$$$$
