/home/pchatterjee/Documents/git/vs_workflow/DiffDock/diffdock_run/pdbqt_scrubbed/Z1463055422.pdbqt
     RDKit          3D

 23 25  0  0  0  0  0  0  0  0999 V2000
   13.6913   65.9858   82.8465 C   0  0  0  0  0  0  0  0  0  0  0  0
   14.8707   65.6920   83.5488 C   0  0  0  0  0  3  0  0  0  0  0  0
   15.9714   66.5180   83.5167 C   0  0  0  0  0  3  0  0  0  0  0  0
   15.9457   67.6794   82.7796 C   0  0  0  0  0  3  0  0  0  0  0  0
   14.7949   67.9929   82.0786 C   0  0  0  0  0  3  0  0  0  0  0  0
   13.6884   67.1346   82.1292 C   0  0  0  0  0  0  0  0  0  0  0  0
   12.6232   65.0324   82.9687 C   0  0  0  0  0  0  0  0  0  0  0  0
   12.5566   63.9344   83.8433 N   0  0  0  0  0  0  0  0  0  0  0  0
   11.6150   65.1951   82.2013 O   0  0  0  0  0  0  0  0  0  0  0  0
   11.3454   63.1296   83.8267 C   0  0  1  0  0  0  0  0  0  0  0  0
   11.5623   61.8017   83.1577 C   0  0  0  0  0  2  0  0  0  0  0  0
   10.8191   63.0363   85.2169 C   0  0  0  0  0  2  0  0  0  0  0  0
   11.7118   60.6346   84.0559 C   0  0  0  0  0  2  0  0  0  0  0  0
   10.7101   61.6459   85.7571 C   0  0  0  0  0  2  0  0  0  0  0  0
   11.8451   60.9149   85.3962 O   0  0  0  0  0  0  0  0  0  0  0  0
   10.2619   63.7961   83.0401 C   0  0  0  0  0  0  0  0  0  0  0  0
    9.6192   64.9008   83.6640 N   0  0  0  0  0  0  0  0  0  0  0  0
    9.9026   63.4529   81.9118 O   0  0  0  0  0  0  0  0  0  0  0  0
   12.5884   67.5363   81.4042 O   0  0  0  0  0  0  0  0  0  0  0  0
   12.4505   68.9264   81.0633 C   0  0  0  0  0  2  0  0  0  0  0  0
   11.2441   69.1610   80.1814 C   0  0  0  0  0  3  0  0  0  0  0  0
   11.2617   70.3439   79.2415 C   0  0  0  0  0  2  0  0  0  0  0  0
   10.3682   70.3425   80.5161 C   0  0  0  0  0  2  0  0  0  0  0  0
  1  7  1  0
  1  2  2  0
  2  3  1  0
  4  3  2  0
  5  4  1  0
  6  5  2  0
  6  1  1  0
  7  9  2  0
  8  7  1  0
 10  8  1  1
 10 16  1  0
 10 12  1  0
 11 10  1  0
 13 11  1  0
 13 15  1  0
 14 12  1  0
 15 14  1  0
 16 18  2  0
 16 17  1  0
 19  6  1  0
 20 19  1  0
 21 20  1  0
 22 21  1  0
 23 22  1  0
 23 21  1  0
M  RAD  8   2   2   3   2   4   2   5   2  11   3  12   3  13   3  14   3
M  RAD  4  20   3  21   2  22   3  23   3
M  END
>  <REMARK>  (1) 
 SMILES NC(=O)C1(NC(=O)c2ccccc2OCC2CC2)CCOCC1
 SMILES IDX 8 1 9 2 10 3 11 4 12 5 13 6 6 7 5 8 7 10 4 11 19 12 23 13
 SMILES IDX 20 14 22 15 21 16 2 17 1 18 3 21 14 22 15 23 16 24 17 25
 SMILES IDX 18 26
 H PARENT 5 9 1 19 1 20

>  <TORSDO>  (1) 
F 6

$$$$
