/home/pchatterjee/Documents/git/vs_workflow/DiffDock/diffdock_run/pdbqt_scrubbed/Z1463055422.pdbqt
     RDKit          3D

 23 25  0  0  0  0  0  0  0  0999 V2000
   15.2613   84.5251   70.1076 C   0  0  0  0  0  0  0  0  0  0  0  0
   14.1664   83.9699   70.7885 C   0  0  0  0  0  3  0  0  0  0  0  0
   14.2718   82.8189   71.5364 C   0  0  0  0  0  3  0  0  0  0  0  0
   15.4788   82.1669   71.6395 C   0  0  0  0  0  3  0  0  0  0  0  0
   16.5741   82.6938   70.9787 C   0  0  0  0  0  3  0  0  0  0  0  0
   16.4393   83.8672   70.2248 C   0  0  0  0  0  0  0  0  0  0  0  0
   15.0052   85.7274   69.3635 C   0  0  0  0  0  0  0  0  0  0  0  0
   14.0127   86.6901   69.6146 N   0  0  0  0  0  0  0  0  0  0  0  0
   15.7620   85.9563   68.3602 O   0  0  0  0  0  0  0  0  0  0  0  0
   14.1560   87.9903   68.9788 C   0  0  1  0  0  0  0  0  0  0  0  0
   13.7831   87.9483   67.5239 C   0  0  0  0  0  2  0  0  0  0  0  0
   13.3984   88.9942   69.7766 C   0  0  0  0  0  2  0  0  0  0  0  0
   12.4528   88.4959   67.1746 C   0  0  0  0  0  2  0  0  0  0  0  0
   12.3142   89.7038   69.0298 C   0  0  0  0  0  2  0  0  0  0  0  0
   11.6221   88.7893   68.2313 O   0  0  0  0  0  0  0  0  0  0  0  0
   15.5772   88.4553   69.0092 C   0  0  0  0  0  0  0  0  0  0  0  0
   16.1050   88.7840   70.2884 N   0  0  0  0  0  0  0  0  0  0  0  0
   16.2992   88.5675   68.0163 O   0  0  0  0  0  0  0  0  0  0  0  0
   17.5872   84.3165   69.6103 O   0  0  0  0  0  0  0  0  0  0  0  0
   18.8614   83.9664   70.1770 C   0  0  0  0  0  2  0  0  0  0  0  0
   20.0027   84.5129   69.3480 C   0  0  0  0  0  3  0  0  0  0  0  0
   19.8745   84.4832   67.8428 C   0  0  0  0  0  2  0  0  0  0  0  0
   20.8385   83.5140   68.5872 C   0  0  0  0  0  2  0  0  0  0  0  0
  1  7  1  0
  1  2  2  0
  2  3  1  0
  4  3  2  0
  5  4  1  0
  6  5  2  0
  6  1  1  0
  7  9  2  0
  8  7  1  0
 10  8  1  1
 10 16  1  0
 10 12  1  0
 11 10  1  0
 13 11  1  0
 13 15  1  0
 14 12  1  0
 15 14  1  0
 16 18  2  0
 16 17  1  0
 19  6  1  0
 20 19  1  0
 21 20  1  0
 22 21  1  0
 23 22  1  0
 23 21  1  0
M  RAD  8   2   2   3   2   4   2   5   2  11   3  12   3  13   3  14   3
M  RAD  4  20   3  21   2  22   3  23   3
M  END
>  <REMARK>  (1) 
 SMILES NC(=O)C1(NC(=O)c2ccccc2OCC2CC2)CCOCC1
 SMILES IDX 8 1 9 2 10 3 11 4 12 5 13 6 6 7 5 8 7 10 4 11 19 12 23 13
 SMILES IDX 20 14 22 15 21 16 2 17 1 18 3 21 14 22 15 23 16 24 17 25
 SMILES IDX 18 26
 H PARENT 5 9 1 19 1 20

>  <TORSDO>  (1) 
F 6

$$$$
