/home/pchatterjee/Documents/git/vs_workflow/DiffDock/diffdock_run/pdbqt_scrubbed/Z1463055422.pdbqt
     RDKit          3D

 23 25  0  0  0  0  0  0  0  0999 V2000
    7.4626   45.6319   51.6208 C   0  0  0  0  0  0  0  0  0  0  0  0
    7.5978   44.7232   50.5593 C   0  0  0  0  0  3  0  0  0  0  0  0
    8.8193   44.4188   50.0024 C   0  0  0  0  0  3  0  0  0  0  0  0
    9.9661   45.0093   50.4809 C   0  0  0  0  0  3  0  0  0  0  0  0
    9.8607   45.9080   51.5274 C   0  0  0  0  0  3  0  0  0  0  0  0
    8.6048   46.1993   52.0763 C   0  0  0  0  0  0  0  0  0  0  0  0
    6.1269   45.8560   52.1009 C   0  0  0  0  0  0  0  0  0  0  0  0
    5.0878   44.9151   52.2002 N   0  0  0  0  0  0  0  0  0  0  0  0
    5.8439   47.0409   52.4852 O   0  0  0  0  0  0  0  0  0  0  0  0
    3.9970   45.2069   53.1169 C   0  0  1  0  0  0  0  0  0  0  0  0
    2.9434   46.0684   52.4802 C   0  0  0  0  0  2  0  0  0  0  0  0
    3.4857   43.9220   53.6699 C   0  0  0  0  0  2  0  0  0  0  0  0
    1.7097   45.3762   52.0439 C   0  0  0  0  0  2  0  0  0  0  0  0
    2.0416   43.6478   53.3939 C   0  0  0  0  0  2  0  0  0  0  0  0
    1.7434   44.0012   52.0751 O   0  0  0  0  0  0  0  0  0  0  0  0
    4.4776   45.9816   54.3026 C   0  0  0  0  0  0  0  0  0  0  0  0
    5.1036   45.2295   55.3348 N   0  0  0  0  0  0  0  0  0  0  0  0
    4.3657   47.2023   54.4343 O   0  0  0  0  0  0  0  0  0  0  0  0
    8.6037   47.1004   53.1181 O   0  0  0  0  0  0  0  0  0  0  0  0
    9.5775   46.9526   54.1656 C   0  0  0  0  0  2  0  0  0  0  0  0
    9.4314   48.0360   55.2113 C   0  0  0  0  0  3  0  0  0  0  0  0
    9.4330   49.4769   54.7566 C   0  0  0  0  0  2  0  0  0  0  0  0
   10.6519   48.8701   55.5109 C   0  0  0  0  0  2  0  0  0  0  0  0
  1  7  1  0
  1  2  2  0
  2  3  1  0
  4  3  2  0
  5  4  1  0
  6  5  2  0
  6  1  1  0
  7  9  2  0
  8  7  1  0
 10  8  1  6
 10 16  1  0
 10 12  1  0
 11 10  1  0
 13 11  1  0
 13 15  1  0
 14 12  1  0
 15 14  1  0
 16 18  2  0
 16 17  1  0
 19  6  1  0
 20 19  1  0
 21 20  1  0
 22 21  1  0
 23 22  1  0
 23 21  1  0
M  RAD  8   2   2   3   2   4   2   5   2  11   3  12   3  13   3  14   3
M  RAD  4  20   3  21   2  22   3  23   3
M  END
>  <REMARK>  (1) 
 SMILES NC(=O)C1(NC(=O)c2ccccc2OCC2CC2)CCOCC1
 SMILES IDX 8 1 9 2 10 3 11 4 12 5 13 6 6 7 5 8 7 10 4 11 19 12 23 13
 SMILES IDX 20 14 22 15 21 16 2 17 1 18 3 21 14 22 15 23 16 24 17 25
 SMILES IDX 18 26
 H PARENT 5 9 1 19 1 20

>  <TORSDO>  (1) 
F 6

$$$$
