/home/pchatterjee/Documents/git/vs_workflow/DiffDock/diffdock_run/pdbqt_scrubbed/Z1463055422.pdbqt
     RDKit          3D

 23 25  0  0  0  0  0  0  0  0999 V2000
    7.8258   45.2862   51.4855 C   0  0  0  0  0  0  0  0  0  0  0  0
    8.9566   46.0247   51.8683 C   0  0  0  0  0  3  0  0  0  0  0  0
   10.1777   45.8735   51.2511 C   0  0  0  0  0  3  0  0  0  0  0  0
   10.3270   44.9752   50.2199 C   0  0  0  0  0  3  0  0  0  0  0  0
    9.2278   44.2352   49.8224 C   0  0  0  0  0  3  0  0  0  0  0  0
    7.9961   44.4094   50.4674 C   0  0  0  0  0  0  0  0  0  0  0  0
    6.6178   45.5450   52.2194 C   0  0  0  0  0  0  0  0  0  0  0  0
    6.2718   46.7230   52.9032 N   0  0  0  0  0  0  0  0  0  0  0  0
    5.7541   44.6046   52.2577 O   0  0  0  0  0  0  0  0  0  0  0  0
    5.1534   46.6623   53.8309 C   0  0  1  0  0  0  0  0  0  0  0  0
    4.7843   48.0211   54.3556 C   0  0  0  0  0  2  0  0  0  0  0  0
    4.0322   45.9337   53.1750 C   0  0  0  0  0  2  0  0  0  0  0  0
    3.5866   48.6500   53.7544 C   0  0  0  0  0  2  0  0  0  0  0  0
    2.7659   46.7177   53.0386 C   0  0  0  0  0  2  0  0  0  0  0  0
    3.0663   48.0245   52.6450 O   0  0  0  0  0  0  0  0  0  0  0  0
    5.4952   45.8512   55.0402 C   0  0  0  0  0  0  0  0  0  0  0  0
    4.5556   44.8510   55.4138 N   0  0  0  0  0  0  0  0  0  0  0  0
    6.5171   45.9951   55.7146 O   0  0  0  0  0  0  0  0  0  0  0  0
    6.9608   43.6328   49.9959 O   0  0  0  0  0  0  0  0  0  0  0  0
    7.2012   42.2399   49.7322 C   0  0  0  0  0  2  0  0  0  0  0  0
    5.9069   41.4598   49.6655 C   0  0  0  0  0  3  0  0  0  0  0  0
    5.3596   41.0930   48.3058 C   0  0  0  0  0  2  0  0  0  0  0  0
    4.6860   42.1960   49.1732 C   0  0  0  0  0  2  0  0  0  0  0  0
  1  7  1  0
  1  2  2  0
  2  3  1  0
  4  3  2  0
  5  4  1  0
  6  5  2  0
  6  1  1  0
  7  9  2  0
  8  7  1  0
 10  8  1  6
 10 16  1  0
 10 12  1  0
 11 10  1  0
 13 11  1  0
 13 15  1  0
 14 12  1  0
 15 14  1  0
 16 18  2  0
 16 17  1  0
 19  6  1  0
 20 19  1  0
 21 20  1  0
 22 21  1  0
 23 22  1  0
 23 21  1  0
M  RAD  8   2   2   3   2   4   2   5   2  11   3  12   3  13   3  14   3
M  RAD  4  20   3  21   2  22   3  23   3
M  END
>  <REMARK>  (1) 
 SMILES NC(=O)C1(NC(=O)c2ccccc2OCC2CC2)CCOCC1
 SMILES IDX 8 1 9 2 10 3 11 4 12 5 13 6 6 7 5 8 7 10 4 11 19 12 23 13
 SMILES IDX 20 14 22 15 21 16 2 17 1 18 3 21 14 22 15 23 16 24 17 25
 SMILES IDX 18 26
 H PARENT 5 9 1 19 1 20

>  <TORSDO>  (1) 
F 6

$$$$
