/home/pchatterjee/Documents/git/vs_workflow/DiffDock/diffdock_run/pdbqt_scrubbed/Z1463055422.pdbqt
     RDKit          3D

 23 25  0  0  0  0  0  0  0  0999 V2000
   14.0344   84.0130   71.3143 C   0  0  0  0  0  0  0  0  0  0  0  0
   15.0285   83.5258   70.4511 C   0  0  0  0  0  3  0  0  0  0  0  0
   16.0963   82.7839   70.9031 C   0  0  0  0  0  3  0  0  0  0  0  0
   16.2216   82.4930   72.2419 C   0  0  0  0  0  3  0  0  0  0  0  0
   15.2548   82.9606   73.1141 C   0  0  0  0  0  3  0  0  0  0  0  0
   14.1776   83.7131   72.6272 C   0  0  0  0  0  0  0  0  0  0  0  0
   12.9797   84.7753   70.7049 C   0  0  0  0  0  0  0  0  0  0  0  0
   13.0712   85.6042   69.5737 N   0  0  0  0  0  0  0  0  0  0  0  0
   11.8245   84.6944   71.2441 O   0  0  0  0  0  0  0  0  0  0  0  0
   11.8771   86.3288   69.1684 C   0  0  1  0  0  0  0  0  0  0  0  0
   11.6134   87.5157   70.0512 C   0  0  0  0  0  2  0  0  0  0  0  0
   11.9898   86.6559   67.7197 C   0  0  0  0  0  2  0  0  0  0  0  0
   11.9814   88.8376   69.4955 C   0  0  0  0  0  2  0  0  0  0  0  0
   11.9445   88.1158   67.3984 C   0  0  0  0  0  2  0  0  0  0  0  0
   12.7109   88.8224   68.3291 O   0  0  0  0  0  0  0  0  0  0  0  0
   10.6570   85.4715   69.2840 C   0  0  0  0  0  0  0  0  0  0  0  0
    9.5978   85.9877   70.0808 N   0  0  0  0  0  0  0  0  0  0  0  0
   10.5190   84.3722   68.7433 O   0  0  0  0  0  0  0  0  0  0  0  0
   13.2644   84.1274   73.5715 O   0  0  0  0  0  0  0  0  0  0  0  0
   13.1231   83.3656   74.7827 C   0  0  0  0  0  2  0  0  0  0  0  0
   11.9806   83.8821   75.6290 C   0  0  0  0  0  3  0  0  0  0  0  0
   11.8130   85.3768   75.7729 C   0  0  0  0  0  2  0  0  0  0  0  0
   12.3363   84.5087   76.9541 C   0  0  0  0  0  2  0  0  0  0  0  0
  1  7  1  0
  1  2  2  0
  2  3  1  0
  4  3  2  0
  5  4  1  0
  6  5  2  0
  6  1  1  0
  7  9  2  0
  8  7  1  0
 10  8  1  1
 10 16  1  0
 10 12  1  0
 11 10  1  0
 13 11  1  0
 13 15  1  0
 14 12  1  0
 15 14  1  0
 16 18  2  0
 16 17  1  0
 19  6  1  0
 20 19  1  0
 21 20  1  0
 22 21  1  0
 23 22  1  0
 23 21  1  0
M  RAD  8   2   2   3   2   4   2   5   2  11   3  12   3  13   3  14   3
M  RAD  4  20   3  21   2  22   3  23   3
M  END
>  <REMARK>  (1) 
 SMILES NC(=O)C1(NC(=O)c2ccccc2OCC2CC2)CCOCC1
 SMILES IDX 8 1 9 2 10 3 11 4 12 5 13 6 6 7 5 8 7 10 4 11 19 12 23 13
 SMILES IDX 20 14 22 15 21 16 2 17 1 18 3 21 14 22 15 23 16 24 17 25
 SMILES IDX 18 26
 H PARENT 5 9 1 19 1 20

>  <TORSDO>  (1) 
F 6

$$$$
