/home/pchatterjee/Documents/git/vs_workflow/DiffDock/diffdock_run/pdbqt_scrubbed/Z1463055422.pdbqt
     RDKit          3D

 23 25  0  0  0  0  0  0  0  0999 V2000
   11.2117   67.5649   81.5354 C   0  0  0  0  0  0  0  0  0  0  0  0
   10.2469   68.3430   80.8764 C   0  0  0  0  0  3  0  0  0  0  0  0
   10.5712   69.4918   80.1908 C   0  0  0  0  0  3  0  0  0  0  0  0
   11.8779   69.9183   80.1311 C   0  0  0  0  0  3  0  0  0  0  0  0
   12.8485   69.1690   80.7716 C   0  0  0  0  0  3  0  0  0  0  0  0
   12.4910   68.0031   81.4618 C   0  0  0  0  0  0  0  0  0  0  0  0
   10.7298   66.3932   82.2135 C   0  0  0  0  0  0  0  0  0  0  0  0
    9.4244   65.8731   82.1935 N   0  0  0  0  0  0  0  0  0  0  0  0
   11.5776   65.7432   82.9139 O   0  0  0  0  0  0  0  0  0  0  0  0
    9.1748   64.6448   82.9311 C   0  0  1  0  0  0  0  0  0  0  0  0
    8.5677   64.9126   84.2792 C   0  0  0  0  0  2  0  0  0  0  0  0
    8.3756   63.7289   82.0704 C   0  0  0  0  0  2  0  0  0  0  0  0
    7.1114   64.6748   84.3985 C   0  0  0  0  0  2  0  0  0  0  0  0
    7.0513   63.3274   82.6376 C   0  0  0  0  0  2  0  0  0  0  0  0
    6.4379   64.4386   83.2223 O   0  0  0  0  0  0  0  0  0  0  0  0
   10.4480   63.9112   83.2099 C   0  0  0  0  0  0  0  0  0  0  0  0
   10.9109   63.0410   82.1845 N   0  0  0  0  0  0  0  0  0  0  0  0
   11.1029   64.0139   84.2493 O   0  0  0  0  0  0  0  0  0  0  0  0
   13.5282   67.3227   82.0605 O   0  0  0  0  0  0  0  0  0  0  0  0
   14.7967   67.9826   82.2118 C   0  0  0  0  0  2  0  0  0  0  0  0
   15.8300   67.0592   82.8183 C   0  0  0  0  0  3  0  0  0  0  0  0
   15.8621   66.9070   84.3213 C   0  0  0  0  0  2  0  0  0  0  0  0
   16.9690   67.7023   83.5695 C   0  0  0  0  0  2  0  0  0  0  0  0
  1  7  1  0
  1  2  2  0
  2  3  1  0
  4  3  2  0
  5  4  1  0
  6  5  2  0
  6  1  1  0
  7  9  2  0
  8  7  1  0
 10  8  1  6
 10 16  1  0
 10 12  1  0
 11 10  1  0
 13 11  1  0
 13 15  1  0
 14 12  1  0
 15 14  1  0
 16 18  2  0
 16 17  1  0
 19  6  1  0
 20 19  1  0
 21 20  1  0
 22 21  1  0
 23 22  1  0
 23 21  1  0
M  RAD  8   2   2   3   2   4   2   5   2  11   3  12   3  13   3  14   3
M  RAD  4  20   3  21   2  22   3  23   3
M  END
>  <REMARK>  (1) 
 SMILES NC(=O)C1(NC(=O)c2ccccc2OCC2CC2)CCOCC1
 SMILES IDX 8 1 9 2 10 3 11 4 12 5 13 6 6 7 5 8 7 10 4 11 19 12 23 13
 SMILES IDX 20 14 22 15 21 16 2 17 1 18 3 21 14 22 15 23 16 24 17 25
 SMILES IDX 18 26
 H PARENT 5 9 1 19 1 20

>  <TORSDO>  (1) 
F 6

$$$$
