/home/pchatterjee/Documents/git/vs_workflow/DiffDock/diffdock_run/pdbqt_scrubbed/Z1463055422.pdbqt
     RDKit          3D

 23 25  0  0  0  0  0  0  0  0999 V2000
    5.3698   46.0534   52.2298 C   0  0  0  0  0  0  0  0  0  0  0  0
    3.9770   45.9092   52.1302 C   0  0  0  0  0  3  0  0  0  0  0  0
    3.1017   46.7857   52.7306 C   0  0  0  0  0  3  0  0  0  0  0  0
    3.5778   47.8503   53.4605 C   0  0  0  0  0  3  0  0  0  0  0  0
    4.9466   48.0158   53.5737 C   0  0  0  0  0  3  0  0  0  0  0  0
    5.8153   47.1092   52.9518 C   0  0  0  0  0  0  0  0  0  0  0  0
    6.1624   45.0629   51.5550 C   0  0  0  0  0  0  0  0  0  0  0  0
    5.7888   44.2814   50.4483 N   0  0  0  0  0  0  0  0  0  0  0  0
    7.3422   44.8655   52.0033 O   0  0  0  0  0  0  0  0  0  0  0  0
    6.7591   43.3265   49.9367 C   0  0  1  0  0  0  0  0  0  0  0  0
    6.9663   42.1758   50.8805 C   0  0  0  0  0  2  0  0  0  0  0  0
    6.3500   42.9251   48.5620 C   0  0  0  0  0  2  0  0  0  0  0  0
    6.2941   40.9069   50.5207 C   0  0  0  0  0  2  0  0  0  0  0  0
    6.0958   41.4623   48.3824 C   0  0  0  0  0  2  0  0  0  0  0  0
    5.3908   40.9725   49.4851 O   0  0  0  0  0  0  0  0  0  0  0  0
    8.1070   43.9550   49.7780 C   0  0  0  0  0  0  0  0  0  0  0  0
    9.1197   43.5073   50.6707 N   0  0  0  0  0  0  0  0  0  0  0  0
    8.3845   44.8161   48.9405 O   0  0  0  0  0  0  0  0  0  0  0  0
    7.1592   47.3621   53.1164 O   0  0  0  0  0  0  0  0  0  0  0  0
    7.5687   48.3352   54.0926 C   0  0  0  0  0  2  0  0  0  0  0  0
    9.0727   48.3562   54.2532 C   0  0  0  0  0  3  0  0  0  0  0  0
    9.8375   47.0747   54.0168 C   0  0  0  0  0  2  0  0  0  0  0  0
    9.6452   47.6435   55.4529 C   0  0  0  0  0  2  0  0  0  0  0  0
  1  7  1  0
  1  2  2  0
  2  3  1  0
  4  3  2  0
  5  4  1  0
  6  5  2  0
  6  1  1  0
  7  9  2  0
  8  7  1  0
 10  8  1  1
 10 16  1  0
 10 12  1  0
 11 10  1  0
 13 11  1  0
 13 15  1  0
 14 12  1  0
 15 14  1  0
 16 18  2  0
 16 17  1  0
 19  6  1  0
 20 19  1  0
 21 20  1  0
 22 21  1  0
 23 22  1  0
 23 21  1  0
M  RAD  8   2   2   3   2   4   2   5   2  11   3  12   3  13   3  14   3
M  RAD  4  20   3  21   2  22   3  23   3
M  END
>  <REMARK>  (1) 
 SMILES NC(=O)C1(NC(=O)c2ccccc2OCC2CC2)CCOCC1
 SMILES IDX 8 1 9 2 10 3 11 4 12 5 13 6 6 7 5 8 7 10 4 11 19 12 23 13
 SMILES IDX 20 14 22 15 21 16 2 17 1 18 3 21 14 22 15 23 16 24 17 25
 SMILES IDX 18 26
 H PARENT 5 9 1 19 1 20

>  <TORSDO>  (1) 
F 6

$$$$
