/home/pchatterjee/Documents/git/vs_workflow/DiffDock/diffdock_run/pdbqt_scrubbed/Z57346758.pdbqt
     RDKit          3D

 23 25  0  0  1  0  0  0  0  0999 V2000
    7.3963   43.4152   49.7943 C   0  0  0  0  0  0  0  0  0  0  0  0
    6.5268   43.7247   50.6803 N   0  0  0  0  0  0  0  0  0  0  0  0
    6.7298   44.7531   51.6652 C   0  0  0  0  0  3  0  0  0  0  0  0
    8.0562   45.4095   51.5357 C   0  0  0  0  0  0  0  0  0  0  0  0
    8.3853   46.4101   52.4106 C   0  0  0  0  0  3  0  0  0  0  0  0
    9.5941   47.0568   52.3450 C   0  0  0  0  0  3  0  0  0  0  0  0
   10.5004   46.6977   51.3821 C   0  0  0  0  0  3  0  0  0  0  0  0
   10.2030   45.7002   50.4905 C   0  0  0  0  0  3  0  0  0  0  0  0
    8.9846   45.0701   50.5800 C   0  0  0  0  0  0  0  0  0  0  0  0
    8.6583   44.0396   49.6709 N   0  0  0  0  0  2  0  0  0  0  0  0
    7.0816   42.3763   48.8689 N   0  0  0  0  0  0  0  0  0  0  0  0
    5.7631   41.8086   48.8542 C   0  0  0  0  0  0  0  0  0  0  0  0
    3.2505   40.6749   48.7016 C   0  0  0  0  0  0  0  0  0  0  0  0
    3.6591   41.3265   49.8478 C   0  0  0  0  0  3  0  0  0  0  0  0
    4.1320   40.6073   47.6384 C   0  0  0  0  0  3  0  0  0  0  0  0
    4.9129   41.8999   49.9422 C   0  0  0  0  0  3  0  0  0  0  0  0
    5.3925   41.1658   47.6902 C   0  0  0  0  0  3  0  0  0  0  0  0
    2.0089   40.0954   48.5798 O   0  0  0  0  0  0  0  0  0  0  0  0
    1.7197   38.8755   47.9710 C   0  0  0  0  0  1  0  0  0  0  0  0
    5.6664   45.7614   51.5701 N   0  0  0  0  0  0  0  0  0  0  0  0
    4.4418   45.2355   52.1343 C   0  0  0  0  0  2  0  0  0  0  0  0
    3.3655   46.3019   52.1773 C   0  0  0  0  0  2  0  0  0  0  0  0
    2.1654   45.8251   52.7118 O   0  0  0  0  0  0  0  0  0  0  0  0
  1 11  1  0
  2  1  2  0
  3 20  1  0
  3  2  1  0
  4  9  2  0
  4  3  1  0
  5  4  1  0
  6  7  1  0
  6  5  2  0
  7  8  2  0
  8  9  1  0
  9 10  1  0
 10  1  1  0
 11 12  1  0
 12 17  2  0
 13 15  2  0
 13 18  1  0
 14 13  1  0
 16 12  1  0
 16 14  2  0
 17 15  1  0
 19 18  1  0
 20 21  1  0
 21 22  1  0
 23 22  1  0
M  RAD  8   3   2   5   2   6   2   7   2   8   2  10   2  14   2  15   2
M  RAD  5  16   2  17   2  19   2  21   3  22   3
M  END
>  <REMARK>  (1) 
 SMILES COc1ccc(Nc2nc(NCCO)c3ccccc3n2)cc1
 SMILES IDX 8 1 9 2 10 3 15 4 16 5 17 6 18 7 19 8 20 9 21 10 7 11 6 13
 SMILES IDX 3 14 4 15 23 16 5 17 22 18 2 19 1 20 11 21 12 23 13 24 14 25
 H PARENT 7 12 11 22 14 26

>  <TORSDO>  (1) 
F 7

$$$$
