/home/pchatterjee/Documents/git/vs_workflow/DiffDock/diffdock_run/pdbqt_scrubbed/Z57346758.pdbqt
     RDKit          3D

 23 25  0  0  1  0  0  0  0  0999 V2000
    7.4284   43.3840   49.8128 C   0  0  0  0  0  0  0  0  0  0  0  0
    6.5463   43.7387   50.6690 N   0  0  0  0  0  0  0  0  0  0  0  0
    6.7459   44.7993   51.6199 C   0  0  0  0  0  3  0  0  0  0  0  0
    8.0848   45.4304   51.4939 C   0  0  0  0  0  0  0  0  0  0  0  0
    8.4121   46.4573   52.3386 C   0  0  0  0  0  3  0  0  0  0  0  0
    9.6321   47.0829   52.2744 C   0  0  0  0  0  3  0  0  0  0  0  0
   10.5516   46.6753   51.3439 C   0  0  0  0  0  3  0  0  0  0  0  0
   10.2563   45.6505   50.4831 C   0  0  0  0  0  3  0  0  0  0  0  0
    9.0266   45.0424   50.5704 C   0  0  0  0  0  0  0  0  0  0  0  0
    8.7023   43.9844   49.6927 N   0  0  0  0  0  2  0  0  0  0  0  0
    7.1158   42.3168   48.9193 N   0  0  0  0  0  0  0  0  0  0  0  0
    5.7665   41.8355   48.8266 C   0  0  0  0  0  0  0  0  0  0  0  0
    3.2045   40.8496   48.5341 C   0  0  0  0  0  0  0  0  0  0  0  0
    3.5381   41.6268   49.6248 C   0  0  0  0  0  3  0  0  0  0  0  0
    4.1859   40.5810   47.5978 C   0  0  0  0  0  3  0  0  0  0  0  0
    4.8153   42.1289   49.7878 C   0  0  0  0  0  3  0  0  0  0  0  0
    5.4731   41.0620   47.7216 C   0  0  0  0  0  3  0  0  0  0  0  0
    1.9419   40.3368   48.3463 O   0  0  0  0  0  0  0  0  0  0  0  0
    1.5958   39.2662   47.5239 C   0  0  0  0  0  1  0  0  0  0  0  0
    5.7006   45.8193   51.4665 N   0  0  0  0  0  0  0  0  0  0  0  0
    4.4199   45.2697   51.8567 C   0  0  0  0  0  2  0  0  0  0  0  0
    4.0902   45.6341   53.2906 C   0  0  0  0  0  2  0  0  0  0  0  0
    3.5903   44.5477   54.0139 O   0  0  0  0  0  0  0  0  0  0  0  0
  1 11  1  0
  2  1  2  0
  3 20  1  0
  3  2  1  0
  4  9  2  0
  4  3  1  0
  5  4  1  0
  6  7  1  0
  6  5  2  0
  7  8  2  0
  8  9  1  0
  9 10  1  0
 10  1  1  0
 11 12  1  0
 12 17  2  0
 13 15  2  0
 13 18  1  0
 14 13  1  0
 16 12  1  0
 16 14  2  0
 17 15  1  0
 19 18  1  0
 20 21  1  0
 21 22  1  0
 23 22  1  0
M  RAD  8   3   2   5   2   6   2   7   2   8   2  10   2  14   2  15   2
M  RAD  5  16   2  17   2  19   2  21   3  22   3
M  END
>  <REMARK>  (1) 
 SMILES COc1ccc(Nc2nc(NCCO)c3ccccc3n2)cc1
 SMILES IDX 8 1 9 2 10 3 15 4 16 5 17 6 18 7 19 8 20 9 21 10 7 11 6 13
 SMILES IDX 3 14 4 15 23 16 5 17 22 18 2 19 1 20 11 21 12 23 13 24 14 25
 H PARENT 7 12 11 22 14 26

>  <TORSDO>  (1) 
F 7

$$$$
