/home/pchatterjee/Documents/git/vs_workflow/DiffDock/diffdock_run/pdbqt_scrubbed/Z57346758.pdbqt
     RDKit          3D

 23 25  0  0  1  0  0  0  0  0999 V2000
   13.9054   83.6849   71.7093 C   0  0  0  0  0  0  0  0  0  0  0  0
   13.7482   84.3867   70.6511 N   0  0  0  0  0  0  0  0  0  0  0  0
   12.4665   84.8470   70.1883 C   0  0  0  0  0  3  0  0  0  0  0  0
   11.3546   84.4165   71.0745 C   0  0  0  0  0  0  0  0  0  0  0  0
   10.0752   84.7848   70.7541 C   0  0  0  0  0  3  0  0  0  0  0  0
    9.0038   84.4199   71.5305 C   0  0  0  0  0  3  0  0  0  0  0  0
    9.2115   83.6677   72.6569 C   0  0  0  0  0  3  0  0  0  0  0  0
   10.4794   83.2821   73.0065 C   0  0  0  0  0  3  0  0  0  0  0  0
   11.5333   83.6621   72.2101 C   0  0  0  0  0  0  0  0  0  0  0  0
   12.8478   83.2752   72.5525 N   0  0  0  0  0  2  0  0  0  0  0  0
   15.2272   83.2862   72.0685 N   0  0  0  0  0  0  0  0  0  0  0  0
   16.3274   83.5975   71.2006 C   0  0  0  0  0  0  0  0  0  0  0  0
   18.4231   84.3251   69.5573 C   0  0  0  0  0  0  0  0  0  0  0  0
   18.0924   82.9960   69.7276 C   0  0  0  0  0  3  0  0  0  0  0  0
   17.6779   85.2758   70.2303 C   0  0  0  0  0  3  0  0  0  0  0  0
   17.0467   82.6131   70.5460 C   0  0  0  0  0  3  0  0  0  0  0  0
   16.6263   84.9374   71.0569 C   0  0  0  0  0  3  0  0  0  0  0  0
   19.4583   84.7348   68.7493 O   0  0  0  0  0  0  0  0  0  0  0  0
   20.7295   84.1678   68.6792 C   0  0  0  0  0  1  0  0  0  0  0  0
   12.4675   86.3108   70.0699 N   0  0  0  0  0  0  0  0  0  0  0  0
   12.7701   86.6909   68.7066 C   0  0  0  0  0  2  0  0  0  0  0  0
   14.1361   86.1797   68.2941 C   0  0  0  0  0  2  0  0  0  0  0  0
   14.9520   87.1937   67.7850 O   0  0  0  0  0  0  0  0  0  0  0  0
  1 11  1  0
  2  1  2  0
  3 20  1  0
  3  2  1  0
  4  9  2  0
  4  3  1  0
  5  4  1  0
  6  7  1  0
  6  5  2  0
  7  8  2  0
  8  9  1  0
  9 10  1  0
 10  1  1  0
 11 12  1  0
 12 17  2  0
 13 15  2  0
 13 18  1  0
 14 13  1  0
 16 12  1  0
 16 14  2  0
 17 15  1  0
 19 18  1  0
 20 21  1  0
 21 22  1  0
 23 22  1  0
M  RAD  8   3   2   5   2   6   2   7   2   8   2  10   2  14   2  15   2
M  RAD  5  16   2  17   2  19   2  21   3  22   3
M  END
>  <REMARK>  (1) 
 SMILES COc1ccc(Nc2nc(NCCO)c3ccccc3n2)cc1
 SMILES IDX 8 1 9 2 10 3 15 4 16 5 17 6 18 7 19 8 20 9 21 10 7 11 6 13
 SMILES IDX 3 14 4 15 23 16 5 17 22 18 2 19 1 20 11 21 12 23 13 24 14 25
 H PARENT 7 12 11 22 14 26

>  <TORSDO>  (1) 
F 7

$$$$
