/home/pchatterjee/Documents/git/vs_workflow/DiffDock/diffdock_run/pdbqt_scrubbed/Z57346758.pdbqt
     RDKit          3D

 23 25  0  0  1  0  0  0  0  0999 V2000
   12.7974   65.6541   82.6815 C   0  0  0  0  0  0  0  0  0  0  0  0
   11.6235   65.5872   83.1857 N   0  0  0  0  0  0  0  0  0  0  0  0
   10.5709   66.5151   82.8697 C   0  0  0  0  0  3  0  0  0  0  0  0
   11.0013   67.5525   81.8973 C   0  0  0  0  0  0  0  0  0  0  0  0
   10.0983   68.5042   81.5051 C   0  0  0  0  0  3  0  0  0  0  0  0
   10.4322   69.4899   80.6102 C   0  0  0  0  0  3  0  0  0  0  0  0
   11.6998   69.5293   80.0913 C   0  0  0  0  0  3  0  0  0  0  0  0
   12.6281   68.5919   80.4626 C   0  0  0  0  0  3  0  0  0  0  0  0
   12.2656   67.6165   81.3606 C   0  0  0  0  0  0  0  0  0  0  0  0
   13.2072   66.6410   81.7564 N   0  0  0  0  0  2  0  0  0  0  0  0
   13.7598   64.6760   83.0714 N   0  0  0  0  0  0  0  0  0  0  0  0
   13.5854   63.9526   84.2990 C   0  0  0  0  0  0  0  0  0  0  0  0
   13.1896   62.6686   86.7108 C   0  0  0  0  0  0  0  0  0  0  0  0
   13.8250   62.0252   85.6681 C   0  0  0  0  0  3  0  0  0  0  0  0
   12.7597   63.9678   86.5126 C   0  0  0  0  0  3  0  0  0  0  0  0
   14.0319   62.6520   84.4539 C   0  0  0  0  0  3  0  0  0  0  0  0
   12.9457   64.6308   85.3170 C   0  0  0  0  0  3  0  0  0  0  0  0
   12.9704   62.0695   87.9295 O   0  0  0  0  0  0  0  0  0  0  0  0
   13.6720   60.9883   88.4598 C   0  0  0  0  0  1  0  0  0  0  0  0
    9.4039   65.7958   82.3429 N   0  0  0  0  0  0  0  0  0  0  0  0
    8.9457   64.8278   83.3163 C   0  0  0  0  0  2  0  0  0  0  0  0
    7.6689   65.2972   83.9849 C   0  0  0  0  0  2  0  0  0  0  0  0
    7.3892   64.5866   85.1554 O   0  0  0  0  0  0  0  0  0  0  0  0
  1 11  1  0
  2  1  2  0
  3 20  1  0
  3  2  1  0
  4  9  2  0
  4  3  1  0
  5  4  1  0
  6  7  1  0
  6  5  2  0
  7  8  2  0
  8  9  1  0
  9 10  1  0
 10  1  1  0
 11 12  1  0
 12 17  2  0
 13 15  2  0
 13 18  1  0
 14 13  1  0
 16 12  1  0
 16 14  2  0
 17 15  1  0
 19 18  1  0
 20 21  1  0
 21 22  1  0
 23 22  1  0
M  RAD  8   3   2   5   2   6   2   7   2   8   2  10   2  14   2  15   2
M  RAD  5  16   2  17   2  19   2  21   3  22   3
M  END
>  <REMARK>  (1) 
 SMILES COc1ccc(Nc2nc(NCCO)c3ccccc3n2)cc1
 SMILES IDX 8 1 9 2 10 3 15 4 16 5 17 6 18 7 19 8 20 9 21 10 7 11 6 13
 SMILES IDX 3 14 4 15 23 16 5 17 22 18 2 19 1 20 11 21 12 23 13 24 14 25
 H PARENT 7 12 11 22 14 26

>  <TORSDO>  (1) 
F 7

$$$$
