/home/pchatterjee/Documents/git/vs_workflow/DiffDock/diffdock_run/pdbqt_scrubbed/Z57346758.pdbqt
     RDKit          3D

 23 25  0  0  1  0  0  0  0  0999 V2000
   12.5963   65.2962   82.4125 C   0  0  0  0  0  0  0  0  0  0  0  0
   11.4296   65.0864   82.8939 N   0  0  0  0  0  0  0  0  0  0  0  0
   10.3377   66.0127   82.7585 C   0  0  0  0  0  3  0  0  0  0  0  0
   10.7183   67.2323   82.0005 C   0  0  0  0  0  0  0  0  0  0  0  0
    9.7742   68.2027   81.7950 C   0  0  0  0  0  3  0  0  0  0  0  0
   10.0611   69.3529   81.1031 C   0  0  0  0  0  3  0  0  0  0  0  0
   11.3222   69.5425   80.6021 C   0  0  0  0  0  3  0  0  0  0  0  0
   12.2909   68.5912   80.7899 C   0  0  0  0  0  3  0  0  0  0  0  0
   11.9750   67.4493   81.4867 C   0  0  0  0  0  0  0  0  0  0  0  0
   12.9586   66.4565   81.6913 N   0  0  0  0  0  2  0  0  0  0  0  0
   13.6007   64.3029   82.6108 N   0  0  0  0  0  0  0  0  0  0  0  0
   13.4357   63.3166   83.6407 C   0  0  0  0  0  0  0  0  0  0  0  0
   12.9959   61.4673   85.6428 C   0  0  0  0  0  0  0  0  0  0  0  0
   14.1968   61.4947   84.9629 C   0  0  0  0  0  3  0  0  0  0  0  0
   12.0254   62.3882   85.2933 C   0  0  0  0  0  3  0  0  0  0  0  0
   14.4347   62.4131   83.9580 C   0  0  0  0  0  3  0  0  0  0  0  0
   12.2212   63.3220   84.2967 C   0  0  0  0  0  3  0  0  0  0  0  0
   12.7318   60.5648   86.6468 O   0  0  0  0  0  0  0  0  0  0  0  0
   13.4107   59.3719   86.8888 C   0  0  0  0  0  1  0  0  0  0  0  0
    9.1975   65.3581   82.1041 N   0  0  0  0  0  0  0  0  0  0  0  0
    8.8313   64.1655   82.8376 C   0  0  0  0  0  2  0  0  0  0  0  0
    7.8569   64.4943   83.9511 C   0  0  0  0  0  2  0  0  0  0  0  0
    7.7913   63.4850   84.9157 O   0  0  0  0  0  0  0  0  0  0  0  0
  1 11  1  0
  2  1  2  0
  3 20  1  0
  3  2  1  0
  4  9  2  0
  4  3  1  0
  5  4  1  0
  6  7  1  0
  6  5  2  0
  7  8  2  0
  8  9  1  0
  9 10  1  0
 10  1  1  0
 11 12  1  0
 12 17  2  0
 13 15  2  0
 13 18  1  0
 14 13  1  0
 16 12  1  0
 16 14  2  0
 17 15  1  0
 19 18  1  0
 20 21  1  0
 21 22  1  0
 23 22  1  0
M  RAD  8   3   2   5   2   6   2   7   2   8   2  10   2  14   2  15   2
M  RAD  5  16   2  17   2  19   2  21   3  22   3
M  END
>  <REMARK>  (1) 
 SMILES COc1ccc(Nc2nc(NCCO)c3ccccc3n2)cc1
 SMILES IDX 8 1 9 2 10 3 15 4 16 5 17 6 18 7 19 8 20 9 21 10 7 11 6 13
 SMILES IDX 3 14 4 15 23 16 5 17 22 18 2 19 1 20 11 21 12 23 13 24 14 25
 H PARENT 7 12 11 22 14 26

>  <TORSDO>  (1) 
F 7

$$$$
