/home/pchatterjee/Documents/git/vs_workflow/DiffDock/diffdock_run/pdbqt_scrubbed/Z57346758.pdbqt
     RDKit          3D

 23 25  0  0  1  0  0  0  0  0999 V2000
   11.4978   64.5010   83.7148 C   0  0  0  0  0  0  0  0  0  0  0  0
   11.8119   63.5245   84.4794 N   0  0  0  0  0  0  0  0  0  0  0  0
   10.8443   62.6542   85.0920 C   0  0  0  0  0  3  0  0  0  0  0  0
    9.4483   63.0177   84.7368 C   0  0  0  0  0  0  0  0  0  0  0  0
    8.4213   62.2720   85.2508 C   0  0  0  0  0  3  0  0  0  0  0  0
    7.1097   62.5549   84.9619 C   0  0  0  0  0  3  0  0  0  0  0  0
    6.8120   63.6091   84.1388 C   0  0  0  0  0  3  0  0  0  0  0  0
    7.8159   64.3761   83.6073 C   0  0  0  0  0  3  0  0  0  0  0  0
    9.1203   64.0693   83.9140 C   0  0  0  0  0  0  0  0  0  0  0  0
   10.1698   64.8471   83.3767 N   0  0  0  0  0  2  0  0  0  0  0  0
   12.5466   65.2960   83.1643 N   0  0  0  0  0  0  0  0  0  0  0  0
   12.2290   66.3997   82.3031 C   0  0  0  0  0  0  0  0  0  0  0  0
   11.4895   68.4893   80.6574 C   0  0  0  0  0  0  0  0  0  0  0  0
   12.8174   68.2743   80.9666 C   0  0  0  0  0  3  0  0  0  0  0  0
   10.5463   67.6320   81.1933 C   0  0  0  0  0  3  0  0  0  0  0  0
   13.2061   67.2335   81.7885 C   0  0  0  0  0  3  0  0  0  0  0  0
   10.8906   66.5809   82.0181 C   0  0  0  0  0  3  0  0  0  0  0  0
   11.0742   69.5167   79.8424 O   0  0  0  0  0  0  0  0  0  0  0  0
   11.8685   70.5403   79.3288 C   0  0  0  0  0  1  0  0  0  0  0  0
   11.1055   61.2601   84.7114 N   0  0  0  0  0  0  0  0  0  0  0  0
   12.4615   60.9016   85.0683 C   0  0  0  0  0  2  0  0  0  0  0  0
   12.7705   61.3107   86.4947 C   0  0  0  0  0  2  0  0  0  0  0  0
   14.1441   61.3599   86.7482 O   0  0  0  0  0  0  0  0  0  0  0  0
  1 11  1  0
  2  1  2  0
  3 20  1  0
  3  2  1  0
  4  9  2  0
  4  3  1  0
  5  4  1  0
  6  7  1  0
  6  5  2  0
  7  8  2  0
  8  9  1  0
  9 10  1  0
 10  1  1  0
 11 12  1  0
 12 17  2  0
 13 15  2  0
 13 18  1  0
 14 13  1  0
 16 12  1  0
 16 14  2  0
 17 15  1  0
 19 18  1  0
 20 21  1  0
 21 22  1  0
 23 22  1  0
M  RAD  8   3   2   5   2   6   2   7   2   8   2  10   2  14   2  15   2
M  RAD  5  16   2  17   2  19   2  21   3  22   3
M  END
>  <REMARK>  (1) 
 SMILES COc1ccc(Nc2nc(NCCO)c3ccccc3n2)cc1
 SMILES IDX 8 1 9 2 10 3 15 4 16 5 17 6 18 7 19 8 20 9 21 10 7 11 6 13
 SMILES IDX 3 14 4 15 23 16 5 17 22 18 2 19 1 20 11 21 12 23 13 24 14 25
 H PARENT 7 12 11 22 14 26

>  <TORSDO>  (1) 
F 7

$$$$
