/home/pchatterjee/Documents/git/vs_workflow/DiffDock/diffdock_run/pdbqt_scrubbed/Z57346758.pdbqt
     RDKit          3D

 23 25  0  0  1  0  0  0  0  0999 V2000
   12.9067   63.9228   84.2218 C   0  0  0  0  0  0  0  0  0  0  0  0
   11.7104   63.4705   84.1879 N   0  0  0  0  0  0  0  0  0  0  0  0
   11.1199   62.7095   85.2561 C   0  0  0  0  0  3  0  0  0  0  0  0
   12.0528   62.5110   86.3950 C   0  0  0  0  0  0  0  0  0  0  0  0
   11.6222   61.8022   87.4846 C   0  0  0  0  0  3  0  0  0  0  0  0
   12.4342   61.5832   88.5693 C   0  0  0  0  0  3  0  0  0  0  0  0
   13.7099   62.0834   88.5696 C   0  0  0  0  0  3  0  0  0  0  0  0
   14.1726   62.7973   87.4951 C   0  0  0  0  0  3  0  0  0  0  0  0
   13.3372   63.0011   86.4227 C   0  0  0  0  0  0  0  0  0  0  0  0
   13.7945   63.7341   85.3053 N   0  0  0  0  0  2  0  0  0  0  0  0
   13.3832   64.6652   83.1008 N   0  0  0  0  0  0  0  0  0  0  0  0
   12.6126   65.7648   82.5931 C   0  0  0  0  0  0  0  0  0  0  0  0
   11.2435   67.9495   81.6059 C   0  0  0  0  0  0  0  0  0  0  0  0
   10.5710   66.7921   81.9426 C   0  0  0  0  0  3  0  0  0  0  0  0
   12.6153   67.9819   81.7768 C   0  0  0  0  0  3  0  0  0  0  0  0
   11.2396   65.6888   82.4381 C   0  0  0  0  0  3  0  0  0  0  0  0
   13.3219   66.9036   82.2682 C   0  0  0  0  0  3  0  0  0  0  0  0
   10.6040   69.0622   81.1108 O   0  0  0  0  0  0  0  0  0  0  0  0
   11.1205   69.9757   80.1936 C   0  0  0  0  0  1  0  0  0  0  0  0
    9.8945   63.3671   85.7280 N   0  0  0  0  0  0  0  0  0  0  0  0
    8.9605   63.5059   84.6312 C   0  0  0  0  0  2  0  0  0  0  0  0
    7.8943   62.4301   84.6905 C   0  0  0  0  0  2  0  0  0  0  0  0
    7.5336   61.9683   83.4216 O   0  0  0  0  0  0  0  0  0  0  0  0
  1 11  1  0
  2  1  2  0
  3 20  1  0
  3  2  1  0
  4  9  2  0
  4  3  1  0
  5  4  1  0
  6  7  1  0
  6  5  2  0
  7  8  2  0
  8  9  1  0
  9 10  1  0
 10  1  1  0
 11 12  1  0
 12 17  2  0
 13 15  2  0
 13 18  1  0
 14 13  1  0
 16 12  1  0
 16 14  2  0
 17 15  1  0
 19 18  1  0
 20 21  1  0
 21 22  1  0
 23 22  1  0
M  RAD  8   3   2   5   2   6   2   7   2   8   2  10   2  14   2  15   2
M  RAD  5  16   2  17   2  19   2  21   3  22   3
M  END
>  <REMARK>  (1) 
 SMILES COc1ccc(Nc2nc(NCCO)c3ccccc3n2)cc1
 SMILES IDX 8 1 9 2 10 3 15 4 16 5 17 6 18 7 19 8 20 9 21 10 7 11 6 13
 SMILES IDX 3 14 4 15 23 16 5 17 22 18 2 19 1 20 11 21 12 23 13 24 14 25
 H PARENT 7 12 11 22 14 26

>  <TORSDO>  (1) 
F 7

$$$$
