/home/pchatterjee/Documents/git/vs_workflow/DiffDock/diffdock_run/pdbqt_scrubbed/Z57346758.pdbqt
     RDKit          3D

 23 25  0  0  1  0  0  0  0  0999 V2000
    7.6154   43.3766   49.7674 C   0  0  0  0  0  0  0  0  0  0  0  0
    6.7057   43.6948   50.6089 N   0  0  0  0  0  0  0  0  0  0  0  0
    6.8594   44.7396   51.5854 C   0  0  0  0  0  3  0  0  0  0  0  0
    8.1869   45.4016   51.5046 C   0  0  0  0  0  0  0  0  0  0  0  0
    8.4716   46.4176   52.3774 C   0  0  0  0  0  3  0  0  0  0  0  0
    9.6789   47.0702   52.3553 C   0  0  0  0  0  3  0  0  0  0  0  0
   10.6289   46.7014   51.4394 C   0  0  0  0  0  3  0  0  0  0  0  0
   10.3766   45.6884   50.5513 C   0  0  0  0  0  3  0  0  0  0  0  0
    9.1587   45.0527   50.5966 C   0  0  0  0  0  0  0  0  0  0  0  0
    8.8784   44.0063   49.6903 N   0  0  0  0  0  2  0  0  0  0  0  0
    7.3474   42.3216   48.8454 N   0  0  0  0  0  0  0  0  0  0  0  0
    6.0167   41.7960   48.7291 C   0  0  0  0  0  0  0  0  0  0  0  0
    3.4253   40.8503   48.6171 C   0  0  0  0  0  0  0  0  0  0  0  0
    4.3439   40.4997   47.6484 C   0  0  0  0  0  3  0  0  0  0  0  0
    3.8393   41.6844   49.6393 C   0  0  0  0  0  3  0  0  0  0  0  0
    5.6452   40.9633   47.6881 C   0  0  0  0  0  3  0  0  0  0  0  0
    5.1284   42.1700   49.7172 C   0  0  0  0  0  3  0  0  0  0  0  0
    2.1243   40.4039   48.6026 O   0  0  0  0  0  0  0  0  0  0  0  0
    1.5882   39.4397   47.7509 C   0  0  0  0  0  1  0  0  0  0  0  0
    5.7962   45.7401   51.4272 N   0  0  0  0  0  0  0  0  0  0  0  0
    4.5274   45.1737   51.8321 C   0  0  0  0  0  2  0  0  0  0  0  0
    4.2220   45.5118   53.2778 C   0  0  0  0  0  2  0  0  0  0  0  0
    3.2118   44.7061   53.8104 O   0  0  0  0  0  0  0  0  0  0  0  0
  1 11  1  0
  2  1  2  0
  3 20  1  0
  3  2  1  0
  4  9  2  0
  4  3  1  0
  5  4  1  0
  6  7  1  0
  6  5  2  0
  7  8  2  0
  8  9  1  0
  9 10  1  0
 10  1  1  0
 11 12  1  0
 12 17  2  0
 13 15  2  0
 13 18  1  0
 14 13  1  0
 16 12  1  0
 16 14  2  0
 17 15  1  0
 19 18  1  0
 20 21  1  0
 21 22  1  0
 23 22  1  0
M  RAD  8   3   2   5   2   6   2   7   2   8   2  10   2  14   2  15   2
M  RAD  5  16   2  17   2  19   2  21   3  22   3
M  END
>  <REMARK>  (1) 
 SMILES COc1ccc(Nc2nc(NCCO)c3ccccc3n2)cc1
 SMILES IDX 8 1 9 2 10 3 15 4 16 5 17 6 18 7 19 8 20 9 21 10 7 11 6 13
 SMILES IDX 3 14 4 15 23 16 5 17 22 18 2 19 1 20 11 21 12 23 13 24 14 25
 H PARENT 7 12 11 22 14 26

>  <TORSDO>  (1) 
F 7

$$$$
