/home/pchatterjee/Documents/git/vs_workflow/DiffDock/diffdock_run/pdbqt_scrubbed/Z57346758.pdbqt
     RDKit          3D

 23 25  0  0  1  0  0  0  0  0999 V2000
    7.9277   65.6260   83.7415 C   0  0  0  0  0  0  0  0  0  0  0  0
    7.2795   66.7145   83.5632 N   0  0  0  0  0  0  0  0  0  0  0  0
    5.9289   66.9162   84.0150 C   0  0  0  0  0  3  0  0  0  0  0  0
    5.3777   65.7231   84.7075 C   0  0  0  0  0  0  0  0  0  0  0  0
    4.0978   65.7740   85.1915 C   0  0  0  0  0  3  0  0  0  0  0  0
    3.5293   64.7067   85.8408 C   0  0  0  0  0  3  0  0  0  0  0  0
    4.2546   63.5570   86.0131 C   0  0  0  0  0  3  0  0  0  0  0  0
    5.5385   63.4725   85.5409 C   0  0  0  0  0  3  0  0  0  0  0  0
    6.0820   64.5571   84.8946 C   0  0  0  0  0  0  0  0  0  0  0  0
    7.4035   64.4907   84.4004 N   0  0  0  0  0  2  0  0  0  0  0  0
    9.2636   65.5434   83.2481 N   0  0  0  0  0  0  0  0  0  0  0  0
    9.7804   66.5871   82.4088 C   0  0  0  0  0  0  0  0  0  0  0  0
   10.8949   68.5387   80.8054 C   0  0  0  0  0  0  0  0  0  0  0  0
    9.5472   68.5583   81.1025 C   0  0  0  0  0  3  0  0  0  0  0  0
   11.6657   67.5184   81.3317 C   0  0  0  0  0  3  0  0  0  0  0  0
    8.9719   67.5899   81.9033 C   0  0  0  0  0  3  0  0  0  0  0  0
   11.1323   66.5319   82.1353 C   0  0  0  0  0  3  0  0  0  0  0  0
   11.4939   69.4891   80.0116 O   0  0  0  0  0  0  0  0  0  0  0  0
   12.8343   69.5266   79.6315 C   0  0  0  0  0  1  0  0  0  0  0  0
    5.8625   68.0814   84.9063 N   0  0  0  0  0  0  0  0  0  0  0  0
    6.1997   69.2806   84.1696 C   0  0  0  0  0  2  0  0  0  0  0  0
    4.9741   70.1472   83.9586 C   0  0  0  0  0  2  0  0  0  0  0  0
    5.2482   71.2759   83.1813 O   0  0  0  0  0  0  0  0  0  0  0  0
  1 11  1  0
  2  1  2  0
  3 20  1  0
  3  2  1  0
  4  9  2  0
  4  3  1  0
  5  4  1  0
  6  7  1  0
  6  5  2  0
  7  8  2  0
  8  9  1  0
  9 10  1  0
 10  1  1  0
 11 12  1  0
 12 17  2  0
 13 15  2  0
 13 18  1  0
 14 13  1  0
 16 12  1  0
 16 14  2  0
 17 15  1  0
 19 18  1  0
 20 21  1  0
 21 22  1  0
 23 22  1  0
M  RAD  8   3   2   5   2   6   2   7   2   8   2  10   2  14   2  15   2
M  RAD  5  16   2  17   2  19   2  21   3  22   3
M  END
>  <REMARK>  (1) 
 SMILES COc1ccc(Nc2nc(NCCO)c3ccccc3n2)cc1
 SMILES IDX 8 1 9 2 10 3 15 4 16 5 17 6 18 7 19 8 20 9 21 10 7 11 6 13
 SMILES IDX 3 14 4 15 23 16 5 17 22 18 2 19 1 20 11 21 12 23 13 24 14 25
 H PARENT 7 12 11 22 14 26

>  <TORSDO>  (1) 
F 7

$$$$
