/home/pchatterjee/Documents/git/vs_workflow/DiffDock/diffdock_run/pdbqt_scrubbed/Z57346758.pdbqt
     RDKit          3D

 23 25  0  0  1  0  0  0  0  0999 V2000
   12.5167   65.5357   82.7546 C   0  0  0  0  0  0  0  0  0  0  0  0
   11.3155   65.4924   83.1930 N   0  0  0  0  0  0  0  0  0  0  0  0
   10.3038   66.4479   82.8292 C   0  0  0  0  0  3  0  0  0  0  0  0
   10.8112   67.4834   81.8926 C   0  0  0  0  0  0  0  0  0  0  0  0
    9.9536   68.4598   81.4612 C   0  0  0  0  0  3  0  0  0  0  0  0
   10.3592   69.4452   80.5961 C   0  0  0  0  0  3  0  0  0  0  0  0
   11.6539   69.4590   80.1479 C   0  0  0  0  0  3  0  0  0  0  0  0
   12.5384   68.4964   80.5599 C   0  0  0  0  0  3  0  0  0  0  0  0
   12.1043   67.5219   81.4267 C   0  0  0  0  0  0  0  0  0  0  0  0
   12.9996   66.5208   81.8635 N   0  0  0  0  0  2  0  0  0  0  0  0
   13.4330   64.5315   83.1867 N   0  0  0  0  0  0  0  0  0  0  0  0
   13.2450   63.8931   84.4586 C   0  0  0  0  0  0  0  0  0  0  0  0
   12.7592   62.7136   86.9070 C   0  0  0  0  0  0  0  0  0  0  0  0
   13.9854   62.5714   86.2894 C   0  0  0  0  0  3  0  0  0  0  0  0
   11.7872   63.4600   86.2667 C   0  0  0  0  0  3  0  0  0  0  0  0
   14.2465   63.1546   85.0639 C   0  0  0  0  0  3  0  0  0  0  0  0
   12.0056   64.0591   85.0432 C   0  0  0  0  0  3  0  0  0  0  0  0
   12.4717   62.1446   88.1260 O   0  0  0  0  0  0  0  0  0  0  0  0
   13.3410   61.3950   88.9165 C   0  0  0  0  0  1  0  0  0  0  0  0
    9.1511   65.7614   82.2319 N   0  0  0  0  0  0  0  0  0  0  0  0
    8.6798   64.7271   83.1279 C   0  0  0  0  0  2  0  0  0  0  0  0
    7.4389   65.1808   83.8708 C   0  0  0  0  0  2  0  0  0  0  0  0
    7.2204   64.4462   85.0396 O   0  0  0  0  0  0  0  0  0  0  0  0
  1 11  1  0
  2  1  2  0
  3 20  1  0
  3  2  1  0
  4  9  2  0
  4  3  1  0
  5  4  1  0
  6  7  1  0
  6  5  2  0
  7  8  2  0
  8  9  1  0
  9 10  1  0
 10  1  1  0
 11 12  1  0
 12 17  2  0
 13 15  2  0
 13 18  1  0
 14 13  1  0
 16 12  1  0
 16 14  2  0
 17 15  1  0
 19 18  1  0
 20 21  1  0
 21 22  1  0
 23 22  1  0
M  RAD  8   3   2   5   2   6   2   7   2   8   2  10   2  14   2  15   2
M  RAD  5  16   2  17   2  19   2  21   3  22   3
M  END
>  <REMARK>  (1) 
 SMILES COc1ccc(Nc2nc(NCCO)c3ccccc3n2)cc1
 SMILES IDX 8 1 9 2 10 3 15 4 16 5 17 6 18 7 19 8 20 9 21 10 7 11 6 13
 SMILES IDX 3 14 4 15 23 16 5 17 22 18 2 19 1 20 11 21 12 23 13 24 14 25
 H PARENT 7 12 11 22 14 26

>  <TORSDO>  (1) 
F 7

$$$$
