/home/pchatterjee/Documents/git/vs_workflow/DiffDock/diffdock_run/pdbqt_scrubbed/Z1626892642.pdbqt
     RDKit          3D

 25 25  0  0  0  0  0  0  0  0999 V2000
    7.8918   48.5544   54.0024 N   0  0  0  0  0  0  0  0  0  0  0  0
    6.7762   48.2088   54.8527 C   0  0  0  0  0  2  0  0  0  0  0  0
    5.4972   48.8401   54.4048 C   0  0  0  0  0  0  0  0  0  0  0  0
    3.9392   50.3313   54.2722 C   0  0  0  0  0  0  0  0  0  0  0  0
    5.1114   50.0553   54.8556 N   0  0  0  0  0  0  0  0  0  0  0  0
    3.6382   49.3115   53.4988 O   0  0  0  0  0  0  0  0  0  0  0  0
    4.5700   48.3967   53.5651 N   0  0  0  0  0  0  0  0  0  0  0  0
    3.1709   51.5877   54.5045 C   0  0  0  0  0  1  0  0  0  0  0  0
    7.5306   47.0810   52.4820 *   0  0  0  0  0  0  0  0  0  0  0  0
    8.6593   49.7242   54.3293 C   0  0  0  0  0  2  0  0  0  0  0  0
    9.8033   49.4210   55.2462 C   0  0  0  0  0  2  0  0  0  0  0  0
    9.3537   48.7143   56.4842 C   0  0  0  0  0  1  0  0  0  0  0  0
    7.5306   47.0810   52.4820 *   0  0  0  0  0  0  0  0  0  0  0  0
    8.2729   47.7994   52.8576 C   0  0  0  0  0  0  0  0  0  0  0  0
    9.2657   48.1339   52.1271 O   0  0  0  0  0  0  0  0  0  0  0  0
    7.5459   46.5725   52.4316 C   0  0  0  0  0  2  0  0  0  0  0  0
    8.4062   45.6713   51.6347 C   0  0  0  0  0  0  0  0  0  0  0  0
    9.7801   45.5134   51.7849 C   0  0  0  0  0  3  0  0  0  0  0  0
    7.9966   44.8416   50.6161 C   0  0  0  0  0  0  0  0  0  0  0  0
   10.1474   44.6079   50.8663 N   0  0  0  0  0  0  0  0  0  0  0  0
    6.7695   44.5936   50.0497 C   0  0  0  0  0  3  0  0  0  0  0  0
    9.0971   44.1909   50.1542 C   0  0  0  0  0  0  0  0  0  0  0  0
    6.6994   43.6855   49.0245 C   0  0  0  0  0  3  0  0  0  0  0  0
    9.0458   43.2863   49.1373 N   0  0  0  0  0  0  0  0  0  0  0  0
    7.8478   43.0536   48.5948 C   0  0  0  0  0  3  0  0  0  0  0  0
  1  2  1  0
  2  3  1  0
  3  5  1  0
  3  7  2  0
  4  6  1  0
  4  8  1  0
  5  4  2  0
  7  6  1  0
 10  1  1  0
 11 10  1  0
 12 11  1  0
 14  1  1  0
 14 15  2  0
 16 14  1  0
 17 16  1  0
 18 17  2  0
 19 21  1  0
 19 17  1  0
 20 18  1  0
 22 20  1  0
 22 19  2  0
 23 21  2  0
 24 25  2  0
 24 22  1  0
 25 23  1  0
M  RAD  8   2   3   8   2  10   3  11   3  12   2  16   3  18   2  21   2
M  RAD  2  23   2  25   2
V    9 *
V   13 *
M  END
>  <REMARK>  (1) 
 SMILES Cc1nc(C2CCCCCN2C(=O)Cc2c[nH]c3ncccc23)no1
 SMILES IDX 11 1 5 2 4 3 2 4 3 5 25 6 24 7 1 8 6 9 10 11 9 12 8 13 7 14
 SMILES IDX 12 16 13 17 14 18 15 19 16 20 23 21 17 22 22 23 18 24 21 25
 SMILES IDX 19 26 20 27
 H PARENT 17 28
 Flexibility Score:   71.900

>  <TORSDO>  (1) 
F 4

$$$$
