/home/pchatterjee/Documents/git/vs_workflow/DiffDock/diffdock_run/pdbqt_scrubbed/Z1626892642.pdbqt
     RDKit          3D

 25 25  0  0  0  0  0  0  0  0999 V2000
    7.2581   47.7465   53.9936 N   0  0  0  0  0  0  0  0  0  0  0  0
    6.4193   46.9388   54.8485 C   0  0  0  0  0  2  0  0  0  0  0  0
    4.9722   47.0323   54.4853 C   0  0  0  0  0  0  0  0  0  0  0  0
    2.9469   47.7848   54.5072 C   0  0  0  0  0  0  0  0  0  0  0  0
    4.1632   47.9665   55.0345 N   0  0  0  0  0  0  0  0  0  0  0  0
    3.0309   46.7740   53.6706 O   0  0  0  0  0  0  0  0  0  0  0  0
    4.2506   46.3037   53.6428 N   0  0  0  0  0  0  0  0  0  0  0  0
    1.7587   48.6165   54.8529 C   0  0  0  0  0  1  0  0  0  0  0  0
    7.4247   46.3378   52.3809 *   0  0  0  0  0  0  0  0  0  0  0  0
    7.5177   49.1051   54.3825 C   0  0  0  0  0  2  0  0  0  0  0  0
    8.7375   49.2322   55.2411 C   0  0  0  0  0  2  0  0  0  0  0  0
    8.6736   48.3375   56.4368 C   0  0  0  0  0  1  0  0  0  0  0  0
    7.4247   46.3378   52.3809 *   0  0  0  0  0  0  0  0  0  0  0  0
    7.8423   47.2703   52.7862 C   0  0  0  0  0  0  0  0  0  0  0  0
    8.5797   48.0123   52.0534 O   0  0  0  0  0  0  0  0  0  0  0  0
    7.6370   45.8810   52.2931 C   0  0  0  0  0  2  0  0  0  0  0  0
    8.7377   45.4426   51.4078 C   0  0  0  0  0  0  0  0  0  0  0  0
   10.0681   45.8366   51.5061 C   0  0  0  0  0  3  0  0  0  0  0  0
    8.6333   44.5762   50.3438 C   0  0  0  0  0  0  0  0  0  0  0  0
   10.7117   45.2046   50.5135 N   0  0  0  0  0  0  0  0  0  0  0  0
    7.5748   43.8919   49.7968 C   0  0  0  0  0  3  0  0  0  0  0  0
    9.8739   44.4441   49.8038 C   0  0  0  0  0  0  0  0  0  0  0  0
    7.8123   43.0892   48.7105 C   0  0  0  0  0  3  0  0  0  0  0  0
   10.1278   43.6517   48.7255 N   0  0  0  0  0  0  0  0  0  0  0  0
    9.0911   42.9917   48.2027 C   0  0  0  0  0  3  0  0  0  0  0  0
  1  2  1  0
  2  3  1  0
  3  5  1  0
  3  7  2  0
  4  6  1  0
  4  8  1  0
  5  4  2  0
  7  6  1  0
 10  1  1  0
 11 10  1  0
 12 11  1  0
 14  1  1  0
 14 15  2  0
 16 14  1  0
 17 16  1  0
 18 17  2  0
 19 21  1  0
 19 17  1  0
 20 18  1  0
 22 20  1  0
 22 19  2  0
 23 21  2  0
 24 25  2  0
 24 22  1  0
 25 23  1  0
M  RAD  8   2   3   8   2  10   3  11   3  12   2  16   3  18   2  21   2
M  RAD  2  23   2  25   2
V    9 *
V   13 *
M  END
>  <REMARK>  (1) 
 SMILES Cc1nc(C2CCCCCN2C(=O)Cc2c[nH]c3ncccc23)no1
 SMILES IDX 11 1 5 2 4 3 2 4 3 5 25 6 24 7 1 8 6 9 10 11 9 12 8 13 7 14
 SMILES IDX 12 16 13 17 14 18 15 19 16 20 23 21 17 22 22 23 18 24 21 25
 SMILES IDX 19 26 20 27
 H PARENT 17 28
 Flexibility Score:   71.900

>  <TORSDO>  (1) 
F 4

$$$$
