/home/pchatterjee/Documents/git/vs_workflow/DiffDock/diffdock_run/pdbqt_scrubbed/Z1626892642.pdbqt
     RDKit          3D

 25 25  0  0  0  0  0  0  0  0999 V2000
    5.0540   46.4686   53.9590 N   0  0  0  0  0  0  0  0  0  0  0  0
    4.2774   45.2962   54.2896 C   0  0  0  0  0  2  0  0  0  0  0  0
    3.0208   45.1958   53.4859 C   0  0  0  0  0  0  0  0  0  0  0  0
    0.9405   45.4839   52.9780 C   0  0  0  0  0  0  0  0  0  0  0  0
    1.8620   45.7477   53.9117 N   0  0  0  0  0  0  0  0  0  0  0  0
    1.5338   44.7965   52.0270 O   0  0  0  0  0  0  0  0  0  0  0  0
    2.7955   44.6113   52.3159 N   0  0  0  0  0  0  0  0  0  0  0  0
   -0.4818   45.9219   53.0671 C   0  0  0  0  0  1  0  0  0  0  0  0
    6.0489   45.6497   52.2406 *   0  0  0  0  0  0  0  0  0  0  0  0
    4.8008   47.6801   54.6886 C   0  0  0  0  0  2  0  0  0  0  0  0
    5.6499   47.7980   55.9159 C   0  0  0  0  0  2  0  0  0  0  0  0
    5.5166   46.6026   56.8033 C   0  0  0  0  0  1  0  0  0  0  0  0
    6.0489   45.6497   52.2406 *   0  0  0  0  0  0  0  0  0  0  0  0
    6.0571   46.4898   52.9494 C   0  0  0  0  0  0  0  0  0  0  0  0
    6.7255   47.5450   52.6827 O   0  0  0  0  0  0  0  0  0  0  0  0
    6.3975   45.2906   52.1362 C   0  0  0  0  0  2  0  0  0  0  0  0
    7.7761   45.3586   51.6049 C   0  0  0  0  0  0  0  0  0  0  0  0
    8.8599   45.9682   52.2284 C   0  0  0  0  0  3  0  0  0  0  0  0
    8.2178   44.8340   50.4119 C   0  0  0  0  0  0  0  0  0  0  0  0
    9.9029   45.7936   51.4033 N   0  0  0  0  0  0  0  0  0  0  0  0
    7.5892   44.1374   49.4081 C   0  0  0  0  0  3  0  0  0  0  0  0
    9.5434   45.1173   50.3090 C   0  0  0  0  0  0  0  0  0  0  0  0
    8.3330   43.7481   48.3238 C   0  0  0  0  0  3  0  0  0  0  0  0
   10.2972   44.7385   49.2398 N   0  0  0  0  0  0  0  0  0  0  0  0
    9.6752   44.0621   48.2706 C   0  0  0  0  0  3  0  0  0  0  0  0
  1  2  1  0
  2  3  1  0
  3  5  1  0
  3  7  2  0
  4  6  1  0
  4  8  1  0
  5  4  2  0
  7  6  1  0
 10  1  1  0
 11 10  1  0
 12 11  1  0
 14  1  1  0
 14 15  2  0
 16 14  1  0
 17 16  1  0
 18 17  2  0
 19 21  1  0
 19 17  1  0
 20 18  1  0
 22 20  1  0
 22 19  2  0
 23 21  2  0
 24 25  2  0
 24 22  1  0
 25 23  1  0
M  RAD  8   2   3   8   2  10   3  11   3  12   2  16   3  18   2  21   2
M  RAD  2  23   2  25   2
V    9 *
V   13 *
M  END
>  <REMARK>  (1) 
 SMILES Cc1nc(C2CCCCCN2C(=O)Cc2c[nH]c3ncccc23)no1
 SMILES IDX 11 1 5 2 4 3 2 4 3 5 25 6 24 7 1 8 6 9 10 11 9 12 8 13 7 14
 SMILES IDX 12 16 13 17 14 18 15 19 16 20 23 21 17 22 22 23 18 24 21 25
 SMILES IDX 19 26 20 27
 H PARENT 17 28
 Flexibility Score:   71.900

>  <TORSDO>  (1) 
F 4

$$$$
