/home/pchatterjee/Documents/git/vs_workflow/DiffDock/diffdock_run/pdbqt_scrubbed/Z1626892642.pdbqt
     RDKit          3D

 25 25  0  0  0  0  0  0  0  0999 V2000
    5.2023   46.5962   53.9329 N   0  0  0  0  0  0  0  0  0  0  0  0
    4.4166   45.4448   54.3125 C   0  0  0  0  0  2  0  0  0  0  0  0
    3.1535   45.3269   53.5215 C   0  0  0  0  0  0  0  0  0  0  0  0
    1.0727   45.6165   53.0169 C   0  0  0  0  0  0  0  0  0  0  0  0
    2.0032   45.9060   53.9339 N   0  0  0  0  0  0  0  0  0  0  0  0
    1.6526   44.8881   52.0886 O   0  0  0  0  0  0  0  0  0  0  0  0
    2.9143   44.7012   52.3759 N   0  0  0  0  0  0  0  0  0  0  0  0
   -0.3447   46.0718   53.0989 C   0  0  0  0  0  1  0  0  0  0  0  0
    6.1771   45.7035   52.2401 *   0  0  0  0  0  0  0  0  0  0  0  0
    4.9660   47.8367   54.6181 C   0  0  0  0  0  2  0  0  0  0  0  0
    5.8248   47.9921   55.8345 C   0  0  0  0  0  2  0  0  0  0  0  0
    5.6860   46.8322   56.7671 C   0  0  0  0  0  1  0  0  0  0  0  0
    6.1771   45.7035   52.2401 *   0  0  0  0  0  0  0  0  0  0  0  0
    6.1985   46.5695   52.9167 C   0  0  0  0  0  0  0  0  0  0  0  0
    6.8753   47.6071   52.6061 O   0  0  0  0  0  0  0  0  0  0  0  0
    6.5214   45.3372   52.1469 C   0  0  0  0  0  2  0  0  0  0  0  0
    7.8969   45.3714   51.6044 C   0  0  0  0  0  0  0  0  0  0  0  0
    8.9910   45.9931   52.1973 C   0  0  0  0  0  3  0  0  0  0  0  0
    8.3252   44.7980   50.4290 C   0  0  0  0  0  0  0  0  0  0  0  0
   10.0264   45.7772   51.3725 N   0  0  0  0  0  0  0  0  0  0  0  0
    7.6828   44.0706   49.4563 C   0  0  0  0  0  3  0  0  0  0  0  0
    9.6527   45.0640   50.3068 C   0  0  0  0  0  0  0  0  0  0  0  0
    8.4152   43.6333   48.3826 C   0  0  0  0  0  3  0  0  0  0  0  0
   10.3953   44.6378   49.2476 N   0  0  0  0  0  0  0  0  0  0  0  0
    9.7600   43.9317   48.3088 C   0  0  0  0  0  3  0  0  0  0  0  0
  1  2  1  0
  2  3  1  0
  3  5  1  0
  3  7  2  0
  4  6  1  0
  4  8  1  0
  5  4  2  0
  7  6  1  0
 10  1  1  0
 11 10  1  0
 12 11  1  0
 14  1  1  0
 14 15  2  0
 16 14  1  0
 17 16  1  0
 18 17  2  0
 19 21  1  0
 19 17  1  0
 20 18  1  0
 22 20  1  0
 22 19  2  0
 23 21  2  0
 24 25  2  0
 24 22  1  0
 25 23  1  0
M  RAD  8   2   3   8   2  10   3  11   3  12   2  16   3  18   2  21   2
M  RAD  2  23   2  25   2
V    9 *
V   13 *
M  END
>  <REMARK>  (1) 
 SMILES Cc1nc(C2CCCCCN2C(=O)Cc2c[nH]c3ncccc23)no1
 SMILES IDX 11 1 5 2 4 3 2 4 3 5 25 6 24 7 1 8 6 9 10 11 9 12 8 13 7 14
 SMILES IDX 12 16 13 17 14 18 15 19 16 20 23 21 17 22 22 23 18 24 21 25
 SMILES IDX 19 26 20 27
 H PARENT 17 28
 Flexibility Score:   71.900

>  <TORSDO>  (1) 
F 4

$$$$
