/home/pchatterjee/Documents/git/vs_workflow/DiffDock/diffdock_run/pdbqt_scrubbed/Z1626892642.pdbqt
     RDKit          3D

 25 25  0  0  0  0  0  0  0  0999 V2000
    5.0405   46.5257   54.0220 N   0  0  0  0  0  0  0  0  0  0  0  0
    4.2867   45.3553   54.4080 C   0  0  0  0  0  2  0  0  0  0  0  0
    3.0182   45.2086   53.6305 C   0  0  0  0  0  0  0  0  0  0  0  0
    0.9257   45.4493   53.1489 C   0  0  0  0  0  0  0  0  0  0  0  0
    1.8589   45.7594   54.0563 N   0  0  0  0  0  0  0  0  0  0  0  0
    1.5127   44.7363   52.2131 O   0  0  0  0  0  0  0  0  0  0  0  0
    2.7816   44.5790   52.4864 N   0  0  0  0  0  0  0  0  0  0  0  0
   -0.5011   45.8705   53.2471 C   0  0  0  0  0  1  0  0  0  0  0  0
    6.0179   45.6590   52.3171 *   0  0  0  0  0  0  0  0  0  0  0  0
    4.7822   47.7592   54.7119 C   0  0  0  0  0  2  0  0  0  0  0  0
    5.6503   47.9331   55.9192 C   0  0  0  0  0  2  0  0  0  0  0  0
    5.5492   46.7688   56.8511 C   0  0  0  0  0  1  0  0  0  0  0  0
    6.0179   45.6590   52.3171 *   0  0  0  0  0  0  0  0  0  0  0  0
    6.0259   46.5243   52.9949 C   0  0  0  0  0  0  0  0  0  0  0  0
    6.6745   47.5782   52.6789 O   0  0  0  0  0  0  0  0  0  0  0  0
    6.3698   45.3013   52.2195 C   0  0  0  0  0  2  0  0  0  0  0  0
    7.7381   45.3691   51.6622 C   0  0  0  0  0  0  0  0  0  0  0  0
    8.8235   46.0157   52.2443 C   0  0  0  0  0  3  0  0  0  0  0  0
    8.1671   44.8079   50.4812 C   0  0  0  0  0  0  0  0  0  0  0  0
    9.8547   45.8259   51.4080 N   0  0  0  0  0  0  0  0  0  0  0  0
    7.5317   44.0668   49.5142 C   0  0  0  0  0  3  0  0  0  0  0  0
    9.4865   45.1056   50.3451 C   0  0  0  0  0  0  0  0  0  0  0  0
    8.2626   43.6488   48.4318 C   0  0  0  0  0  3  0  0  0  0  0  0
   10.2275   44.6988   49.2771 N   0  0  0  0  0  0  0  0  0  0  0  0
    9.5990   43.9793   48.3439 C   0  0  0  0  0  3  0  0  0  0  0  0
  1  2  1  0
  2  3  1  0
  3  5  1  0
  3  7  2  0
  4  6  1  0
  4  8  1  0
  5  4  2  0
  7  6  1  0
 10  1  1  0
 11 10  1  0
 12 11  1  0
 14  1  1  0
 14 15  2  0
 16 14  1  0
 17 16  1  0
 18 17  2  0
 19 21  1  0
 19 17  1  0
 20 18  1  0
 22 20  1  0
 22 19  2  0
 23 21  2  0
 24 25  2  0
 24 22  1  0
 25 23  1  0
M  RAD  8   2   3   8   2  10   3  11   3  12   2  16   3  18   2  21   2
M  RAD  2  23   2  25   2
V    9 *
V   13 *
M  END
>  <REMARK>  (1) 
 SMILES Cc1nc(C2CCCCCN2C(=O)Cc2c[nH]c3ncccc23)no1
 SMILES IDX 11 1 5 2 4 3 2 4 3 5 25 6 24 7 1 8 6 9 10 11 9 12 8 13 7 14
 SMILES IDX 12 16 13 17 14 18 15 19 16 20 23 21 17 22 22 23 18 24 21 25
 SMILES IDX 19 26 20 27
 H PARENT 17 28
 Flexibility Score:   71.900

>  <TORSDO>  (1) 
F 4

$$$$
