/home/pchatterjee/Documents/git/vs_workflow/DiffDock/diffdock_run/pdbqt_scrubbed/Z1626892642.pdbqt
     RDKit          3D

 25 25  0  0  0  0  0  0  0  0999 V2000
    5.2513   46.7833   53.9522 N   0  0  0  0  0  0  0  0  0  0  0  0
    4.4829   45.6443   54.3987 C   0  0  0  0  0  2  0  0  0  0  0  0
    3.2123   45.4733   53.6299 C   0  0  0  0  0  0  0  0  0  0  0  0
    1.1227   45.7149   53.1361 C   0  0  0  0  0  0  0  0  0  0  0  0
    2.0603   46.0602   54.0262 N   0  0  0  0  0  0  0  0  0  0  0  0
    1.7001   44.9467   52.2389 O   0  0  0  0  0  0  0  0  0  0  0  0
    2.9670   44.7878   52.5202 N   0  0  0  0  0  0  0  0  0  0  0  0
   -0.2986   46.1588   53.2120 C   0  0  0  0  0  1  0  0  0  0  0  0
    6.2167   45.8164   52.2950 *   0  0  0  0  0  0  0  0  0  0  0  0
    5.0090   48.0543   54.5767 C   0  0  0  0  0  2  0  0  0  0  0  0
    5.8799   48.2800   55.7734 C   0  0  0  0  0  2  0  0  0  0  0  0
    5.7646   47.1674   56.7648 C   0  0  0  0  0  1  0  0  0  0  0  0
    6.2167   45.8164   52.2950 *   0  0  0  0  0  0  0  0  0  0  0  0
    6.2360   46.7157   52.9267 C   0  0  0  0  0  0  0  0  0  0  0  0
    6.8977   47.7434   52.5561 O   0  0  0  0  0  0  0  0  0  0  0  0
    6.5640   45.4496   52.2163 C   0  0  0  0  0  2  0  0  0  0  0  0
    7.9327   45.4709   51.6563 C   0  0  0  0  0  0  0  0  0  0  0  0
    9.0265   46.1333   52.2040 C   0  0  0  0  0  3  0  0  0  0  0  0
    8.3539   44.8433   50.5063 C   0  0  0  0  0  0  0  0  0  0  0  0
   10.0548   45.8869   51.3788 N   0  0  0  0  0  0  0  0  0  0  0  0
    7.7086   44.0609   49.5793 C   0  0  0  0  0  3  0  0  0  0  0  0
    9.6769   45.1168   50.3550 C   0  0  0  0  0  0  0  0  0  0  0  0
    8.4336   43.5777   48.5203 C   0  0  0  0  0  3  0  0  0  0  0  0
   10.4121   44.6455   49.3098 N   0  0  0  0  0  0  0  0  0  0  0  0
    9.7740   43.8862   48.4154 C   0  0  0  0  0  3  0  0  0  0  0  0
  1  2  1  0
  2  3  1  0
  3  5  1  0
  3  7  2  0
  4  6  1  0
  4  8  1  0
  5  4  2  0
  7  6  1  0
 10  1  1  0
 11 10  1  0
 12 11  1  0
 14  1  1  0
 14 15  2  0
 16 14  1  0
 17 16  1  0
 18 17  2  0
 19 21  1  0
 19 17  1  0
 20 18  1  0
 22 20  1  0
 22 19  2  0
 23 21  2  0
 24 25  2  0
 24 22  1  0
 25 23  1  0
M  RAD  8   2   3   8   2  10   3  11   3  12   2  16   3  18   2  21   2
M  RAD  2  23   2  25   2
V    9 *
V   13 *
M  END
>  <REMARK>  (1) 
 SMILES Cc1nc(C2CCCCCN2C(=O)Cc2c[nH]c3ncccc23)no1
 SMILES IDX 11 1 5 2 4 3 2 4 3 5 25 6 24 7 1 8 6 9 10 11 9 12 8 13 7 14
 SMILES IDX 12 16 13 17 14 18 15 19 16 20 23 21 17 22 22 23 18 24 21 25
 SMILES IDX 19 26 20 27
 H PARENT 17 28
 Flexibility Score:   71.900

>  <TORSDO>  (1) 
F 4

$$$$
