/home/pchatterjee/Documents/git/vs_workflow/DiffDock/diffdock_run/pdbqt_scrubbed/Z1626892642.pdbqt
     RDKit          3D

 25 25  0  0  0  0  0  0  0  0999 V2000
   16.2918   86.4631   69.0273 N   0  0  0  0  0  0  0  0  0  0  0  0
   16.7970   85.5399   68.0376 C   0  0  0  0  0  2  0  0  0  0  0  0
   17.6774   84.4880   68.6318 C   0  0  0  0  0  0  0  0  0  0  0  0
   19.5038   83.5556   69.3125 C   0  0  0  0  0  0  0  0  0  0  0  0
   19.0127   84.6659   68.7498 N   0  0  0  0  0  0  0  0  0  0  0  0
   18.4914   82.7434   69.5221 O   0  0  0  0  0  0  0  0  0  0  0  0
   17.3751   83.2900   69.1164 N   0  0  0  0  0  0  0  0  0  0  0  0
   20.9484   83.3475   69.6170 C   0  0  0  0  0  1  0  0  0  0  0  0
   14.6436   85.2582   69.6944 *   0  0  0  0  0  0  0  0  0  0  0  0
   17.0626   87.6410   69.3148 C   0  0  0  0  0  2  0  0  0  0  0  0
   16.6888   88.7978   68.4410 C   0  0  0  0  0  2  0  0  0  0  0  0
   16.7681   88.4489   66.9898 C   0  0  0  0  0  1  0  0  0  0  0  0
   14.6436   85.2582   69.6944 *   0  0  0  0  0  0  0  0  0  0  0  0
   15.0715   86.2699   69.7339 C   0  0  0  0  0  0  0  0  0  0  0  0
   14.6540   87.1071   70.6035 O   0  0  0  0  0  0  0  0  0  0  0  0
   14.1987   85.0850   69.5118 C   0  0  0  0  0  2  0  0  0  0  0  0
   12.7920   85.3610   69.8760 C   0  0  0  0  0  0  0  0  0  0  0  0
   12.1482   86.5892   69.7661 C   0  0  0  0  0  3  0  0  0  0  0  0
   11.8874   84.4559   70.3821 C   0  0  0  0  0  0  0  0  0  0  0  0
   10.8963   86.3869   70.2028 N   0  0  0  0  0  0  0  0  0  0  0  0
   11.9757   83.1198   70.6903 C   0  0  0  0  0  3  0  0  0  0  0  0
   10.7159   85.1175   70.5771 C   0  0  0  0  0  0  0  0  0  0  0  0
   10.8627   82.4940   71.1905 C   0  0  0  0  0  3  0  0  0  0  0  0
    9.6011   84.5120   71.0727 N   0  0  0  0  0  0  0  0  0  0  0  0
    9.6993   83.2133   71.3685 C   0  0  0  0  0  3  0  0  0  0  0  0
  1  2  1  0
  2  3  1  0
  3  5  1  0
  3  7  2  0
  4  6  1  0
  4  8  1  0
  5  4  2  0
  7  6  1  0
 10  1  1  0
 11 10  1  0
 12 11  1  0
 14  1  1  0
 14 15  2  0
 16 14  1  0
 17 16  1  0
 18 17  2  0
 19 21  1  0
 19 17  1  0
 20 18  1  0
 22 20  1  0
 22 19  2  0
 23 21  2  0
 24 25  2  0
 24 22  1  0
 25 23  1  0
M  RAD  8   2   3   8   2  10   3  11   3  12   2  16   3  18   2  21   2
M  RAD  2  23   2  25   2
V    9 *
V   13 *
M  END
>  <REMARK>  (1) 
 SMILES Cc1nc(C2CCCCCN2C(=O)Cc2c[nH]c3ncccc23)no1
 SMILES IDX 11 1 5 2 4 3 2 4 3 5 25 6 24 7 1 8 6 9 10 11 9 12 8 13 7 14
 SMILES IDX 12 16 13 17 14 18 15 19 16 20 23 21 17 22 22 23 18 24 21 25
 SMILES IDX 19 26 20 27
 H PARENT 17 28
 Flexibility Score:   71.900

>  <TORSDO>  (1) 
F 4

$$$$
