/home/pchatterjee/Documents/git/vs_workflow/DiffDock/diffdock_run/pdbqt_scrubbed/Z1626892642.pdbqt
     RDKit          3D

 25 25  0  0  0  0  0  0  0  0999 V2000
    5.2793   46.7749   53.9641 N   0  0  0  0  0  0  0  0  0  0  0  0
    4.5027   45.6519   54.4361 C   0  0  0  0  0  2  0  0  0  0  0  0
    3.2306   45.4731   53.6716 C   0  0  0  0  0  0  0  0  0  0  0  0
    1.1426   45.7191   53.1730 C   0  0  0  0  0  0  0  0  0  0  0  0
    2.0831   46.0772   54.0550 N   0  0  0  0  0  0  0  0  0  0  0  0
    1.7140   44.9267   52.2931 O   0  0  0  0  0  0  0  0  0  0  0  0
    2.9798   44.7649   52.5775 N   0  0  0  0  0  0  0  0  0  0  0  0
   -0.2754   46.1749   53.2393 C   0  0  0  0  0  1  0  0  0  0  0  0
    6.2369   45.7642   52.3286 *   0  0  0  0  0  0  0  0  0  0  0  0
    5.0466   48.0613   54.5601 C   0  0  0  0  0  2  0  0  0  0  0  0
    5.9196   48.3073   55.7512 C   0  0  0  0  0  2  0  0  0  0  0  0
    5.7966   47.2180   56.7673 C   0  0  0  0  0  1  0  0  0  0  0  0
    6.2369   45.7642   52.3286 *   0  0  0  0  0  0  0  0  0  0  0  0
    6.2631   46.6772   52.9401 C   0  0  0  0  0  0  0  0  0  0  0  0
    6.9321   47.6915   52.5465 O   0  0  0  0  0  0  0  0  0  0  0  0
    6.5814   45.3932   52.2580 C   0  0  0  0  0  2  0  0  0  0  0  0
    7.9501   45.3919   51.6974 C   0  0  0  0  0  0  0  0  0  0  0  0
    9.0489   46.0583   52.2299 C   0  0  0  0  0  3  0  0  0  0  0  0
    8.3661   44.7357   50.5616 C   0  0  0  0  0  0  0  0  0  0  0  0
   10.0750   45.7860   51.4102 N   0  0  0  0  0  0  0  0  0  0  0  0
    7.7148   43.9375   49.6525 C   0  0  0  0  0  3  0  0  0  0  0  0
    9.6911   44.9960   50.4039 C   0  0  0  0  0  0  0  0  0  0  0  0
    8.4357   43.4255   48.6044 C   0  0  0  0  0  3  0  0  0  0  0  0
   10.4224   44.4960   49.3694 N   0  0  0  0  0  0  0  0  0  0  0  0
    9.7783   43.7217   48.4923 C   0  0  0  0  0  3  0  0  0  0  0  0
  1  2  1  0
  2  3  1  0
  3  5  1  0
  3  7  2  0
  4  6  1  0
  4  8  1  0
  5  4  2  0
  7  6  1  0
 10  1  1  0
 11 10  1  0
 12 11  1  0
 14  1  1  0
 14 15  2  0
 16 14  1  0
 17 16  1  0
 18 17  2  0
 19 21  1  0
 19 17  1  0
 20 18  1  0
 22 20  1  0
 22 19  2  0
 23 21  2  0
 24 25  2  0
 24 22  1  0
 25 23  1  0
M  RAD  8   2   3   8   2  10   3  11   3  12   2  16   3  18   2  21   2
M  RAD  2  23   2  25   2
V    9 *
V   13 *
M  END
>  <REMARK>  (1) 
 SMILES Cc1nc(C2CCCCCN2C(=O)Cc2c[nH]c3ncccc23)no1
 SMILES IDX 11 1 5 2 4 3 2 4 3 5 25 6 24 7 1 8 6 9 10 11 9 12 8 13 7 14
 SMILES IDX 12 16 13 17 14 18 15 19 16 20 23 21 17 22 22 23 18 24 21 25
 SMILES IDX 19 26 20 27
 H PARENT 17 28
 Flexibility Score:   71.900

>  <TORSDO>  (1) 
F 4

$$$$
