/home/pchatterjee/Documents/git/vs_workflow/DiffDock/diffdock_run/pdbqt_scrubbed/Z1626892642.pdbqt
     RDKit          3D

 25 25  0  0  0  0  0  0  0  0999 V2000
    5.2223   46.6524   53.9316 N   0  0  0  0  0  0  0  0  0  0  0  0
    4.4615   45.5065   54.3732 C   0  0  0  0  0  2  0  0  0  0  0  0
    3.1848   45.3391   53.6137 C   0  0  0  0  0  0  0  0  0  0  0  0
    1.0902   45.5789   53.1406 C   0  0  0  0  0  0  0  0  0  0  0  0
    2.0344   45.9182   54.0259 N   0  0  0  0  0  0  0  0  0  0  0  0
    1.6622   44.8216   52.2306 O   0  0  0  0  0  0  0  0  0  0  0  0
    2.9321   44.6641   52.4993 N   0  0  0  0  0  0  0  0  0  0  0  0
   -0.3318   46.0173   53.2333 C   0  0  0  0  0  1  0  0  0  0  0  0
    6.1763   45.7055   52.2563 *   0  0  0  0  0  0  0  0  0  0  0  0
    4.9815   47.9163   54.5710 C   0  0  0  0  0  2  0  0  0  0  0  0
    5.8620   48.1327   55.7623 C   0  0  0  0  0  2  0  0  0  0  0  0
    5.7589   47.0098   56.7434 C   0  0  0  0  0  1  0  0  0  0  0  0
    6.1763   45.7055   52.2563 *   0  0  0  0  0  0  0  0  0  0  0  0
    6.1983   46.5984   52.8970 C   0  0  0  0  0  0  0  0  0  0  0  0
    6.8535   47.6320   52.5311 O   0  0  0  0  0  0  0  0  0  0  0  0
    6.5241   45.3406   52.1709 C   0  0  0  0  0  2  0  0  0  0  0  0
    7.8878   45.3720   51.5994 C   0  0  0  0  0  0  0  0  0  0  0  0
    8.9842   46.0324   52.1442 C   0  0  0  0  0  3  0  0  0  0  0  0
    8.3010   44.7575   50.4394 C   0  0  0  0  0  0  0  0  0  0  0  0
   10.0061   45.7978   51.3077 N   0  0  0  0  0  0  0  0  0  0  0  0
    7.6501   43.9824   49.5102 C   0  0  0  0  0  3  0  0  0  0  0  0
    9.6217   45.0368   50.2794 C   0  0  0  0  0  0  0  0  0  0  0  0
    8.3674   43.5123   48.4401 C   0  0  0  0  0  3  0  0  0  0  0  0
   10.3493   44.5784   49.2232 N   0  0  0  0  0  0  0  0  0  0  0  0
    9.7058   43.8262   48.3267 C   0  0  0  0  0  3  0  0  0  0  0  0
  1  2  1  0
  2  3  1  0
  3  5  1  0
  3  7  2  0
  4  6  1  0
  4  8  1  0
  5  4  2  0
  7  6  1  0
 10  1  1  0
 11 10  1  0
 12 11  1  0
 14  1  1  0
 14 15  2  0
 16 14  1  0
 17 16  1  0
 18 17  2  0
 19 21  1  0
 19 17  1  0
 20 18  1  0
 22 20  1  0
 22 19  2  0
 23 21  2  0
 24 25  2  0
 24 22  1  0
 25 23  1  0
M  RAD  8   2   3   8   2  10   3  11   3  12   2  16   3  18   2  21   2
M  RAD  2  23   2  25   2
V    9 *
V   13 *
M  END
>  <REMARK>  (1) 
 SMILES Cc1nc(C2CCCCCN2C(=O)Cc2c[nH]c3ncccc23)no1
 SMILES IDX 11 1 5 2 4 3 2 4 3 5 25 6 24 7 1 8 6 9 10 11 9 12 8 13 7 14
 SMILES IDX 12 16 13 17 14 18 15 19 16 20 23 21 17 22 22 23 18 24 21 25
 SMILES IDX 19 26 20 27
 H PARENT 17 28
 Flexibility Score:   71.900

>  <TORSDO>  (1) 
F 4

$$$$
