/home/pchatterjee/Documents/git/vs_workflow/DiffDock/diffdock_run/pdbqt_scrubbed/Z1626892642.pdbqt
     RDKit          3D

 25 25  0  0  0  0  0  0  0  0999 V2000
    7.4070   47.8759   53.9872 N   0  0  0  0  0  0  0  0  0  0  0  0
    6.5381   47.1560   54.8894 C   0  0  0  0  0  2  0  0  0  0  0  0
    5.0904   47.3741   54.5868 C   0  0  0  0  0  0  0  0  0  0  0  0
    3.1427   48.3044   54.6834 C   0  0  0  0  0  0  0  0  0  0  0  0
    4.3922   48.3829   55.1555 N   0  0  0  0  0  0  0  0  0  0  0  0
    3.1001   47.2806   53.8596 O   0  0  0  0  0  0  0  0  0  0  0  0
    4.2709   46.7031   53.7871 N   0  0  0  0  0  0  0  0  0  0  0  0
    2.0491   49.2426   55.0666 C   0  0  0  0  0  1  0  0  0  0  0  0
    7.3773   46.4394   52.3907 *   0  0  0  0  0  0  0  0  0  0  0  0
    7.8026   49.2103   54.3438 C   0  0  0  0  0  2  0  0  0  0  0  0
    9.0654   49.2380   55.1476 C   0  0  0  0  0  2  0  0  0  0  0  0
    8.9749   48.3664   56.3585 C   0  0  0  0  0  1  0  0  0  0  0  0
    7.3773   46.4394   52.3907 *   0  0  0  0  0  0  0  0  0  0  0  0
    7.8931   47.3356   52.7634 C   0  0  0  0  0  0  0  0  0  0  0  0
    8.6606   48.0004   51.9886 O   0  0  0  0  0  0  0  0  0  0  0  0
    7.5442   45.9646   52.3009 C   0  0  0  0  0  2  0  0  0  0  0  0
    8.5618   45.4196   51.3764 C   0  0  0  0  0  0  0  0  0  0  0  0
    9.9250   45.6945   51.4119 C   0  0  0  0  0  3  0  0  0  0  0  0
    8.3346   44.5537   50.3312 C   0  0  0  0  0  0  0  0  0  0  0  0
   10.4659   44.9963   50.4025 N   0  0  0  0  0  0  0  0  0  0  0  0
    7.1967   43.9603   49.8403 C   0  0  0  0  0  3  0  0  0  0  0  0
    9.5338   44.3053   49.7409 C   0  0  0  0  0  0  0  0  0  0  0  0
    7.3144   43.1273   48.7574 C   0  0  0  0  0  3  0  0  0  0  0  0
    9.6690   43.4811   48.6651 N   0  0  0  0  0  0  0  0  0  0  0  0
    8.5560   42.9102   48.1971 C   0  0  0  0  0  3  0  0  0  0  0  0
  1  2  1  0
  2  3  1  0
  3  5  1  0
  3  7  2  0
  4  6  1  0
  4  8  1  0
  5  4  2  0
  7  6  1  0
 10  1  1  0
 11 10  1  0
 12 11  1  0
 14  1  1  0
 14 15  2  0
 16 14  1  0
 17 16  1  0
 18 17  2  0
 19 21  1  0
 19 17  1  0
 20 18  1  0
 22 20  1  0
 22 19  2  0
 23 21  2  0
 24 25  2  0
 24 22  1  0
 25 23  1  0
M  RAD  8   2   3   8   2  10   3  11   3  12   2  16   3  18   2  21   2
M  RAD  2  23   2  25   2
V    9 *
V   13 *
M  END
>  <REMARK>  (1) 
 SMILES Cc1nc(C2CCCCCN2C(=O)Cc2c[nH]c3ncccc23)no1
 SMILES IDX 11 1 5 2 4 3 2 4 3 5 25 6 24 7 1 8 6 9 10 11 9 12 8 13 7 14
 SMILES IDX 12 16 13 17 14 18 15 19 16 20 23 21 17 22 22 23 18 24 21 25
 SMILES IDX 19 26 20 27
 H PARENT 17 28
 Flexibility Score:   71.900

>  <TORSDO>  (1) 
F 4

$$$$
