/home/pchatterjee/Documents/git/vs_workflow/DiffDock/diffdock_run/pdbqt_scrubbed/Z24682220.pdbqt
     RDKit          3D

 28 31  0  0  1  0  0  0  0  0999 V2000
    6.5232   41.5416   49.0643 C   0  0  0  0  0  2  0  0  0  0  0  0
    5.3884   41.6403   48.0825 C   0  0  0  0  0  0  0  0  0  0  0  0
    4.0324   41.7191   48.5057 N   0  0  0  0  0  0  0  0  0  0  0  0
    5.7313   41.6479   46.8655 O   0  0  0  0  0  0  0  0  0  0  0  0
    3.0491   40.7366   48.0954 C   0  0  0  0  0  2  0  0  0  0  0  0
    1.7421   41.0826   48.7252 C   0  0  0  0  0  3  0  0  0  0  0  0
    1.7718   41.0196   50.2369 C   0  0  0  0  0  2  0  0  0  0  0  0
    0.7136   40.2203   48.3799 O   0  0  0  0  0  0  0  0  0  0  0  0
    0.4054   40.5050   50.6419 C   0  0  0  0  0  2  0  0  0  0  0  0
   -0.2888   40.3598   49.3065 C   0  0  0  0  0  2  0  0  0  0  0  0
    7.6190   42.9335   48.6905 S   0  0  0  0  0  0  0  0  0  0  0  0
    7.7554   44.0678   50.0721 C   0  0  0  0  0  0  0  0  0  0  0  0
    6.8400   44.2245   50.9456 N   0  0  0  0  0  0  0  0  0  0  0  0
    8.9722   44.8311   50.1790 N   0  0  0  0  0  2  0  0  0  0  0  0
    6.8944   45.1174   52.0720 C   0  0  0  0  0  3  0  0  0  0  0  0
    9.1753   45.7502   51.2303 C   0  0  0  0  0  0  0  0  0  0  0  0
    8.1518   45.8858   52.1557 C   0  0  0  0  0  0  0  0  0  0  0  0
   10.3093   46.5107   51.3937 C   0  0  0  0  0  3  0  0  0  0  0  0
    8.2905   46.7682   53.2062 C   0  0  0  0  0  3  0  0  0  0  0  0
   10.4621   47.4005   52.4431 C   0  0  0  0  0  3  0  0  0  0  0  0
    9.4266   47.5142   53.3489 C   0  0  0  0  0  3  0  0  0  0  0  0
    5.7592   45.9817   52.2066 N   0  0  0  0  0  0  0  0  0  0  0  0
    4.4222   45.5484   52.2896 C   0  0  0  0  0  0  0  0  0  0  0  0
    3.4270   46.4518   52.0182 C   0  0  0  0  0  3  0  0  0  0  0  0
    4.0776   44.2613   52.6307 C   0  0  0  0  0  3  0  0  0  0  0  0
    2.1119   46.0302   52.0990 C   0  0  0  0  0  3  0  0  0  0  0  0
    2.7729   43.8475   52.7097 C   0  0  0  0  0  3  0  0  0  0  0  0
    1.7629   44.7425   52.4404 C   0  0  0  0  0  3  0  0  0  0  0  0
  2  1  1  0
  2  4  2  0
  3  2  1  0
  5  3  1  0
  6  5  1  0
  6  7  1  0
  7  9  1  0
  8  6  1  0
  8 10  1  0
 10  9  1  0
 11 12  1  0
 11  1  1  0
 12 14  1  0
 13 15  1  0
 13 12  2  0
 14 16  1  0
 15 22  1  0
 15 17  1  0
 16 18  2  0
 17 19  2  0
 17 16  1  0
 18 20  1  0
 19 21  1  0
 21 20  2  0
 23 22  1  0
 24 23  2  0
 25 23  1  0
 26 24  1  0
 27 25  2  0
 28 26  2  0
 28 27  1  0
M  RAD  8   1   3   5   3   6   2   7   3   9   3  10   3  14   2  15   2
M  RAD  8  18   2  19   2  20   2  21   2  24   2  25   2  26   2  27   2
M  RAD  1  28   2
M  END
>  <REMARK>  (1) 
 SMILES O=C(CSc1nc(Nc2ccccc2)c2ccccc2n1)NCC1CCCO1
 SMILES IDX 3 1 2 2 22 3 1 4 23 6 24 7 25 8 28 9 26 10 27 11 4 12 5 13
 SMILES IDX 6 14 21 15 7 16 20 17 15 18 19 19 16 20 18 21 17 22 8 23
 SMILES IDX 9 25 10 26 14 27 11 28 13 29 12 30
 H PARENT 22 5 8 24

>  <TORSDO>  (1) 
F 7

$$$$
