/home/pchatterjee/Documents/git/vs_workflow/DiffDock/diffdock_run/pdbqt_scrubbed/Z24682220.pdbqt
     RDKit          3D

 28 31  0  0  1  0  0  0  0  0999 V2000
   10.5034   83.2954   71.5279 C   0  0  0  0  0  2  0  0  0  0  0  0
    9.8091   83.6742   72.8069 C   0  0  0  0  0  0  0  0  0  0  0  0
   10.1343   84.8644   73.5152 N   0  0  0  0  0  0  0  0  0  0  0  0
    8.9238   82.8605   73.1979 O   0  0  0  0  0  0  0  0  0  0  0  0
   11.4797   85.4031   73.5202 C   0  0  0  0  0  2  0  0  0  0  0  0
   12.0323   85.2850   74.9005 C   0  0  0  0  0  3  0  0  0  0  0  0
   13.5112   85.5957   74.9809 C   0  0  0  0  0  2  0  0  0  0  0  0
   11.9350   84.0082   75.4305 O   0  0  0  0  0  0  0  0  0  0  0  0
   14.0614   84.6502   76.0293 C   0  0  0  0  0  2  0  0  0  0  0  0
   12.8196   83.9114   76.4750 C   0  0  0  0  0  2  0  0  0  0  0  0
   10.0656   84.5817   70.3314 S   0  0  0  0  0  0  0  0  0  0  0  0
   11.5137   85.4289   69.6995 C   0  0  0  0  0  0  0  0  0  0  0  0
   12.6857   84.9274   69.7195 N   0  0  0  0  0  0  0  0  0  0  0  0
   11.3172   86.7439   69.1457 N   0  0  0  0  0  2  0  0  0  0  0  0
   13.8808   85.5592   69.2281 C   0  0  0  0  0  3  0  0  0  0  0  0
   12.3938   87.4917   68.6234 C   0  0  0  0  0  0  0  0  0  0  0  0
   13.6490   86.9045   68.6670 C   0  0  0  0  0  0  0  0  0  0  0  0
   12.2792   88.7501   68.0807 C   0  0  0  0  0  3  0  0  0  0  0  0
   14.7413   87.5853   68.1720 C   0  0  0  0  0  3  0  0  0  0  0  0
   13.3668   89.4451   67.5804 C   0  0  0  0  0  3  0  0  0  0  0  0
   14.6040   88.8353   67.6371 C   0  0  0  0  0  3  0  0  0  0  0  0
   14.9742   85.5751   70.1543 N   0  0  0  0  0  0  0  0  0  0  0  0
   15.5209   84.4355   70.7747 C   0  0  0  0  0  0  0  0  0  0  0  0
   16.3560   83.6324   70.0412 C   0  0  0  0  0  3  0  0  0  0  0  0
   15.2509   84.0982   72.0805 C   0  0  0  0  0  3  0  0  0  0  0  0
   16.8949   82.5115   70.6469 C   0  0  0  0  0  3  0  0  0  0  0  0
   15.7871   82.9862   72.6770 C   0  0  0  0  0  3  0  0  0  0  0  0
   16.6269   82.1704   71.9539 C   0  0  0  0  0  3  0  0  0  0  0  0
  2  1  1  0
  2  4  2  0
  3  2  1  0
  5  3  1  0
  6  5  1  0
  6  7  1  0
  7  9  1  0
  8  6  1  0
  8 10  1  0
 10  9  1  0
 11 12  1  0
 11  1  1  0
 12 14  1  0
 13 15  1  0
 13 12  2  0
 14 16  1  0
 15 22  1  0
 15 17  1  0
 16 18  2  0
 17 19  2  0
 17 16  1  0
 18 20  1  0
 19 21  1  0
 21 20  2  0
 23 22  1  0
 24 23  2  0
 25 23  1  0
 26 24  1  0
 27 25  2  0
 28 26  2  0
 28 27  1  0
M  RAD  8   1   3   5   3   6   2   7   3   9   3  10   3  14   2  15   2
M  RAD  8  18   2  19   2  20   2  21   2  24   2  25   2  26   2  27   2
M  RAD  1  28   2
M  END
>  <REMARK>  (1) 
 SMILES O=C(CSc1nc(Nc2ccccc2)c2ccccc2n1)NCC1CCCO1
 SMILES IDX 3 1 2 2 22 3 1 4 23 6 24 7 25 8 28 9 26 10 27 11 4 12 5 13
 SMILES IDX 6 14 21 15 7 16 20 17 15 18 19 19 16 20 18 21 17 22 8 23
 SMILES IDX 9 25 10 26 14 27 11 28 13 29 12 30
 H PARENT 22 5 8 24

>  <TORSDO>  (1) 
F 7

$$$$
