/home/pchatterjee/Documents/git/vs_workflow/DiffDock/diffdock_run/pdbqt_scrubbed/Z24682220.pdbqt
     RDKit          3D

 28 31  0  0  1  0  0  0  0  0999 V2000
   12.4290   85.0674   68.5345 C   0  0  0  0  0  2  0  0  0  0  0  0
   12.5401   86.5596   68.6842 C   0  0  0  0  0  0  0  0  0  0  0  0
   13.7937   87.2299   68.6267 N   0  0  0  0  0  0  0  0  0  0  0  0
   11.4438   87.1637   68.8629 O   0  0  0  0  0  0  0  0  0  0  0  0
   14.9589   86.6138   68.0242 C   0  0  0  0  0  2  0  0  0  0  0  0
   16.1804   87.2529   68.5933 C   0  0  0  0  0  3  0  0  0  0  0  0
   16.6571   86.5983   69.8717 C   0  0  0  0  0  2  0  0  0  0  0  0
   15.9981   88.5794   68.9508 O   0  0  0  0  0  0  0  0  0  0  0  0
   17.1924   87.7306   70.7245 C   0  0  0  0  0  2  0  0  0  0  0  0
   17.0001   88.9279   69.8212 C   0  0  0  0  0  2  0  0  0  0  0  0
   11.5510   84.4896   70.0087 S   0  0  0  0  0  0  0  0  0  0  0  0
   12.6560   84.2720   71.4035 C   0  0  0  0  0  0  0  0  0  0  0  0
   13.9268   84.2997   71.3043 N   0  0  0  0  0  0  0  0  0  0  0  0
   12.0526   84.0555   72.6934 N   0  0  0  0  0  2  0  0  0  0  0  0
   14.8601   84.1317   72.3858 C   0  0  0  0  0  3  0  0  0  0  0  0
   12.8367   83.8732   73.8523 C   0  0  0  0  0  0  0  0  0  0  0  0
   14.2136   83.9117   73.6943 C   0  0  0  0  0  0  0  0  0  0  0  0
   12.3289   83.6623   75.1128 C   0  0  0  0  0  3  0  0  0  0  0  0
   15.0338   83.7402   74.7894 C   0  0  0  0  0  3  0  0  0  0  0  0
   13.1403   83.4883   76.2208 C   0  0  0  0  0  3  0  0  0  0  0  0
   14.5072   83.5317   76.0331 C   0  0  0  0  0  3  0  0  0  0  0  0
   15.8798   83.1527   72.1504 N   0  0  0  0  0  0  0  0  0  0  0  0
   16.8087   83.1954   71.0932 C   0  0  0  0  0  0  0  0  0  0  0  0
   18.1413   83.0719   71.3921 C   0  0  0  0  0  3  0  0  0  0  0  0
   16.4334   83.3556   69.7797 C   0  0  0  0  0  3  0  0  0  0  0  0
   19.0573   83.1138   70.3563 C   0  0  0  0  0  3  0  0  0  0  0  0
   17.3446   83.3966   68.7561 C   0  0  0  0  0  3  0  0  0  0  0  0
   18.6856   83.2742   69.0401 C   0  0  0  0  0  3  0  0  0  0  0  0
  2  1  1  0
  2  4  2  0
  3  2  1  0
  5  3  1  0
  6  5  1  0
  6  7  1  0
  7  9  1  0
  8  6  1  0
  8 10  1  0
 10  9  1  0
 11 12  1  0
 11  1  1  0
 12 14  1  0
 13 15  1  0
 13 12  2  0
 14 16  1  0
 15 22  1  0
 15 17  1  0
 16 18  2  0
 17 19  2  0
 17 16  1  0
 18 20  1  0
 19 21  1  0
 21 20  2  0
 23 22  1  0
 24 23  2  0
 25 23  1  0
 26 24  1  0
 27 25  2  0
 28 26  2  0
 28 27  1  0
M  RAD  8   1   3   5   3   6   2   7   3   9   3  10   3  14   2  15   2
M  RAD  8  18   2  19   2  20   2  21   2  24   2  25   2  26   2  27   2
M  RAD  1  28   2
M  END
>  <REMARK>  (1) 
 SMILES O=C(CSc1nc(Nc2ccccc2)c2ccccc2n1)NCC1CCCO1
 SMILES IDX 3 1 2 2 22 3 1 4 23 6 24 7 25 8 28 9 26 10 27 11 4 12 5 13
 SMILES IDX 6 14 21 15 7 16 20 17 15 18 19 19 16 20 18 21 17 22 8 23
 SMILES IDX 9 25 10 26 14 27 11 28 13 29 12 30
 H PARENT 22 5 8 24

>  <TORSDO>  (1) 
F 7

$$$$
