/home/pchatterjee/Documents/git/vs_workflow/DiffDock/diffdock_run/pdbqt_scrubbed/Z24682220.pdbqt
     RDKit          3D

 28 31  0  0  1  0  0  0  0  0999 V2000
   13.6550   86.0981   67.6500 C   0  0  0  0  0  2  0  0  0  0  0  0
   14.4896   87.0819   68.4227 C   0  0  0  0  0  0  0  0  0  0  0  0
   15.9050   86.9647   68.5067 N   0  0  0  0  0  0  0  0  0  0  0  0
   13.8410   88.0103   68.9848 O   0  0  0  0  0  0  0  0  0  0  0  0
   16.6386   86.0103   67.6998 C   0  0  0  0  0  2  0  0  0  0  0  0
   17.4380   85.1377   68.6075 C   0  0  0  0  0  3  0  0  0  0  0  0
   18.2364   85.9137   69.6325 C   0  0  0  0  0  2  0  0  0  0  0  0
   18.3944   84.3805   67.9499 O   0  0  0  0  0  0  0  0  0  0  0  0
   19.5273   85.1390   69.8029 C   0  0  0  0  0  2  0  0  0  0  0  0
   19.3182   83.9636   68.8750 C   0  0  0  0  0  2  0  0  0  0  0  0
   11.9845   86.2247   68.3367 S   0  0  0  0  0  0  0  0  0  0  0  0
   11.8507   85.4072   69.9266 C   0  0  0  0  0  0  0  0  0  0  0  0
   12.8585   85.0830   70.6371 N   0  0  0  0  0  0  0  0  0  0  0  0
   10.5246   85.1113   70.4047 N   0  0  0  0  0  2  0  0  0  0  0  0
   12.8113   84.4276   71.9166 C   0  0  0  0  0  3  0  0  0  0  0  0
   10.3142   84.4698   71.6438 C   0  0  0  0  0  0  0  0  0  0  0  0
   11.4406   84.1370   72.3806 C   0  0  0  0  0  0  0  0  0  0  0  0
    9.0789   84.1573   72.1609 C   0  0  0  0  0  3  0  0  0  0  0  0
   11.3005   83.5084   73.5999 C   0  0  0  0  0  3  0  0  0  0  0  0
    8.9234   83.5263   73.3832 C   0  0  0  0  0  3  0  0  0  0  0  0
   10.0627   83.2072   74.0945 C   0  0  0  0  0  3  0  0  0  0  0  0
   13.6430   83.2656   72.0254 N   0  0  0  0  0  0  0  0  0  0  0  0
   15.0095   83.2188   71.6894 C   0  0  0  0  0  0  0  0  0  0  0  0
   15.8593   84.1096   72.2934 C   0  0  0  0  0  3  0  0  0  0  0  0
   15.5221   82.3195   70.7837 C   0  0  0  0  0  3  0  0  0  0  0  0
   17.2026   84.0673   71.9658 C   0  0  0  0  0  3  0  0  0  0  0  0
   16.8543   82.2810   70.4618 C   0  0  0  0  0  3  0  0  0  0  0  0
   17.7196   83.1686   71.0594 C   0  0  0  0  0  3  0  0  0  0  0  0
  2  1  1  0
  2  4  2  0
  3  2  1  0
  5  3  1  0
  6  5  1  0
  6  7  1  0
  7  9  1  0
  8  6  1  0
  8 10  1  0
 10  9  1  0
 11 12  1  0
 11  1  1  0
 12 14  1  0
 13 15  1  0
 13 12  2  0
 14 16  1  0
 15 22  1  0
 15 17  1  0
 16 18  2  0
 17 19  2  0
 17 16  1  0
 18 20  1  0
 19 21  1  0
 21 20  2  0
 23 22  1  0
 24 23  2  0
 25 23  1  0
 26 24  1  0
 27 25  2  0
 28 26  2  0
 28 27  1  0
M  RAD  8   1   3   5   3   6   2   7   3   9   3  10   3  14   2  15   2
M  RAD  8  18   2  19   2  20   2  21   2  24   2  25   2  26   2  27   2
M  RAD  1  28   2
M  END
>  <REMARK>  (1) 
 SMILES O=C(CSc1nc(Nc2ccccc2)c2ccccc2n1)NCC1CCCO1
 SMILES IDX 3 1 2 2 22 3 1 4 23 6 24 7 25 8 28 9 26 10 27 11 4 12 5 13
 SMILES IDX 6 14 21 15 7 16 20 17 15 18 19 19 16 20 18 21 17 22 8 23
 SMILES IDX 9 25 10 26 14 27 11 28 13 29 12 30
 H PARENT 22 5 8 24

>  <TORSDO>  (1) 
F 7

$$$$
