/home/pchatterjee/Documents/git/vs_workflow/DiffDock/diffdock_run/pdbqt_scrubbed/Z24682220.pdbqt
     RDKit          3D

 28 31  0  0  1  0  0  0  0  0999 V2000
    8.2011   45.3780   50.0259 C   0  0  0  0  0  2  0  0  0  0  0  0
    9.5492   45.5686   50.6643 C   0  0  0  0  0  0  0  0  0  0  0  0
    9.6941   46.1394   51.9595 N   0  0  0  0  0  0  0  0  0  0  0  0
   10.5319   45.1858   49.9669 O   0  0  0  0  0  0  0  0  0  0  0  0
    8.6595   46.9679   52.5458 C   0  0  0  0  0  2  0  0  0  0  0  0
    9.0485   47.2892   53.9494 C   0  0  0  0  0  3  0  0  0  0  0  0
    7.9674   48.0187   54.7171 C   0  0  0  0  0  2  0  0  0  0  0  0
   10.1445   48.1322   54.0429 O   0  0  0  0  0  0  0  0  0  0  0  0
    8.7035   48.9894   55.6180 C   0  0  0  0  0  2  0  0  0  0  0  0
   10.1499   48.6868   55.2980 C   0  0  0  0  0  2  0  0  0  0  0  0
    8.0715   43.6074   49.6706 S   0  0  0  0  0  0  0  0  0  0  0  0
    6.3659   43.0574   49.6230 C   0  0  0  0  0  0  0  0  0  0  0  0
    5.3991   43.7217   50.1225 N   0  0  0  0  0  0  0  0  0  0  0  0
    6.0992   41.7955   48.9818 N   0  0  0  0  0  2  0  0  0  0  0  0
    4.0149   43.3308   50.1137 C   0  0  0  0  0  3  0  0  0  0  0  0
    4.7901   41.2762   48.8932 C   0  0  0  0  0  0  0  0  0  0  0  0
    3.7721   42.0346   49.4507 C   0  0  0  0  0  0  0  0  0  0  0  0
    4.4635   40.0809   48.2969 C   0  0  0  0  0  3  0  0  0  0  0  0
    2.4712   41.5807   49.3961 C   0  0  0  0  0  3  0  0  0  0  0  0
    3.1621   39.6129   48.2350 C   0  0  0  0  0  3  0  0  0  0  0  0
    2.1695   40.3894   48.7984 C   0  0  0  0  0  3  0  0  0  0  0  0
    3.3713   43.3769   51.3933 N   0  0  0  0  0  0  0  0  0  0  0  0
    3.2861   44.5196   52.2114 C   0  0  0  0  0  0  0  0  0  0  0  0
    2.6124   45.6140   51.7331 C   0  0  0  0  0  3  0  0  0  0  0  0
    3.8498   44.5806   53.4645 C   0  0  0  0  0  3  0  0  0  0  0  0
    2.5268   46.7390   52.5335 C   0  0  0  0  0  3  0  0  0  0  0  0
    3.7627   45.6977   54.2546 C   0  0  0  0  0  3  0  0  0  0  0  0
    3.0899   46.8040   53.7885 C   0  0  0  0  0  3  0  0  0  0  0  0
  2  1  1  0
  2  4  2  0
  3  2  1  0
  5  3  1  0
  6  5  1  0
  6  7  1  0
  7  9  1  0
  8  6  1  0
  8 10  1  0
 10  9  1  0
 11 12  1  0
 11  1  1  0
 12 14  1  0
 13 15  1  0
 13 12  2  0
 14 16  1  0
 15 22  1  0
 15 17  1  0
 16 18  2  0
 17 19  2  0
 17 16  1  0
 18 20  1  0
 19 21  1  0
 21 20  2  0
 23 22  1  0
 24 23  2  0
 25 23  1  0
 26 24  1  0
 27 25  2  0
 28 26  2  0
 28 27  1  0
M  RAD  8   1   3   5   3   6   2   7   3   9   3  10   3  14   2  15   2
M  RAD  8  18   2  19   2  20   2  21   2  24   2  25   2  26   2  27   2
M  RAD  1  28   2
M  END
>  <REMARK>  (1) 
 SMILES O=C(CSc1nc(Nc2ccccc2)c2ccccc2n1)NCC1CCCO1
 SMILES IDX 3 1 2 2 22 3 1 4 23 6 24 7 25 8 28 9 26 10 27 11 4 12 5 13
 SMILES IDX 6 14 21 15 7 16 20 17 15 18 19 19 16 20 18 21 17 22 8 23
 SMILES IDX 9 25 10 26 14 27 11 28 13 29 12 30
 H PARENT 22 5 8 24

>  <TORSDO>  (1) 
F 7

$$$$
