/home/pchatterjee/Documents/git/vs_workflow/DiffDock/diffdock_run/pdbqt_scrubbed/Z24682220.pdbqt
     RDKit          3D

 28 31  0  0  1  0  0  0  0  0999 V2000
   13.5460   86.4141   67.3582 C   0  0  0  0  0  2  0  0  0  0  0  0
   14.5807   87.3935   67.8394 C   0  0  0  0  0  0  0  0  0  0  0  0
   15.8509   86.9700   68.3205 N   0  0  0  0  0  0  0  0  0  0  0  0
   14.2361   88.6087   67.7829 O   0  0  0  0  0  0  0  0  0  0  0  0
   16.3558   85.6362   68.0631 C   0  0  0  0  0  2  0  0  0  0  0  0
   17.8092   85.6071   68.3969 C   0  0  0  0  0  3  0  0  0  0  0  0
   18.4711   84.2860   68.0703 C   0  0  0  0  0  2  0  0  0  0  0  0
   18.0729   85.7827   69.7460 O   0  0  0  0  0  0  0  0  0  0  0  0
   19.4973   84.0724   69.1645 C   0  0  0  0  0  2  0  0  0  0  0  0
   19.3427   85.3263   69.9952 C   0  0  0  0  0  2  0  0  0  0  0  0
   12.0377   86.7985   68.2830 S   0  0  0  0  0  0  0  0  0  0  0  0
   11.9077   85.8278   69.7847 C   0  0  0  0  0  0  0  0  0  0  0  0
   12.9176   85.3927   70.4298 N   0  0  0  0  0  0  0  0  0  0  0  0
   10.5821   85.5370   70.2673 N   0  0  0  0  0  2  0  0  0  0  0  0
   12.8735   84.6115   71.6368 C   0  0  0  0  0  3  0  0  0  0  0  0
   10.3746   84.7803   71.4401 C   0  0  0  0  0  0  0  0  0  0  0  0
   11.5033   84.3292   72.1072 C   0  0  0  0  0  0  0  0  0  0  0  0
    9.1400   84.4654   71.9574 C   0  0  0  0  0  3  0  0  0  0  0  0
   11.3660   83.5846   73.2597 C   0  0  0  0  0  3  0  0  0  0  0  0
    8.9873   83.7186   73.1130 C   0  0  0  0  0  3  0  0  0  0  0  0
   10.1288   83.2833   73.7557 C   0  0  0  0  0  3  0  0  0  0  0  0
   13.6577   83.4125   71.6033 N   0  0  0  0  0  0  0  0  0  0  0  0
   15.0420   83.3622   71.3507 C   0  0  0  0  0  0  0  0  0  0  0  0
   15.5313   82.3158   70.6119 C   0  0  0  0  0  3  0  0  0  0  0  0
   15.9174   84.3165   71.8142 C   0  0  0  0  0  3  0  0  0  0  0  0
   16.8909   82.2624   70.3619 C   0  0  0  0  0  3  0  0  0  0  0  0
   17.2643   84.2597   71.5642 C   0  0  0  0  0  3  0  0  0  0  0  0
   17.7706   83.2156   70.8243 C   0  0  0  0  0  3  0  0  0  0  0  0
  2  1  1  0
  2  4  2  0
  3  2  1  0
  5  3  1  0
  6  5  1  0
  6  7  1  0
  7  9  1  0
  8  6  1  0
  8 10  1  0
 10  9  1  0
 11 12  1  0
 11  1  1  0
 12 14  1  0
 13 15  1  0
 13 12  2  0
 14 16  1  0
 15 22  1  0
 15 17  1  0
 16 18  2  0
 17 19  2  0
 17 16  1  0
 18 20  1  0
 19 21  1  0
 21 20  2  0
 23 22  1  0
 24 23  2  0
 25 23  1  0
 26 24  1  0
 27 25  2  0
 28 26  2  0
 28 27  1  0
M  RAD  8   1   3   5   3   6   2   7   3   9   3  10   3  14   2  15   2
M  RAD  8  18   2  19   2  20   2  21   2  24   2  25   2  26   2  27   2
M  RAD  1  28   2
M  END
>  <REMARK>  (1) 
 SMILES O=C(CSc1nc(Nc2ccccc2)c2ccccc2n1)NCC1CCCO1
 SMILES IDX 3 1 2 2 22 3 1 4 23 6 24 7 25 8 28 9 26 10 27 11 4 12 5 13
 SMILES IDX 6 14 21 15 7 16 20 17 15 18 19 19 16 20 18 21 17 22 8 23
 SMILES IDX 9 25 10 26 14 27 11 28 13 29 12 30
 H PARENT 22 5 8 24

>  <TORSDO>  (1) 
F 7

$$$$
