/home/pchatterjee/Documents/git/vs_workflow/DiffDock/diffdock_run/pdbqt_scrubbed/Z24682220.pdbqt
     RDKit          3D

 28 31  0  0  1  0  0  0  0  0999 V2000
    8.7619   45.5707   50.0861 C   0  0  0  0  0  2  0  0  0  0  0  0
    9.9227   45.5888   51.0419 C   0  0  0  0  0  0  0  0  0  0  0  0
    9.8496   46.2462   52.3015 N   0  0  0  0  0  0  0  0  0  0  0  0
   10.9563   44.9803   50.6418 O   0  0  0  0  0  0  0  0  0  0  0  0
    8.8046   47.2050   52.5997 C   0  0  0  0  0  2  0  0  0  0  0  0
    8.9177   47.5986   54.0338 C   0  0  0  0  0  3  0  0  0  0  0  0
    7.8300   48.5515   54.4798 C   0  0  0  0  0  2  0  0  0  0  0  0
   10.0902   48.2739   54.3336 O   0  0  0  0  0  0  0  0  0  0  0  0
    8.4975   49.4840   55.4701 C   0  0  0  0  0  2  0  0  0  0  0  0
    9.9074   48.9398   55.5194 C   0  0  0  0  0  2  0  0  0  0  0  0
    8.5186   43.8327   49.6410 S   0  0  0  0  0  0  0  0  0  0  0  0
    6.7812   43.3956   49.5747 C   0  0  0  0  0  0  0  0  0  0  0  0
    5.8625   44.0805   50.1337 N   0  0  0  0  0  0  0  0  0  0  0  0
    6.4300   42.2037   48.8462 N   0  0  0  0  0  2  0  0  0  0  0  0
    4.4563   43.7788   50.1136 C   0  0  0  0  0  3  0  0  0  0  0  0
    5.0900   41.7754   48.7363 C   0  0  0  0  0  0  0  0  0  0  0  0
    4.1265   42.5528   49.3605 C   0  0  0  0  0  0  0  0  0  0  0  0
    4.6835   40.6503   48.0582 C   0  0  0  0  0  3  0  0  0  0  0  0
    2.7990   42.1866   49.2892 C   0  0  0  0  0  3  0  0  0  0  0  0
    3.3547   40.2705   47.9785 C   0  0  0  0  0  3  0  0  0  0  0  0
    2.4177   41.0639   48.6097 C   0  0  0  0  0  3  0  0  0  0  0  0
    3.8270   43.7704   51.4011 N   0  0  0  0  0  0  0  0  0  0  0  0
    3.8923   44.8209   52.3363 C   0  0  0  0  0  0  0  0  0  0  0  0
    3.5677   46.0858   51.9183 C   0  0  0  0  0  3  0  0  0  0  0  0
    4.2674   44.6284   53.6455 C   0  0  0  0  0  3  0  0  0  0  0  0
    3.6311   47.1209   52.8340 C   0  0  0  0  0  3  0  0  0  0  0  0
    4.3289   45.6571   54.5499 C   0  0  0  0  0  3  0  0  0  0  0  0
    4.0063   46.9323   54.1455 C   0  0  0  0  0  3  0  0  0  0  0  0
  2  1  1  0
  2  4  2  0
  3  2  1  0
  5  3  1  0
  6  5  1  0
  6  7  1  0
  7  9  1  0
  8  6  1  0
  8 10  1  0
 10  9  1  0
 11 12  1  0
 11  1  1  0
 12 14  1  0
 13 15  1  0
 13 12  2  0
 14 16  1  0
 15 22  1  0
 15 17  1  0
 16 18  2  0
 17 19  2  0
 17 16  1  0
 18 20  1  0
 19 21  1  0
 21 20  2  0
 23 22  1  0
 24 23  2  0
 25 23  1  0
 26 24  1  0
 27 25  2  0
 28 26  2  0
 28 27  1  0
M  RAD  8   1   3   5   3   6   2   7   3   9   3  10   3  14   2  15   2
M  RAD  8  18   2  19   2  20   2  21   2  24   2  25   2  26   2  27   2
M  RAD  1  28   2
M  END
>  <REMARK>  (1) 
 SMILES O=C(CSc1nc(Nc2ccccc2)c2ccccc2n1)NCC1CCCO1
 SMILES IDX 3 1 2 2 22 3 1 4 23 6 24 7 25 8 28 9 26 10 27 11 4 12 5 13
 SMILES IDX 6 14 21 15 7 16 20 17 15 18 19 19 16 20 18 21 17 22 8 23
 SMILES IDX 9 25 10 26 14 27 11 28 13 29 12 30
 H PARENT 22 5 8 24

>  <TORSDO>  (1) 
F 7

$$$$
