/home/pchatterjee/Documents/git/vs_workflow/DiffDock/diffdock_run/pdbqt_scrubbed/Z24682220.pdbqt
     RDKit          3D

 28 31  0  0  1  0  0  0  0  0999 V2000
    7.8842   45.0759   50.6799 C   0  0  0  0  0  2  0  0  0  0  0  0
    9.3351   45.3260   50.9862 C   0  0  0  0  0  0  0  0  0  0  0  0
    9.7446   46.0980   52.1089 N   0  0  0  0  0  0  0  0  0  0  0  0
   10.1523   44.8018   50.1762 O   0  0  0  0  0  0  0  0  0  0  0  0
    8.8115   46.9322   52.8396 C   0  0  0  0  0  2  0  0  0  0  0  0
    9.5368   47.5723   53.9749 C   0  0  0  0  0  3  0  0  0  0  0  0
    8.6754   48.5280   54.7716 C   0  0  0  0  0  2  0  0  0  0  0  0
   10.6123   48.3511   53.5783 O   0  0  0  0  0  0  0  0  0  0  0  0
    9.6038   49.6515   55.1858 C   0  0  0  0  0  2  0  0  0  0  0  0
   10.9268   49.2004   54.6092 C   0  0  0  0  0  2  0  0  0  0  0  0
    7.8521   43.6133   49.6133 S   0  0  0  0  0  0  0  0  0  0  0  0
    6.1844   43.0061   49.3601 C   0  0  0  0  0  0  0  0  0  0  0  0
    5.1485   43.5792   49.8333 N   0  0  0  0  0  0  0  0  0  0  0  0
    6.0328   41.8061   48.5780 N   0  0  0  0  0  2  0  0  0  0  0  0
    3.7899   43.1385   49.6628 C   0  0  0  0  0  3  0  0  0  0  0  0
    4.7619   41.2488   48.3226 C   0  0  0  0  0  0  0  0  0  0  0  0
    3.6656   41.9076   48.8578 C   0  0  0  0  0  0  0  0  0  0  0  0
    4.5436   40.1082   47.5860 C   0  0  0  0  0  3  0  0  0  0  0  0
    2.3967   41.4121   48.6432 C   0  0  0  0  0  3  0  0  0  0  0  0
    3.2757   39.5994   47.3628 C   0  0  0  0  0  3  0  0  0  0  0  0
    2.2033   40.2766   47.9079 C   0  0  0  0  0  3  0  0  0  0  0  0
    3.0381   43.0306   50.8780 N   0  0  0  0  0  0  0  0  0  0  0  0
    2.8816   44.0628   51.8227 C   0  0  0  0  0  0  0  0  0  0  0  0
    3.1599   43.7899   53.1373 C   0  0  0  0  0  3  0  0  0  0  0  0
    2.4624   45.3271   51.4798 C   0  0  0  0  0  3  0  0  0  0  0  0
    3.0069   44.8012   54.0688 C   0  0  0  0  0  3  0  0  0  0  0  0
    2.3120   46.3267   52.4062 C   0  0  0  0  0  3  0  0  0  0  0  0
    2.5873   46.0681   53.7296 C   0  0  0  0  0  3  0  0  0  0  0  0
  2  1  1  0
  2  4  2  0
  3  2  1  0
  5  3  1  0
  6  5  1  0
  6  7  1  0
  7  9  1  0
  8  6  1  0
  8 10  1  0
 10  9  1  0
 11 12  1  0
 11  1  1  0
 12 14  1  0
 13 15  1  0
 13 12  2  0
 14 16  1  0
 15 22  1  0
 15 17  1  0
 16 18  2  0
 17 19  2  0
 17 16  1  0
 18 20  1  0
 19 21  1  0
 21 20  2  0
 23 22  1  0
 24 23  2  0
 25 23  1  0
 26 24  1  0
 27 25  2  0
 28 26  2  0
 28 27  1  0
M  RAD  8   1   3   5   3   6   2   7   3   9   3  10   3  14   2  15   2
M  RAD  8  18   2  19   2  20   2  21   2  24   2  25   2  26   2  27   2
M  RAD  1  28   2
M  END
>  <REMARK>  (1) 
 SMILES O=C(CSc1nc(Nc2ccccc2)c2ccccc2n1)NCC1CCCO1
 SMILES IDX 3 1 2 2 22 3 1 4 23 6 24 7 25 8 28 9 26 10 27 11 4 12 5 13
 SMILES IDX 6 14 21 15 7 16 20 17 15 18 19 19 16 20 18 21 17 22 8 23
 SMILES IDX 9 25 10 26 14 27 11 28 13 29 12 30
 H PARENT 22 5 8 24

>  <TORSDO>  (1) 
F 7

$$$$
