/home/pchatterjee/Documents/git/vs_workflow/DiffDock/diffdock_run/pdbqt_scrubbed/Z24682220.pdbqt
     RDKit          3D

 28 31  0  0  1  0  0  0  0  0999 V2000
    9.3146   44.3184   49.9816 C   0  0  0  0  0  2  0  0  0  0  0  0
   10.4528   45.0407   50.6480 C   0  0  0  0  0  0  0  0  0  0  0  0
   10.2739   45.7780   51.8516 N   0  0  0  0  0  0  0  0  0  0  0  0
   11.5681   44.9416   50.0607 O   0  0  0  0  0  0  0  0  0  0  0  0
    9.7248   47.1192   51.8476 C   0  0  0  0  0  2  0  0  0  0  0  0
    8.5895   47.1693   52.8136 C   0  0  0  0  0  3  0  0  0  0  0  0
    8.1505   48.5785   53.1476 C   0  0  0  0  0  2  0  0  0  0  0  0
    8.8863   46.6155   54.0489 O   0  0  0  0  0  0  0  0  0  0  0  0
    7.7509   48.5364   54.6085 C   0  0  0  0  0  2  0  0  0  0  0  0
    7.9685   47.0812   54.9565 C   0  0  0  0  0  2  0  0  0  0  0  0
    7.9976   44.2274   51.2206 S   0  0  0  0  0  0  0  0  0  0  0  0
    6.4799   43.5619   50.5365 C   0  0  0  0  0  0  0  0  0  0  0  0
    5.3208   43.9919   50.8482 N   0  0  0  0  0  0  0  0  0  0  0  0
    6.6026   42.4853   49.5875 N   0  0  0  0  0  2  0  0  0  0  0  0
    4.0723   43.4976   50.3326 C   0  0  0  0  0  3  0  0  0  0  0  0
    5.4675   41.8941   48.9933 C   0  0  0  0  0  0  0  0  0  0  0  0
    4.2290   42.3956   49.3633 C   0  0  0  0  0  0  0  0  0  0  0  0
    5.5104   40.8652   48.0820 C   0  0  0  0  0  3  0  0  0  0  0  0
    3.0819   41.8595   48.8172 C   0  0  0  0  0  3  0  0  0  0  0  0
    4.3672   40.3173   47.5259 C   0  0  0  0  0  3  0  0  0  0  0  0
    3.1483   40.8369   47.9131 C   0  0  0  0  0  3  0  0  0  0  0  0
    3.1020   43.1623   51.3326 N   0  0  0  0  0  0  0  0  0  0  0  0
    2.7773   43.9668   52.4416 C   0  0  0  0  0  0  0  0  0  0  0  0
    1.9370   45.0330   52.2486 C   0  0  0  0  0  3  0  0  0  0  0  0
    3.2679   43.7261   53.7037 C   0  0  0  0  0  3  0  0  0  0  0  0
    1.6158   45.8263   53.3355 C   0  0  0  0  0  3  0  0  0  0  0  0
    2.9471   44.5149   54.7784 C   0  0  0  0  0  3  0  0  0  0  0  0
    2.1050   45.5887   54.6006 C   0  0  0  0  0  3  0  0  0  0  0  0
  2  1  1  0
  2  4  2  0
  3  2  1  0
  5  3  1  0
  6  5  1  0
  6  7  1  0
  7  9  1  0
  8  6  1  0
  8 10  1  0
 10  9  1  0
 11 12  1  0
 11  1  1  0
 12 14  1  0
 13 15  1  0
 13 12  2  0
 14 16  1  0
 15 22  1  0
 15 17  1  0
 16 18  2  0
 17 19  2  0
 17 16  1  0
 18 20  1  0
 19 21  1  0
 21 20  2  0
 23 22  1  0
 24 23  2  0
 25 23  1  0
 26 24  1  0
 27 25  2  0
 28 26  2  0
 28 27  1  0
M  RAD  8   1   3   5   3   6   2   7   3   9   3  10   3  14   2  15   2
M  RAD  8  18   2  19   2  20   2  21   2  24   2  25   2  26   2  27   2
M  RAD  1  28   2
M  END
>  <REMARK>  (1) 
 SMILES O=C(CSc1nc(Nc2ccccc2)c2ccccc2n1)NCC1CCCO1
 SMILES IDX 3 1 2 2 22 3 1 4 23 6 24 7 25 8 28 9 26 10 27 11 4 12 5 13
 SMILES IDX 6 14 21 15 7 16 20 17 15 18 19 19 16 20 18 21 17 22 8 23
 SMILES IDX 9 25 10 26 14 27 11 28 13 29 12 30
 H PARENT 22 5 8 24

>  <TORSDO>  (1) 
F 7

$$$$
