/home/pchatterjee/Documents/git/vs_workflow/DiffDock/diffdock_run/pdbqt_scrubbed/Z24682220.pdbqt
     RDKit          3D

 28 31  0  0  1  0  0  0  0  0999 V2000
    9.3046   45.9946   50.4950 C   0  0  0  0  0  2  0  0  0  0  0  0
    9.5818   45.6662   51.9361 C   0  0  0  0  0  0  0  0  0  0  0  0
    8.9145   46.3329   53.0011 N   0  0  0  0  0  0  0  0  0  0  0  0
   10.4446   44.7612   52.1235 O   0  0  0  0  0  0  0  0  0  0  0  0
    7.9215   47.3590   52.7529 C   0  0  0  0  0  2  0  0  0  0  0  0
    7.1908   47.6289   54.0249 C   0  0  0  0  0  3  0  0  0  0  0  0
    6.1660   46.5677   54.3621 C   0  0  0  0  0  2  0  0  0  0  0  0
    6.4546   48.8028   54.0041 O   0  0  0  0  0  0  0  0  0  0  0  0
    5.0163   47.3141   55.0079 C   0  0  0  0  0  2  0  0  0  0  0  0
    5.5221   48.7390   55.0088 C   0  0  0  0  0  2  0  0  0  0  0  0
    9.1806   44.4019   49.6430 S   0  0  0  0  0  0  0  0  0  0  0  0
    7.4866   43.8221   49.5512 C   0  0  0  0  0  0  0  0  0  0  0  0
    6.5168   44.3871   50.1559 N   0  0  0  0  0  0  0  0  0  0  0  0
    7.2335   42.6549   48.7460 N   0  0  0  0  0  2  0  0  0  0  0  0
    5.1415   43.9673   50.1186 C   0  0  0  0  0  3  0  0  0  0  0  0
    5.9344   42.1210   48.6105 C   0  0  0  0  0  0  0  0  0  0  0  0
    4.9125   42.7698   49.2867 C   0  0  0  0  0  0  0  0  0  0  0  0
    5.6208   41.0121   47.8602 C   0  0  0  0  0  3  0  0  0  0  0  0
    3.6208   42.2960   49.1938 C   0  0  0  0  0  3  0  0  0  0  0  0
    4.3289   40.5254   47.7581 C   0  0  0  0  0  3  0  0  0  0  0  0
    3.3321   41.1919   48.4421 C   0  0  0  0  0  3  0  0  0  0  0  0
    4.5250   43.8202   51.4039 N   0  0  0  0  0  0  0  0  0  0  0  0
    4.3610   44.8572   52.3420 C   0  0  0  0  0  0  0  0  0  0  0  0
    4.7381   44.6265   53.6401 C   0  0  0  0  0  3  0  0  0  0  0  0
    3.8398   46.0856   52.0088 C   0  0  0  0  0  3  0  0  0  0  0  0
    4.5781   45.6426   54.5651 C   0  0  0  0  0  3  0  0  0  0  0  0
    3.6829   47.0901   52.9288 C   0  0  0  0  0  3  0  0  0  0  0  0
    4.0565   46.8737   54.2355 C   0  0  0  0  0  3  0  0  0  0  0  0
  2  1  1  0
  2  4  2  0
  3  2  1  0
  5  3  1  0
  6  5  1  0
  6  7  1  0
  7  9  1  0
  8  6  1  0
  8 10  1  0
 10  9  1  0
 11 12  1  0
 11  1  1  0
 12 14  1  0
 13 15  1  0
 13 12  2  0
 14 16  1  0
 15 22  1  0
 15 17  1  0
 16 18  2  0
 17 19  2  0
 17 16  1  0
 18 20  1  0
 19 21  1  0
 21 20  2  0
 23 22  1  0
 24 23  2  0
 25 23  1  0
 26 24  1  0
 27 25  2  0
 28 26  2  0
 28 27  1  0
M  RAD  8   1   3   5   3   6   2   7   3   9   3  10   3  14   2  15   2
M  RAD  8  18   2  19   2  20   2  21   2  24   2  25   2  26   2  27   2
M  RAD  1  28   2
M  END
>  <REMARK>  (1) 
 SMILES O=C(CSc1nc(Nc2ccccc2)c2ccccc2n1)NCC1CCCO1
 SMILES IDX 3 1 2 2 22 3 1 4 23 6 24 7 25 8 28 9 26 10 27 11 4 12 5 13
 SMILES IDX 6 14 21 15 7 16 20 17 15 18 19 19 16 20 18 21 17 22 8 23
 SMILES IDX 9 25 10 26 14 27 11 28 13 29 12 30
 H PARENT 22 5 8 24

>  <TORSDO>  (1) 
F 7

$$$$
