/home/pchatterjee/Documents/git/vs_workflow/DiffDock/diffdock_run/pdbqt_scrubbed/123953120.pdbqt
     RDKit          3D

 25 28  0  0  1  0  0  0  0  0999 V2000
    7.4892   43.2756   50.1037 C   0  0  0  0  0  3  0  0  0  0  0  0
    8.8048   43.8060   49.9536 N   0  0  0  0  0  0  0  0  0  0  0  0
    9.1095   44.9478   50.4180 C   0  0  0  0  0  0  0  0  0  0  0  0
   10.3052   45.5977   50.3638 N   0  0  0  0  0  0  0  0  0  0  0  0
   10.2034   46.7762   50.9728 C   0  0  0  0  0  3  0  0  0  0  0  0
    8.9485   46.8930   51.4211 N   0  0  0  0  0  0  0  0  0  0  0  0
    8.2628   45.7940   51.0964 C   0  0  0  0  0  0  0  0  0  0  0  0
    7.0174   45.4438   51.3128 C   0  0  0  0  0  0  0  0  0  0  0  0
    6.6046   44.1715   50.8182 N   0  0  0  0  0  0  0  0  0  0  0  0
    6.9153   43.1665   48.7533 N   0  0  0  0  0  0  0  0  0  0  0  0
    5.7833   42.3482   48.4856 C   0  0  0  0  0  0  0  0  0  0  0  0
    3.6373   40.7836   47.9490 C   0  0  0  0  0  0  0  0  0  0  0  0
    4.6113   40.9252   46.9715 C   0  0  0  0  0  3  0  0  0  0  0  0
    3.7318   41.4062   49.1621 C   0  0  0  0  0  3  0  0  0  0  0  0
    5.6864   41.7164   47.2561 C   0  0  0  0  0  3  0  0  0  0  0  0
    4.8140   42.2065   49.4568 C   0  0  0  0  0  3  0  0  0  0  0  0
    2.5321   40.0081   47.7378 F   0  0  0  0  0  0  0  0  0  0  0  0
    6.0966   46.2097   51.9749 O   0  0  0  0  0  0  0  0  0  0  0  0
    4.7962   45.7273   52.1388 C   0  0  0  0  0  2  0  0  0  0  0  0
    3.7992   46.7687   52.6022 C   0  0  0  0  0  3  0  0  0  0  0  0
    4.2070   47.3844   53.9189 C   0  0  0  0  0  2  0  0  0  0  0  0
    2.5157   45.9775   52.8913 C   0  0  0  0  0  2  0  0  0  0  0  0
    4.5995   46.2260   54.8232 C   0  0  0  0  0  2  0  0  0  0  0  0
    3.0129   44.7369   53.6458 C   0  0  0  0  0  2  0  0  0  0  0  0
    3.4947   45.2210   54.9977 C   0  0  0  0  0  2  0  0  0  0  0  0
  1 10  1  0
  1  2  1  0
  2  3  2  0
  3  4  1  0
  5  4  2  0
  6  5  1  0
  7  6  1  0
  7  3  1  0
  8  7  2  0
  9  8  1  0
  9  1  1  0
 11 10  1  0
 11 16  2  0
 12 14  2  0
 13 15  2  0
 13 12  1  0
 14 16  1  0
 15 11  1  0
 17 12  1  0
 18  8  1  0
 19 18  1  0
 20 19  1  0
 21 20  1  0
 22 20  1  0
 23 21  1  0
 24 22  1  0
 25 23  1  0
 25 24  1  0
M  RAD  8   1   2   5   2  13   2  14   2  15   2  16   2  19   3  20   2
M  RAD  5  21   3  22   3  23   3  24   3  25   3
M  END
>  <REMARK>  (1) 
 SMILES Fc1ccc(Nc2nc3nc[nH]c3c(OCC3CCCCC3)[nH+]2)cc1
 SMILES IDX 7 1 8 2 9 3 10 4 11 5 12 6 13 7 14 8 23 9 6 12 5 14 2 15
 SMILES IDX 3 16 25 17 4 18 24 19 1 20 15 21 16 22 17 23 18 24 22 25
 SMILES IDX 19 26 21 27 20 28
 H PARENT 12 10 23 11 6 13

>  <TORSDO>  (1) 
F 5

$$$$
