/home/pchatterjee/Documents/git/vs_workflow/DiffDock/diffdock_run/pdbqt_scrubbed/123953120.pdbqt
     RDKit          3D

 25 28  0  0  1  0  0  0  0  0999 V2000
    7.4131   42.9498   50.1831 C   0  0  0  0  0  3  0  0  0  0  0  0
    8.7639   43.3719   50.0047 N   0  0  0  0  0  0  0  0  0  0  0  0
    9.1611   44.5001   50.4307 C   0  0  0  0  0  0  0  0  0  0  0  0
   10.4027   45.0535   50.3456 N   0  0  0  0  0  0  0  0  0  0  0  0
   10.3992   46.2541   50.9187 C   0  0  0  0  0  3  0  0  0  0  0  0
    9.1622   46.4814   51.3745 N   0  0  0  0  0  0  0  0  0  0  0  0
    8.3901   45.4295   51.0902 C   0  0  0  0  0  0  0  0  0  0  0  0
    7.1239   45.1836   51.3288 C   0  0  0  0  0  0  0  0  0  0  0  0
    6.6085   43.9328   50.8776 N   0  0  0  0  0  0  0  0  0  0  0  0
    6.8170   42.8448   48.8420 N   0  0  0  0  0  0  0  0  0  0  0  0
    5.6457   42.0747   48.6024 C   0  0  0  0  0  0  0  0  0  0  0  0
    3.4236   40.6016   48.1188 C   0  0  0  0  0  0  0  0  0  0  0  0
    4.3699   40.7182   47.1113 C   0  0  0  0  0  3  0  0  0  0  0  0
    3.5819   41.2042   49.3354 C   0  0  0  0  0  3  0  0  0  0  0  0
    5.4839   41.4633   47.3694 C   0  0  0  0  0  3  0  0  0  0  0  0
    4.7038   41.9580   49.6035 C   0  0  0  0  0  3  0  0  0  0  0  0
    2.2825   39.8725   47.9352 F   0  0  0  0  0  0  0  0  0  0  0  0
    6.2726   46.0381   51.9752 O   0  0  0  0  0  0  0  0  0  0  0  0
    4.9310   45.6817   52.1282 C   0  0  0  0  0  2  0  0  0  0  0  0
    4.0445   46.7973   52.6411 C   0  0  0  0  0  3  0  0  0  0  0  0
    4.3859   47.1722   54.0630 C   0  0  0  0  0  2  0  0  0  0  0  0
    2.6387   46.1829   52.6976 C   0  0  0  0  0  2  0  0  0  0  0  0
    4.5094   45.8627   54.8270 C   0  0  0  0  0  2  0  0  0  0  0  0
    2.8703   44.7956   53.3118 C   0  0  0  0  0  2  0  0  0  0  0  0
    3.2622   45.0256   54.7567 C   0  0  0  0  0  2  0  0  0  0  0  0
  1 10  1  0
  1  2  1  0
  2  3  2  0
  3  4  1  0
  5  4  2  0
  6  5  1  0
  7  6  1  0
  7  3  1  0
  8  7  2  0
  9  8  1  0
  9  1  1  0
 11 10  1  0
 11 16  2  0
 12 14  2  0
 13 15  2  0
 13 12  1  0
 14 16  1  0
 15 11  1  0
 17 12  1  0
 18  8  1  0
 19 18  1  0
 20 19  1  0
 21 20  1  0
 22 20  1  0
 23 21  1  0
 24 22  1  0
 25 23  1  0
 25 24  1  0
M  RAD  8   1   2   5   2  13   2  14   2  15   2  16   2  19   3  20   2
M  RAD  5  21   3  22   3  23   3  24   3  25   3
M  END
>  <REMARK>  (1) 
 SMILES Fc1ccc(Nc2nc3nc[nH]c3c(OCC3CCCCC3)[nH+]2)cc1
 SMILES IDX 7 1 8 2 9 3 10 4 11 5 12 6 13 7 14 8 23 9 6 12 5 14 2 15
 SMILES IDX 3 16 25 17 4 18 24 19 1 20 15 21 16 22 17 23 18 24 22 25
 SMILES IDX 19 26 21 27 20 28
 H PARENT 12 10 23 11 6 13

>  <TORSDO>  (1) 
F 5

$$$$
