/home/pchatterjee/Documents/git/vs_workflow/DiffDock/diffdock_run/pdbqt_scrubbed/123953120.pdbqt
     RDKit          3D

 25 28  0  0  1  0  0  0  0  0999 V2000
    7.5147   42.8486   50.1852 C   0  0  0  0  0  3  0  0  0  0  0  0
    8.8487   43.3488   50.1130 N   0  0  0  0  0  0  0  0  0  0  0  0
    9.1409   44.5051   50.5484 C   0  0  0  0  0  0  0  0  0  0  0  0
   10.3504   45.1311   50.5573 N   0  0  0  0  0  0  0  0  0  0  0  0
   10.2273   46.3377   51.1040 C   0  0  0  0  0  3  0  0  0  0  0  0
    8.9448   46.4966   51.4493 N   0  0  0  0  0  0  0  0  0  0  0  0
    8.2630   45.3960   51.1219 C   0  0  0  0  0  0  0  0  0  0  0  0
    6.9977   45.0776   51.2577 C   0  0  0  0  0  0  0  0  0  0  0  0
    6.5973   43.7914   50.7896 N   0  0  0  0  0  0  0  0  0  0  0  0
    7.0426   42.6879   48.8010 N   0  0  0  0  0  0  0  0  0  0  0  0
    5.8695   41.9454   48.4924 C   0  0  0  0  0  0  0  0  0  0  0  0
    3.6245   40.5359   47.9315 C   0  0  0  0  0  0  0  0  0  0  0  0
    3.7561   41.0910   49.1959 C   0  0  0  0  0  3  0  0  0  0  0  0
    4.5876   40.6803   46.9725 C   0  0  0  0  0  3  0  0  0  0  0  0
    4.8923   41.7982   49.4639 C   0  0  0  0  0  3  0  0  0  0  0  0
    5.7373   41.3928   47.2354 C   0  0  0  0  0  3  0  0  0  0  0  0
    2.5157   39.8145   47.5887 F   0  0  0  0  0  0  0  0  0  0  0  0
    6.0456   45.8887   51.8128 O   0  0  0  0  0  0  0  0  0  0  0  0
    4.6959   45.5652   51.6573 C   0  0  0  0  0  2  0  0  0  0  0  0
    4.1219   44.7293   52.7822 C   0  0  0  0  0  3  0  0  0  0  0  0
    2.6910   44.3333   52.5088 C   0  0  0  0  0  2  0  0  0  0  0  0
    4.0690   45.6803   53.9862 C   0  0  0  0  0  2  0  0  0  0  0  0
    1.9855   45.5967   52.0398 C   0  0  0  0  0  2  0  0  0  0  0  0
    3.5181   46.9860   53.3970 C   0  0  0  0  0  2  0  0  0  0  0  0
    2.0712   46.7182   53.0377 C   0  0  0  0  0  2  0  0  0  0  0  0
  1 10  1  0
  1  2  1  0
  2  3  2  0
  3  4  1  0
  5  4  2  0
  6  5  1  0
  7  6  1  0
  7  3  1  0
  8  7  2  0
  9  8  1  0
  9  1  1  0
 11 10  1  0
 11 16  2  0
 12 14  2  0
 13 15  2  0
 13 12  1  0
 14 16  1  0
 15 11  1  0
 17 12  1  0
 18  8  1  0
 19 18  1  0
 20 19  1  0
 21 20  1  0
 22 20  1  0
 23 21  1  0
 24 22  1  0
 25 23  1  0
 25 24  1  0
M  RAD  8   1   2   5   2  13   2  14   2  15   2  16   2  19   3  20   2
M  RAD  5  21   3  22   3  23   3  24   3  25   3
M  END
>  <REMARK>  (1) 
 SMILES Fc1ccc(Nc2nc3nc[nH]c3c(OCC3CCCCC3)[nH+]2)cc1
 SMILES IDX 7 1 8 2 9 3 10 4 11 5 12 6 13 7 14 8 23 9 6 12 5 14 2 15
 SMILES IDX 3 16 25 17 4 18 24 19 1 20 15 21 16 22 17 23 18 24 22 25
 SMILES IDX 19 26 21 27 20 28
 H PARENT 12 10 23 11 6 13

>  <TORSDO>  (1) 
F 5

$$$$
