/home/pchatterjee/Documents/git/vs_workflow/DiffDock/diffdock_run/pdbqt_scrubbed/123953120.pdbqt
     RDKit          3D

 25 28  0  0  1  0  0  0  0  0999 V2000
    7.6231   43.0072   50.0170 C   0  0  0  0  0  3  0  0  0  0  0  0
    8.9342   43.5274   49.8043 N   0  0  0  0  0  0  0  0  0  0  0  0
    9.2587   44.6814   50.2225 C   0  0  0  0  0  0  0  0  0  0  0  0
   10.4537   45.3245   50.1062 N   0  0  0  0  0  0  0  0  0  0  0  0
   10.3772   46.5213   50.6822 C   0  0  0  0  0  3  0  0  0  0  0  0
    9.1394   46.6569   51.1708 N   0  0  0  0  0  0  0  0  0  0  0  0
    8.4392   45.5514   50.9043 C   0  0  0  0  0  0  0  0  0  0  0  0
    7.2012   45.2131   51.1754 C   0  0  0  0  0  0  0  0  0  0  0  0
    6.7671   43.9281   50.7347 N   0  0  0  0  0  0  0  0  0  0  0  0
    7.0013   42.8594   48.6918 N   0  0  0  0  0  0  0  0  0  0  0  0
    5.8939   41.9931   48.4776 C   0  0  0  0  0  0  0  0  0  0  0  0
    3.7743   40.3489   48.0966 C   0  0  0  0  0  0  0  0  0  0  0  0
    3.8852   41.0117   49.3100 C   0  0  0  0  0  3  0  0  0  0  0  0
    4.6967   40.5025   47.0997 C   0  0  0  0  0  3  0  0  0  0  0  0
    4.9580   41.8365   49.4875 C   0  0  0  0  0  3  0  0  0  0  0  0
    5.7825   41.3333   47.2713 C   0  0  0  0  0  3  0  0  0  0  0  0
    2.7282   39.5065   47.8447 F   0  0  0  0  0  0  0  0  0  0  0  0
    6.3069   46.0026   51.8460 O   0  0  0  0  0  0  0  0  0  0  0  0
    4.9731   45.5989   51.9388 C   0  0  0  0  0  2  0  0  0  0  0  0
    4.0398   46.6548   52.4933 C   0  0  0  0  0  3  0  0  0  0  0  0
    4.3429   46.9634   53.9396 C   0  0  0  0  0  2  0  0  0  0  0  0
    2.6552   45.9915   52.4895 C   0  0  0  0  0  2  0  0  0  0  0  0
    4.4980   45.6192   54.6346 C   0  0  0  0  0  2  0  0  0  0  0  0
    2.9237   44.5815   53.0329 C   0  0  0  0  0  2  0  0  0  0  0  0
    3.2819   44.7459   54.4953 C   0  0  0  0  0  2  0  0  0  0  0  0
  1 10  1  0
  1  2  1  0
  2  3  2  0
  3  4  1  0
  5  4  2  0
  6  5  1  0
  7  6  1  0
  7  3  1  0
  8  7  2  0
  9  8  1  0
  9  1  1  0
 11 10  1  0
 11 16  2  0
 12 14  2  0
 13 15  2  0
 13 12  1  0
 14 16  1  0
 15 11  1  0
 17 12  1  0
 18  8  1  0
 19 18  1  0
 20 19  1  0
 21 20  1  0
 22 20  1  0
 23 21  1  0
 24 22  1  0
 25 23  1  0
 25 24  1  0
M  RAD  8   1   2   5   2  13   2  14   2  15   2  16   2  19   3  20   2
M  RAD  5  21   3  22   3  23   3  24   3  25   3
M  END
>  <REMARK>  (1) 
 SMILES Fc1ccc(Nc2nc3nc[nH]c3c(OCC3CCCCC3)[nH+]2)cc1
 SMILES IDX 7 1 8 2 9 3 10 4 11 5 12 6 13 7 14 8 23 9 6 12 5 14 2 15
 SMILES IDX 3 16 25 17 4 18 24 19 1 20 15 21 16 22 17 23 18 24 22 25
 SMILES IDX 19 26 21 27 20 28
 H PARENT 12 10 23 11 6 13

>  <TORSDO>  (1) 
F 5

$$$$
