/home/pchatterjee/Documents/git/vs_workflow/DiffDock/diffdock_run/pdbqt_scrubbed/123953120.pdbqt
     RDKit          3D

 25 28  0  0  1  0  0  0  0  0999 V2000
    7.5859   43.1098   50.2432 C   0  0  0  0  0  3  0  0  0  0  0  0
    8.9394   43.5478   50.1392 N   0  0  0  0  0  0  0  0  0  0  0  0
    9.2811   44.7163   50.4996 C   0  0  0  0  0  0  0  0  0  0  0  0
   10.5159   45.2901   50.4684 N   0  0  0  0  0  0  0  0  0  0  0  0
   10.4450   46.5334   50.9366 C   0  0  0  0  0  3  0  0  0  0  0  0
    9.1711   46.7679   51.2709 N   0  0  0  0  0  0  0  0  0  0  0  0
    8.4429   45.6782   51.0147 C   0  0  0  0  0  0  0  0  0  0  0  0
    7.1658   45.4227   51.1706 C   0  0  0  0  0  0  0  0  0  0  0  0
    6.7104   44.1271   50.7859 N   0  0  0  0  0  0  0  0  0  0  0  0
    7.1037   42.8807   48.8722 N   0  0  0  0  0  0  0  0  0  0  0  0
    5.9337   42.1164   48.6087 C   0  0  0  0  0  0  0  0  0  0  0  0
    3.6943   40.6671   48.1333 C   0  0  0  0  0  0  0  0  0  0  0  0
    3.8176   41.3083   49.3571 C   0  0  0  0  0  3  0  0  0  0  0  0
    4.6628   40.7470   47.1722 C   0  0  0  0  0  3  0  0  0  0  0  0
    4.9510   42.0346   49.5823 C   0  0  0  0  0  3  0  0  0  0  0  0
    5.8098   41.4782   47.3920 C   0  0  0  0  0  3  0  0  0  0  0  0
    2.5886   39.9216   47.8346 F   0  0  0  0  0  0  0  0  0  0  0  0
    6.2499   46.3070   51.6725 O   0  0  0  0  0  0  0  0  0  0  0  0
    5.0139   45.8332   52.1175 C   0  0  0  0  0  2  0  0  0  0  0  0
    4.3674   46.6882   53.1875 C   0  0  0  0  0  3  0  0  0  0  0  0
    4.3323   45.9811   54.5208 C   0  0  0  0  0  2  0  0  0  0  0  0
    2.9027   46.8215   52.7472 C   0  0  0  0  0  2  0  0  0  0  0  0
    3.8285   44.5737   54.2394 C   0  0  0  0  0  2  0  0  0  0  0  0
    2.5220   45.4010   52.3081 C   0  0  0  0  0  2  0  0  0  0  0  0
    2.4840   44.5584   53.5662 C   0  0  0  0  0  2  0  0  0  0  0  0
  1 10  1  0
  1  2  1  0
  2  3  2  0
  3  4  1  0
  5  4  2  0
  6  5  1  0
  7  6  1  0
  7  3  1  0
  8  7  2  0
  9  8  1  0
  9  1  1  0
 11 10  1  0
 11 16  2  0
 12 14  2  0
 13 15  2  0
 13 12  1  0
 14 16  1  0
 15 11  1  0
 17 12  1  0
 18  8  1  0
 19 18  1  0
 20 19  1  0
 21 20  1  0
 22 20  1  0
 23 21  1  0
 24 22  1  0
 25 23  1  0
 25 24  1  0
M  RAD  8   1   2   5   2  13   2  14   2  15   2  16   2  19   3  20   2
M  RAD  5  21   3  22   3  23   3  24   3  25   3
M  END
>  <REMARK>  (1) 
 SMILES Fc1ccc(Nc2nc3nc[nH]c3c(OCC3CCCCC3)[nH+]2)cc1
 SMILES IDX 7 1 8 2 9 3 10 4 11 5 12 6 13 7 14 8 23 9 6 12 5 14 2 15
 SMILES IDX 3 16 25 17 4 18 24 19 1 20 15 21 16 22 17 23 18 24 22 25
 SMILES IDX 19 26 21 27 20 28
 H PARENT 12 10 23 11 6 13

>  <TORSDO>  (1) 
F 5

$$$$
