/home/pchatterjee/Documents/git/vs_workflow/DiffDock/diffdock_run/pdbqt_scrubbed/123953120.pdbqt
     RDKit          3D

 25 28  0  0  1  0  0  0  0  0999 V2000
    7.6414   43.0370   50.1423 C   0  0  0  0  0  3  0  0  0  0  0  0
    8.9696   43.5404   50.0110 N   0  0  0  0  0  0  0  0  0  0  0  0
    9.2889   44.6792   50.4728 C   0  0  0  0  0  0  0  0  0  0  0  0
   10.4979   45.3052   50.4346 N   0  0  0  0  0  0  0  0  0  0  0  0
   10.4091   46.4897   51.0338 C   0  0  0  0  0  3  0  0  0  0  0  0
    9.1494   46.6343   51.4598 N   0  0  0  0  0  0  0  0  0  0  0  0
    8.4477   45.5467   51.1309 C   0  0  0  0  0  0  0  0  0  0  0  0
    7.1921   45.2226   51.3286 C   0  0  0  0  0  0  0  0  0  0  0  0
    6.7627   43.9552   50.8356 N   0  0  0  0  0  0  0  0  0  0  0  0
    7.0884   42.9296   48.7831 N   0  0  0  0  0  0  0  0  0  0  0  0
    5.9044   42.1892   48.5138 C   0  0  0  0  0  0  0  0  0  0  0  0
    3.6372   40.7880   48.0261 C   0  0  0  0  0  0  0  0  0  0  0  0
    3.7211   41.5182   49.2024 C   0  0  0  0  0  3  0  0  0  0  0  0
    4.6576   40.7578   47.1172 C   0  0  0  0  0  3  0  0  0  0  0  0
    4.8690   42.2190   49.4344 C   0  0  0  0  0  3  0  0  0  0  0  0
    5.8196   41.4626   47.3442 C   0  0  0  0  0  3  0  0  0  0  0  0
    2.5200   40.0613   47.7239 F   0  0  0  0  0  0  0  0  0  0  0  0
    6.2756   46.0110   51.9697 O   0  0  0  0  0  0  0  0  0  0  0  0
    4.9385   45.6102   52.0117 C   0  0  0  0  0  2  0  0  0  0  0  0
    3.9783   46.6898   52.4656 C   0  0  0  0  0  3  0  0  0  0  0  0
    4.1784   47.0385   53.9207 C   0  0  0  0  0  2  0  0  0  0  0  0
    2.5908   46.0382   52.3796 C   0  0  0  0  0  2  0  0  0  0  0  0
    4.2682   45.7142   54.6638 C   0  0  0  0  0  2  0  0  0  0  0  0
    2.8041   44.6427   52.9817 C   0  0  0  0  0  2  0  0  0  0  0  0
    3.0564   44.8474   54.4611 C   0  0  0  0  0  2  0  0  0  0  0  0
  1 10  1  0
  1  2  1  0
  2  3  2  0
  3  4  1  0
  5  4  2  0
  6  5  1  0
  7  6  1  0
  7  3  1  0
  8  7  2  0
  9  8  1  0
  9  1  1  0
 11 10  1  0
 11 16  2  0
 12 14  2  0
 13 15  2  0
 13 12  1  0
 14 16  1  0
 15 11  1  0
 17 12  1  0
 18  8  1  0
 19 18  1  0
 20 19  1  0
 21 20  1  0
 22 20  1  0
 23 21  1  0
 24 22  1  0
 25 23  1  0
 25 24  1  0
M  RAD  8   1   2   5   2  13   2  14   2  15   2  16   2  19   3  20   2
M  RAD  5  21   3  22   3  23   3  24   3  25   3
M  END
>  <REMARK>  (1) 
 SMILES Fc1ccc(Nc2nc3nc[nH]c3c(OCC3CCCCC3)[nH+]2)cc1
 SMILES IDX 7 1 8 2 9 3 10 4 11 5 12 6 13 7 14 8 23 9 6 12 5 14 2 15
 SMILES IDX 3 16 25 17 4 18 24 19 1 20 15 21 16 22 17 23 18 24 22 25
 SMILES IDX 19 26 21 27 20 28
 H PARENT 12 10 23 11 6 13

>  <TORSDO>  (1) 
F 5

$$$$
