/home/pchatterjee/Documents/git/vs_workflow/DiffDock/diffdock_run/pdbqt_scrubbed/123953120.pdbqt
     RDKit          3D

 25 28  0  0  1  0  0  0  0  0999 V2000
    7.5765   42.8970   50.1751 C   0  0  0  0  0  3  0  0  0  0  0  0
    8.9207   43.3506   50.0259 N   0  0  0  0  0  0  0  0  0  0  0  0
    9.2888   44.4758   50.4846 C   0  0  0  0  0  0  0  0  0  0  0  0
   10.5198   45.0561   50.4303 N   0  0  0  0  0  0  0  0  0  0  0  0
   10.4839   46.2420   51.0321 C   0  0  0  0  0  3  0  0  0  0  0  0
    9.2364   46.4330   51.4759 N   0  0  0  0  0  0  0  0  0  0  0  0
    8.4900   45.3731   51.1554 C   0  0  0  0  0  0  0  0  0  0  0  0
    7.2260   45.0959   51.3702 C   0  0  0  0  0  0  0  0  0  0  0  0
    6.7425   43.8463   50.8817 N   0  0  0  0  0  0  0  0  0  0  0  0
    7.0010   42.8128   48.8236 N   0  0  0  0  0  0  0  0  0  0  0  0
    5.8070   42.0853   48.5631 C   0  0  0  0  0  0  0  0  0  0  0  0
    3.5224   40.7064   48.0937 C   0  0  0  0  0  0  0  0  0  0  0  0
    3.6719   41.3371   49.3200 C   0  0  0  0  0  3  0  0  0  0  0  0
    4.4873   40.7623   47.1272 C   0  0  0  0  0  3  0  0  0  0  0  0
    4.8279   42.0278   49.5422 C   0  0  0  0  0  3  0  0  0  0  0  0
    5.6570   41.4576   47.3440 C   0  0  0  0  0  3  0  0  0  0  0  0
    2.3931   39.9960   47.7978 F   0  0  0  0  0  0  0  0  0  0  0  0
    6.3487   45.9170   52.0249 O   0  0  0  0  0  0  0  0  0  0  0  0
    4.9936   45.5809   52.0609 C   0  0  0  0  0  2  0  0  0  0  0  0
    4.0894   46.6906   52.5553 C   0  0  0  0  0  3  0  0  0  0  0  0
    4.3256   46.9941   54.0151 C   0  0  0  0  0  2  0  0  0  0  0  0
    2.6730   46.1037   52.4750 C   0  0  0  0  0  2  0  0  0  0  0  0
    4.3667   45.6493   54.7247 C   0  0  0  0  0  2  0  0  0  0  0  0
    2.8321   44.6856   53.0402 C   0  0  0  0  0  2  0  0  0  0  0  0
    3.1145   44.8424   54.5200 C   0  0  0  0  0  2  0  0  0  0  0  0
  1 10  1  0
  1  2  1  0
  2  3  2  0
  3  4  1  0
  5  4  2  0
  6  5  1  0
  7  6  1  0
  7  3  1  0
  8  7  2  0
  9  8  1  0
  9  1  1  0
 11 10  1  0
 11 16  2  0
 12 14  2  0
 13 15  2  0
 13 12  1  0
 14 16  1  0
 15 11  1  0
 17 12  1  0
 18  8  1  0
 19 18  1  0
 20 19  1  0
 21 20  1  0
 22 20  1  0
 23 21  1  0
 24 22  1  0
 25 23  1  0
 25 24  1  0
M  RAD  8   1   2   5   2  13   2  14   2  15   2  16   2  19   3  20   2
M  RAD  5  21   3  22   3  23   3  24   3  25   3
M  END
>  <REMARK>  (1) 
 SMILES Fc1ccc(Nc2nc3nc[nH]c3c(OCC3CCCCC3)[nH+]2)cc1
 SMILES IDX 7 1 8 2 9 3 10 4 11 5 12 6 13 7 14 8 23 9 6 12 5 14 2 15
 SMILES IDX 3 16 25 17 4 18 24 19 1 20 15 21 16 22 17 23 18 24 22 25
 SMILES IDX 19 26 21 27 20 28
 H PARENT 12 10 23 11 6 13

>  <TORSDO>  (1) 
F 5

$$$$
