/home/pchatterjee/Documents/git/vs_workflow/DiffDock/diffdock_run/pdbqt_scrubbed/123953120.pdbqt
     RDKit          3D

 25 28  0  0  1  0  0  0  0  0999 V2000
    7.5069   42.8326   50.2670 C   0  0  0  0  0  3  0  0  0  0  0  0
    8.8686   43.2348   50.1310 N   0  0  0  0  0  0  0  0  0  0  0  0
    9.2726   44.3494   50.5855 C   0  0  0  0  0  0  0  0  0  0  0  0
   10.5248   44.8833   50.5421 N   0  0  0  0  0  0  0  0  0  0  0  0
   10.5256   46.0747   51.1342 C   0  0  0  0  0  3  0  0  0  0  0  0
    9.2808   46.3153   51.5608 N   0  0  0  0  0  0  0  0  0  0  0  0
    8.4995   45.2811   51.2394 C   0  0  0  0  0  0  0  0  0  0  0  0
    7.2236   45.0526   51.4405 C   0  0  0  0  0  0  0  0  0  0  0  0
    6.7001   43.8178   50.9557 N   0  0  0  0  0  0  0  0  0  0  0  0
    6.9451   42.7585   48.9091 N   0  0  0  0  0  0  0  0  0  0  0  0
    5.7348   42.0630   48.6373 C   0  0  0  0  0  0  0  0  0  0  0  0
    3.4194   40.7440   48.1467 C   0  0  0  0  0  0  0  0  0  0  0  0
    3.5956   41.3259   49.3934 C   0  0  0  0  0  3  0  0  0  0  0  0
    4.3733   40.8184   47.1706 C   0  0  0  0  0  3  0  0  0  0  0  0
    4.7668   41.9869   49.6261 C   0  0  0  0  0  3  0  0  0  0  0  0
    5.5583   41.4839   47.3978 C   0  0  0  0  0  3  0  0  0  0  0  0
    2.2736   40.0657   47.8392 F   0  0  0  0  0  0  0  0  0  0  0  0
    6.3694   45.9109   52.0779 O   0  0  0  0  0  0  0  0  0  0  0  0
    5.0115   45.5936   52.1546 C   0  0  0  0  0  2  0  0  0  0  0  0
    4.1347   46.7237   52.6523 C   0  0  0  0  0  3  0  0  0  0  0  0
    4.3671   47.0065   54.1169 C   0  0  0  0  0  2  0  0  0  0  0  0
    2.7031   46.1777   52.5548 C   0  0  0  0  0  2  0  0  0  0  0  0
    4.3642   45.6543   54.8138 C   0  0  0  0  0  2  0  0  0  0  0  0
    2.8174   44.7505   53.1074 C   0  0  0  0  0  2  0  0  0  0  0  0
    3.0915   44.8851   54.5909 C   0  0  0  0  0  2  0  0  0  0  0  0
  1 10  1  0
  1  2  1  0
  2  3  2  0
  3  4  1  0
  5  4  2  0
  6  5  1  0
  7  6  1  0
  7  3  1  0
  8  7  2  0
  9  8  1  0
  9  1  1  0
 11 10  1  0
 11 16  2  0
 12 14  2  0
 13 15  2  0
 13 12  1  0
 14 16  1  0
 15 11  1  0
 17 12  1  0
 18  8  1  0
 19 18  1  0
 20 19  1  0
 21 20  1  0
 22 20  1  0
 23 21  1  0
 24 22  1  0
 25 23  1  0
 25 24  1  0
M  RAD  8   1   2   5   2  13   2  14   2  15   2  16   2  19   3  20   2
M  RAD  5  21   3  22   3  23   3  24   3  25   3
M  END
>  <REMARK>  (1) 
 SMILES Fc1ccc(Nc2nc3nc[nH]c3c(OCC3CCCCC3)[nH+]2)cc1
 SMILES IDX 7 1 8 2 9 3 10 4 11 5 12 6 13 7 14 8 23 9 6 12 5 14 2 15
 SMILES IDX 3 16 25 17 4 18 24 19 1 20 15 21 16 22 17 23 18 24 22 25
 SMILES IDX 19 26 21 27 20 28
 H PARENT 12 10 23 11 6 13

>  <TORSDO>  (1) 
F 5

$$$$
