/home/pchatterjee/Documents/git/vs_workflow/DiffDock/diffdock_run/pdbqt_scrubbed/123953120.pdbqt
     RDKit          3D

 25 28  0  0  1  0  0  0  0  0999 V2000
    7.4948   42.9987   50.2379 C   0  0  0  0  0  3  0  0  0  0  0  0
    8.8492   43.4238   50.0976 N   0  0  0  0  0  0  0  0  0  0  0  0
    9.2372   44.5424   50.5559 C   0  0  0  0  0  0  0  0  0  0  0  0
   10.4804   45.0968   50.5093 N   0  0  0  0  0  0  0  0  0  0  0  0
   10.4647   46.2850   51.1076 C   0  0  0  0  0  3  0  0  0  0  0  0
    9.2183   46.5031   51.5415 N   0  0  0  0  0  0  0  0  0  0  0  0
    8.4523   45.4580   51.2183 C   0  0  0  0  0  0  0  0  0  0  0  0
    7.1812   45.2078   51.4243 C   0  0  0  0  0  0  0  0  0  0  0  0
    6.6755   43.9671   50.9356 N   0  0  0  0  0  0  0  0  0  0  0  0
    6.9277   42.9226   48.8823 N   0  0  0  0  0  0  0  0  0  0  0  0
    5.7631   42.1565   48.6007 C   0  0  0  0  0  0  0  0  0  0  0  0
    3.5540   40.6924   48.0369 C   0  0  0  0  0  0  0  0  0  0  0  0
    4.5024   40.8661   47.0397 C   0  0  0  0  0  3  0  0  0  0  0  0
    3.7040   41.2350   49.2825 C   0  0  0  0  0  3  0  0  0  0  0  0
    5.6098   41.6058   47.3383 C   0  0  0  0  0  3  0  0  0  0  0  0
    4.8191   41.9830   49.5916 C   0  0  0  0  0  3  0  0  0  0  0  0
    2.4192   39.9647   47.8135 F   0  0  0  0  0  0  0  0  0  0  0  0
    6.3164   46.0488   52.0703 O   0  0  0  0  0  0  0  0  0  0  0  0
    4.9758   45.6809   52.2040 C   0  0  0  0  0  2  0  0  0  0  0  0
    4.0736   46.7871   52.7099 C   0  0  0  0  0  3  0  0  0  0  0  0
    4.3163   47.0808   54.1707 C   0  0  0  0  0  2  0  0  0  0  0  0
    2.6570   46.2004   52.6321 C   0  0  0  0  0  2  0  0  0  0  0  0
    4.3608   45.7313   54.8711 C   0  0  0  0  0  2  0  0  0  0  0  0
    2.8188   44.7787   53.1870 C   0  0  0  0  0  2  0  0  0  0  0  0
    3.1078   44.9255   54.6666 C   0  0  0  0  0  2  0  0  0  0  0  0
  1 10  1  0
  1  2  1  0
  2  3  2  0
  3  4  1  0
  5  4  2  0
  6  5  1  0
  7  6  1  0
  7  3  1  0
  8  7  2  0
  9  8  1  0
  9  1  1  0
 11 10  1  0
 11 16  2  0
 12 14  2  0
 13 15  2  0
 13 12  1  0
 14 16  1  0
 15 11  1  0
 17 12  1  0
 18  8  1  0
 19 18  1  0
 20 19  1  0
 21 20  1  0
 22 20  1  0
 23 21  1  0
 24 22  1  0
 25 23  1  0
 25 24  1  0
M  RAD  8   1   2   5   2  13   2  14   2  15   2  16   2  19   3  20   2
M  RAD  5  21   3  22   3  23   3  24   3  25   3
M  END
>  <REMARK>  (1) 
 SMILES Fc1ccc(Nc2nc3nc[nH]c3c(OCC3CCCCC3)[nH+]2)cc1
 SMILES IDX 7 1 8 2 9 3 10 4 11 5 12 6 13 7 14 8 23 9 6 12 5 14 2 15
 SMILES IDX 3 16 25 17 4 18 24 19 1 20 15 21 16 22 17 23 18 24 22 25
 SMILES IDX 19 26 21 27 20 28
 H PARENT 12 10 23 11 6 13

>  <TORSDO>  (1) 
F 5

$$$$
