/home/pchatterjee/Documents/git/vs_workflow/DiffDock/diffdock_run/pdbqt_scrubbed/123953120.pdbqt
     RDKit          3D

 25 28  0  0  1  0  0  0  0  0999 V2000
    7.5087   43.0017   49.9926 C   0  0  0  0  0  3  0  0  0  0  0  0
    8.7907   43.6076   49.8367 N   0  0  0  0  0  0  0  0  0  0  0  0
    9.0479   44.7411   50.3478 C   0  0  0  0  0  0  0  0  0  0  0  0
   10.2064   45.4554   50.2962 N   0  0  0  0  0  0  0  0  0  0  0  0
   10.0597   46.5971   50.9632 C   0  0  0  0  0  3  0  0  0  0  0  0
    8.8127   46.6262   51.4464 N   0  0  0  0  0  0  0  0  0  0  0  0
    8.1766   45.5087   51.0859 C   0  0  0  0  0  0  0  0  0  0  0  0
    6.9571   45.0832   51.3151 C   0  0  0  0  0  0  0  0  0  0  0  0
    6.5980   43.8152   50.7701 N   0  0  0  0  0  0  0  0  0  0  0  0
    6.9059   42.9253   48.6526 N   0  0  0  0  0  0  0  0  0  0  0  0
    5.7558   42.1296   48.3943 C   0  0  0  0  0  0  0  0  0  0  0  0
    3.5747   40.6081   47.8751 C   0  0  0  0  0  0  0  0  0  0  0  0
    4.5347   40.7450   46.8832 C   0  0  0  0  0  3  0  0  0  0  0  0
    3.6998   41.2144   49.0937 C   0  0  0  0  0  3  0  0  0  0  0  0
    5.6277   41.5144   47.1591 C   0  0  0  0  0  3  0  0  0  0  0  0
    4.8003   41.9926   49.3798 C   0  0  0  0  0  3  0  0  0  0  0  0
    2.4531   39.8541   47.6732 F   0  0  0  0  0  0  0  0  0  0  0  0
    6.0157   45.7675   52.0349 O   0  0  0  0  0  0  0  0  0  0  0  0
    4.7055   45.2860   52.0799 C   0  0  0  0  0  2  0  0  0  0  0  0
    3.6965   46.1568   51.3609 C   0  0  0  0  0  3  0  0  0  0  0  0
    3.4391   47.4441   52.1063 C   0  0  0  0  0  2  0  0  0  0  0  0
    2.3822   45.3662   51.4273 C   0  0  0  0  0  2  0  0  0  0  0  0
    3.2337   47.0551   53.5624 C   0  0  0  0  0  2  0  0  0  0  0  0
    2.3355   44.8551   52.8737 C   0  0  0  0  0  2  0  0  0  0  0  0
    2.1139   46.0695   53.7513 C   0  0  0  0  0  2  0  0  0  0  0  0
  1 10  1  0
  1  2  1  0
  2  3  2  0
  3  4  1  0
  5  4  2  0
  6  5  1  0
  7  6  1  0
  7  3  1  0
  8  7  2  0
  9  8  1  0
  9  1  1  0
 11 10  1  0
 11 16  2  0
 12 14  2  0
 13 15  2  0
 13 12  1  0
 14 16  1  0
 15 11  1  0
 17 12  1  0
 18  8  1  0
 19 18  1  0
 20 19  1  0
 21 20  1  0
 22 20  1  0
 23 21  1  0
 24 22  1  0
 25 23  1  0
 25 24  1  0
M  RAD  8   1   2   5   2  13   2  14   2  15   2  16   2  19   3  20   2
M  RAD  5  21   3  22   3  23   3  24   3  25   3
M  END
>  <REMARK>  (1) 
 SMILES Fc1ccc(Nc2nc3nc[nH]c3c(OCC3CCCCC3)[nH+]2)cc1
 SMILES IDX 7 1 8 2 9 3 10 4 11 5 12 6 13 7 14 8 23 9 6 12 5 14 2 15
 SMILES IDX 3 16 25 17 4 18 24 19 1 20 15 21 16 22 17 23 18 24 22 25
 SMILES IDX 19 26 21 27 20 28
 H PARENT 12 10 23 11 6 13

>  <TORSDO>  (1) 
F 5

$$$$
