/home/pchatterjee/Documents/git/vs_workflow/DiffDock/diffdock_run/pdbqt_scrubbed/5329556.pdbqt
     RDKit          3D

 26 29  0  0  1  0  0  0  0  0999 V2000
    7.6926   43.3030   49.4939 C   0  0  0  0  0  0  0  0  0  0  0  0
    6.6181   43.9417   50.1885 N   0  0  0  0  0  0  0  0  0  0  0  0
    6.7983   45.0198   50.9156 C   0  0  0  0  0  0  0  0  0  0  0  0
    8.0987   45.5838   50.9980 C   0  0  0  0  0  3  0  0  0  0  0  0
    8.6249   46.1730   52.1587 N   0  0  0  0  0  0  0  0  0  0  0  0
    9.9210   46.6705   51.6017 C   0  0  0  0  0  2  0  0  0  0  0  0
   10.2847   45.5520   50.7030 N   0  0  0  0  0  0  0  0  0  0  0  0
    9.2207   44.9101   50.3484 C   0  0  0  0  0  0  0  0  0  0  0  0
    8.9228   43.7573   49.5604 N   0  0  0  0  0  0  0  0  0  0  0  0
    7.4053   42.1361   48.7071 N   0  0  0  0  0  0  0  0  0  0  0  0
    6.0536   41.7111   48.5718 C   0  0  0  0  0  0  0  0  0  0  0  0
    3.7748   42.0624   49.2772 C   0  0  0  0  0  0  0  0  0  0  0  0
    3.3710   41.0422   48.4560 C   0  0  0  0  0  3  0  0  0  0  0  0
    5.1057   42.3804   49.3226 C   0  0  0  0  0  3  0  0  0  0  0  0
    4.2995   40.3571   47.6947 C   0  0  0  0  0  3  0  0  0  0  0  0
    5.6530   40.6894   47.7486 C   0  0  0  0  0  3  0  0  0  0  0  0
    2.8249   42.7413   50.0368 O   0  0  0  0  0  0  0  0  0  0  0  0
    2.0023   42.1047   50.9875 C   0  0  0  0  0  1  0  0  0  0  0  0
    5.7180   45.5736   51.5647 O   0  0  0  0  0  0  0  0  0  0  0  0
    4.4515   44.9513   51.4026 C   0  0  0  0  0  2  0  0  0  0  0  0
    3.5493   45.1556   52.5740 C   0  0  0  0  0  3  0  0  0  0  0  0
    4.3798   45.3698   53.8052 C   0  0  0  0  0  2  0  0  0  0  0  0
    2.4901   46.1833   52.3506 C   0  0  0  0  0  2  0  0  0  0  0  0
    3.5787   45.5948   55.0438 C   0  0  0  0  0  2  0  0  0  0  0  0
    2.2572   47.0544   53.5693 C   0  0  0  0  0  2  0  0  0  0  0  0
    2.2022   46.1396   54.7739 C   0  0  0  0  0  2  0  0  0  0  0  0
  1  2  1  0
  2  3  2  0
  3 19  1  0
  4  8  1  0
  4  5  1  0
  4  3  1  0
  6  5  1  0
  7  8  2  0
  7  6  1  0
  9  8  1  0
  9  1  2  0
 10 11  1  0
 10  1  1  0
 11 16  1  0
 12 13  2  0
 13 15  1  0
 14 12  1  0
 14 11  2  0
 16 15  2  0
 17 18  1  0
 17 12  1  0
 19 20  1  0
 20 21  1  0
 21 22  1  0
 22 24  1  0
 23 21  1  0
 23 25  1  0
 24 26  1  0
 25 26  1  0
M  RAD  8   4   2   6   3  13   2  14   2  15   2  16   2  18   2  20   3
M  RAD  6  21   2  22   3  23   3  24   3  25   3  26   3
M  END
>  <REMARK>  (1) 
 SMILES COc1cccc(Nc2nc(OCC3CCCCC3)c3[nH]cnc3n2)c1
 SMILES IDX 9 1 10 2 11 3 20 4 21 5 22 6 23 7 24 8 25 9 8 11 7 13 3 14
 SMILES IDX 4 15 26 16 5 17 6 18 2 19 1 20 12 21 13 22 14 23 15 24 19 25
 SMILES IDX 16 26 18 27 17 28
 H PARENT 21 10 8 12

>  <TORSDO>  (1) 
F 6

$$$$
