/home/pchatterjee/Documents/git/vs_workflow/DiffDock/diffdock_run/pdbqt_scrubbed/5329556.pdbqt
     RDKit          3D

 26 29  0  0  1  0  0  0  0  0999 V2000
    7.6869   43.2384   49.4409 C   0  0  0  0  0  0  0  0  0  0  0  0
    6.7342   44.0425   50.1416 N   0  0  0  0  0  0  0  0  0  0  0  0
    7.0898   45.0851   50.8557 C   0  0  0  0  0  0  0  0  0  0  0  0
    8.4632   45.4398   50.9173 C   0  0  0  0  0  3  0  0  0  0  0  0
    9.0899   45.9490   52.0660 N   0  0  0  0  0  0  0  0  0  0  0  0
   10.4404   46.2337   51.4890 C   0  0  0  0  0  2  0  0  0  0  0  0
   10.6135   45.0650   50.5974 N   0  0  0  0  0  0  0  0  0  0  0  0
    9.4579   44.5941   50.2616 C   0  0  0  0  0  0  0  0  0  0  0  0
    8.9736   43.4956   49.4886 N   0  0  0  0  0  0  0  0  0  0  0  0
    7.2110   42.1243   48.6692 N   0  0  0  0  0  0  0  0  0  0  0  0
    5.8372   41.7617   48.7560 C   0  0  0  0  0  0  0  0  0  0  0  0
    3.8786   41.0686   47.5323 C   0  0  0  0  0  0  0  0  0  0  0  0
    3.1694   41.0288   48.7044 C   0  0  0  0  0  3  0  0  0  0  0  0
    5.1976   41.4333   47.5757 C   0  0  0  0  0  3  0  0  0  0  0  0
    3.7861   41.3527   49.8985 C   0  0  0  0  0  3  0  0  0  0  0  0
    5.1304   41.7229   49.9312 C   0  0  0  0  0  3  0  0  0  0  0  0
    3.2404   40.7388   46.3390 O   0  0  0  0  0  0  0  0  0  0  0  0
    3.8291   40.9314   45.0732 C   0  0  0  0  0  1  0  0  0  0  0  0
    6.1176   45.8058   51.5118 O   0  0  0  0  0  0  0  0  0  0  0  0
    4.8187   45.2394   51.6090 C   0  0  0  0  0  2  0  0  0  0  0  0
    4.0282   45.7902   52.7490 C   0  0  0  0  0  3  0  0  0  0  0  0
    2.5679   45.7382   52.4078 C   0  0  0  0  0  2  0  0  0  0  0  0
    4.3801   45.1968   54.0726 C   0  0  0  0  0  2  0  0  0  0  0  0
    1.6760   46.2586   53.4849 C   0  0  0  0  0  2  0  0  0  0  0  0
    3.1631   44.9479   54.9416 C   0  0  0  0  0  2  0  0  0  0  0  0
    2.2887   46.1805   54.8571 C   0  0  0  0  0  2  0  0  0  0  0  0
  1  2  1  0
  2  3  2  0
  3 19  1  0
  4  8  1  0
  4  5  1  0
  4  3  1  0
  6  5  1  0
  7  8  2  0
  7  6  1  0
  9  8  1  0
  9  1  2  0
 10 11  1  0
 10  1  1  0
 11 16  1  0
 12 13  2  0
 13 15  1  0
 14 12  1  0
 14 11  2  0
 16 15  2  0
 17 18  1  0
 17 12  1  0
 19 20  1  0
 20 21  1  0
 21 22  1  0
 22 24  1  0
 23 21  1  0
 23 25  1  0
 24 26  1  0
 25 26  1  0
M  RAD  8   4   2   6   3  13   2  14   2  15   2  16   2  18   2  20   3
M  RAD  6  21   2  22   3  23   3  24   3  25   3  26   3
M  END
>  <REMARK>  (1) 
 SMILES COc1cccc(Nc2nc(OCC3CCCCC3)c3[nH]cnc3n2)c1
 SMILES IDX 9 1 10 2 11 3 20 4 21 5 22 6 23 7 24 8 25 9 8 11 7 13 3 14
 SMILES IDX 4 15 26 16 5 17 6 18 2 19 1 20 12 21 13 22 14 23 15 24 19 25
 SMILES IDX 16 26 18 27 17 28
 H PARENT 21 10 8 12

>  <TORSDO>  (1) 
F 6

$$$$
