/home/pchatterjee/Documents/git/vs_workflow/DiffDock/diffdock_run/pdbqt_scrubbed/5329556.pdbqt
     RDKit          3D

 26 29  0  0  1  0  0  0  0  0999 V2000
    7.8527   43.2865   49.5327 C   0  0  0  0  0  0  0  0  0  0  0  0
    6.8534   44.0440   50.2202 N   0  0  0  0  0  0  0  0  0  0  0  0
    7.1532   45.0785   50.9707 C   0  0  0  0  0  0  0  0  0  0  0  0
    8.5123   45.4724   51.0869 C   0  0  0  0  0  3  0  0  0  0  0  0
    9.0850   45.9711   52.2679 N   0  0  0  0  0  0  0  0  0  0  0  0
   10.4444   46.3103   51.7436 C   0  0  0  0  0  2  0  0  0  0  0  0
   10.6824   45.1700   50.8305 N   0  0  0  0  0  0  0  0  0  0  0  0
    9.5534   44.6735   50.4448 C   0  0  0  0  0  0  0  0  0  0  0  0
    9.1287   43.5807   49.6298 N   0  0  0  0  0  0  0  0  0  0  0  0
    7.4368   42.1784   48.7189 N   0  0  0  0  0  0  0  0  0  0  0  0
    6.0712   41.7774   48.7455 C   0  0  0  0  0  0  0  0  0  0  0  0
    4.1961   41.0052   47.4411 C   0  0  0  0  0  0  0  0  0  0  0  0
    3.4311   40.9658   48.5776 C   0  0  0  0  0  3  0  0  0  0  0  0
    5.5004   41.4090   47.5419 C   0  0  0  0  0  3  0  0  0  0  0  0
    3.9785   41.3293   49.7939 C   0  0  0  0  0  3  0  0  0  0  0  0
    5.3085   41.7393   49.8851 C   0  0  0  0  0  3  0  0  0  0  0  0
    3.6272   40.6353   46.2246 O   0  0  0  0  0  0  0  0  0  0  0  0
    3.6580   41.4566   45.0800 C   0  0  0  0  0  1  0  0  0  0  0  0
    6.1384   45.7533   51.6109 O   0  0  0  0  0  0  0  0  0  0  0  0
    4.8511   45.1535   51.6369 C   0  0  0  0  0  2  0  0  0  0  0  0
    3.9561   45.7430   52.6759 C   0  0  0  0  0  3  0  0  0  0  0  0
    2.5284   45.4402   52.3270 C   0  0  0  0  0  2  0  0  0  0  0  0
    4.3423   45.3960   54.0753 C   0  0  0  0  0  2  0  0  0  0  0  0
    1.5393   45.9768   53.3068 C   0  0  0  0  0  2  0  0  0  0  0  0
    3.1429   45.1040   54.9554 C   0  0  0  0  0  2  0  0  0  0  0  0
    2.1118   46.1783   54.6837 C   0  0  0  0  0  2  0  0  0  0  0  0
  1  2  1  0
  2  3  2  0
  3 19  1  0
  4  8  1  0
  4  5  1  0
  4  3  1  0
  6  5  1  0
  7  8  2  0
  7  6  1  0
  9  8  1  0
  9  1  2  0
 10 11  1  0
 10  1  1  0
 11 16  1  0
 12 13  2  0
 13 15  1  0
 14 12  1  0
 14 11  2  0
 16 15  2  0
 17 18  1  0
 17 12  1  0
 19 20  1  0
 20 21  1  0
 21 22  1  0
 22 24  1  0
 23 21  1  0
 23 25  1  0
 24 26  1  0
 25 26  1  0
M  RAD  8   4   2   6   3  13   2  14   2  15   2  16   2  18   2  20   3
M  RAD  6  21   2  22   3  23   3  24   3  25   3  26   3
M  END
>  <REMARK>  (1) 
 SMILES COc1cccc(Nc2nc(OCC3CCCCC3)c3[nH]cnc3n2)c1
 SMILES IDX 9 1 10 2 11 3 20 4 21 5 22 6 23 7 24 8 25 9 8 11 7 13 3 14
 SMILES IDX 4 15 26 16 5 17 6 18 2 19 1 20 12 21 13 22 14 23 15 24 19 25
 SMILES IDX 16 26 18 27 17 28
 H PARENT 21 10 8 12

>  <TORSDO>  (1) 
F 6

$$$$
