/home/pchatterjee/Documents/git/vs_workflow/DiffDock/diffdock_run/pdbqt_scrubbed/5329556.pdbqt
     RDKit          3D

 26 29  0  0  1  0  0  0  0  0999 V2000
    9.4420   62.4047   83.8537 C   0  0  0  0  0  0  0  0  0  0  0  0
    9.8411   63.6395   83.2528 N   0  0  0  0  0  0  0  0  0  0  0  0
    8.9898   64.4223   82.6316 C   0  0  0  0  0  0  0  0  0  0  0  0
    7.6232   64.0419   82.5728 C   0  0  0  0  0  3  0  0  0  0  0  0
    6.7937   64.2699   81.4631 N   0  0  0  0  0  0  0  0  0  0  0  0
    5.4999   63.7820   82.0338 C   0  0  0  0  0  2  0  0  0  0  0  0
    5.9629   62.6085   82.8080 N   0  0  0  0  0  0  0  0  0  0  0  0
    7.2074   62.7543   83.1240 C   0  0  0  0  0  0  0  0  0  0  0  0
    8.1996   61.9828   83.8014 N   0  0  0  0  0  0  0  0  0  0  0  0
   10.4348   61.6157   84.5281 N   0  0  0  0  0  0  0  0  0  0  0  0
   11.7624   62.1188   84.6313 C   0  0  0  0  0  0  0  0  0  0  0  0
   14.0397   61.6195   85.2463 C   0  0  0  0  0  0  0  0  0  0  0  0
   14.4034   62.8969   84.9082 C   0  0  0  0  0  3  0  0  0  0  0  0
   12.7289   61.2509   85.1033 C   0  0  0  0  0  3  0  0  0  0  0  0
   13.4555   63.7843   84.4336 C   0  0  0  0  0  3  0  0  0  0  0  0
   12.1228   63.3982   84.2918 C   0  0  0  0  0  3  0  0  0  0  0  0
   15.0087   60.7395   85.7227 O   0  0  0  0  0  0  0  0  0  0  0  0
   14.6955   59.5208   86.3570 C   0  0  0  0  0  1  0  0  0  0  0  0
    9.4490   65.5912   82.0678 O   0  0  0  0  0  0  0  0  0  0  0  0
   10.8189   65.9232   82.2431 C   0  0  0  0  0  2  0  0  0  0  0  0
   11.2959   66.9535   81.2741 C   0  0  0  0  0  3  0  0  0  0  0  0
   10.2988   68.0732   81.2134 C   0  0  0  0  0  2  0  0  0  0  0  0
   12.7066   67.3871   81.4968 C   0  0  0  0  0  2  0  0  0  0  0  0
   10.6783   69.1712   80.2771 C   0  0  0  0  0  2  0  0  0  0  0  0
   12.8954   68.8786   81.3018 C   0  0  0  0  0  2  0  0  0  0  0  0
   12.1607   69.2647   80.0360 C   0  0  0  0  0  2  0  0  0  0  0  0
  1  2  1  0
  2  3  2  0
  3 19  1  0
  4  8  1  0
  4  5  1  0
  4  3  1  0
  6  5  1  0
  7  8  2  0
  7  6  1  0
  9  8  1  0
  9  1  2  0
 10 11  1  0
 10  1  1  0
 11 16  1  0
 12 13  2  0
 13 15  1  0
 14 12  1  0
 14 11  2  0
 16 15  2  0
 17 18  1  0
 17 12  1  0
 19 20  1  0
 20 21  1  0
 21 22  1  0
 22 24  1  0
 23 21  1  0
 23 25  1  0
 24 26  1  0
 25 26  1  0
M  RAD  8   4   2   6   3  13   2  14   2  15   2  16   2  18   2  20   3
M  RAD  6  21   2  22   3  23   3  24   3  25   3  26   3
M  END
>  <REMARK>  (1) 
 SMILES COc1cccc(Nc2nc(OCC3CCCCC3)c3[nH]cnc3n2)c1
 SMILES IDX 9 1 10 2 11 3 20 4 21 5 22 6 23 7 24 8 25 9 8 11 7 13 3 14
 SMILES IDX 4 15 26 16 5 17 6 18 2 19 1 20 12 21 13 22 14 23 15 24 19 25
 SMILES IDX 16 26 18 27 17 28
 H PARENT 21 10 8 12

>  <TORSDO>  (1) 
F 6

$$$$
