/home/pchatterjee/Documents/git/vs_workflow/DiffDock/diffdock_run/pdbqt_scrubbed/5329556.pdbqt
     RDKit          3D

 26 29  0  0  1  0  0  0  0  0999 V2000
    7.7938   43.2449   49.4706 C   0  0  0  0  0  0  0  0  0  0  0  0
    6.6749   43.7816   50.1814 N   0  0  0  0  0  0  0  0  0  0  0  0
    6.7797   44.8349   50.9579 C   0  0  0  0  0  0  0  0  0  0  0  0
    8.0405   45.4763   51.0797 C   0  0  0  0  0  3  0  0  0  0  0  0
    8.5184   46.0445   52.2713 N   0  0  0  0  0  0  0  0  0  0  0  0
    9.7844   46.6485   51.7513 C   0  0  0  0  0  2  0  0  0  0  0  0
   10.2263   45.5975   50.8074 N   0  0  0  0  0  0  0  0  0  0  0  0
    9.2086   44.9058   50.4129 C   0  0  0  0  0  0  0  0  0  0  0  0
    8.9917   43.7733   49.5708 N   0  0  0  0  0  0  0  0  0  0  0  0
    7.5884   42.0990   48.6292 N   0  0  0  0  0  0  0  0  0  0  0  0
    6.2659   41.6049   48.4475 C   0  0  0  0  0  0  0  0  0  0  0  0
    3.9420   41.8709   49.0330 C   0  0  0  0  0  0  0  0  0  0  0  0
    3.6258   40.8041   48.2328 C   0  0  0  0  0  3  0  0  0  0  0  0
    5.2530   42.2539   49.1280 C   0  0  0  0  0  3  0  0  0  0  0  0
    4.6206   40.1379   47.5416 C   0  0  0  0  0  3  0  0  0  0  0  0
    5.9531   40.5367   47.6456 C   0  0  0  0  0  3  0  0  0  0  0  0
    2.9262   42.5297   49.7218 O   0  0  0  0  0  0  0  0  0  0  0  0
    2.6126   42.2632   51.0695 C   0  0  0  0  0  1  0  0  0  0  0  0
    5.6609   45.2886   51.6194 O   0  0  0  0  0  0  0  0  0  0  0  0
    4.5788   44.3857   51.7966 C   0  0  0  0  0  2  0  0  0  0  0  0
    3.4380   44.9863   52.5489 C   0  0  0  0  0  3  0  0  0  0  0  0
    3.8122   45.1102   53.9967 C   0  0  0  0  0  2  0  0  0  0  0  0
    2.8991   46.2358   51.9356 C   0  0  0  0  0  2  0  0  0  0  0  0
    2.7440   45.7101   54.8485 C   0  0  0  0  0  2  0  0  0  0  0  0
    2.5419   47.2853   52.9698 C   0  0  0  0  0  2  0  0  0  0  0  0
    1.7900   46.5855   54.0816 C   0  0  0  0  0  2  0  0  0  0  0  0
  1  2  1  0
  2  3  2  0
  3 19  1  0
  4  8  1  0
  4  5  1  0
  4  3  1  0
  6  5  1  0
  7  8  2  0
  7  6  1  0
  9  8  1  0
  9  1  2  0
 10 11  1  0
 10  1  1  0
 11 16  1  0
 12 13  2  0
 13 15  1  0
 14 12  1  0
 14 11  2  0
 16 15  2  0
 17 18  1  0
 17 12  1  0
 19 20  1  0
 20 21  1  0
 21 22  1  0
 22 24  1  0
 23 21  1  0
 23 25  1  0
 24 26  1  0
 25 26  1  0
M  RAD  8   4   2   6   3  13   2  14   2  15   2  16   2  18   2  20   3
M  RAD  6  21   2  22   3  23   3  24   3  25   3  26   3
M  END
>  <REMARK>  (1) 
 SMILES COc1cccc(Nc2nc(OCC3CCCCC3)c3[nH]cnc3n2)c1
 SMILES IDX 9 1 10 2 11 3 20 4 21 5 22 6 23 7 24 8 25 9 8 11 7 13 3 14
 SMILES IDX 4 15 26 16 5 17 6 18 2 19 1 20 12 21 13 22 14 23 15 24 19 25
 SMILES IDX 16 26 18 27 17 28
 H PARENT 21 10 8 12

>  <TORSDO>  (1) 
F 6

$$$$
