/home/pchatterjee/Documents/git/vs_workflow/DiffDock/diffdock_run/pdbqt_scrubbed/5329556.pdbqt
     RDKit          3D

 26 29  0  0  1  0  0  0  0  0999 V2000
    7.6635   43.3115   49.2226 C   0  0  0  0  0  0  0  0  0  0  0  0
    6.6490   43.8905   50.0476 N   0  0  0  0  0  0  0  0  0  0  0  0
    6.8845   44.9209   50.8263 C   0  0  0  0  0  0  0  0  0  0  0  0
    8.1836   45.4937   50.8339 C   0  0  0  0  0  3  0  0  0  0  0  0
    8.8044   46.0120   51.9817 N   0  0  0  0  0  0  0  0  0  0  0  0
   10.0444   46.5604   51.3497 C   0  0  0  0  0  2  0  0  0  0  0  0
   10.3361   45.5075   50.3511 N   0  0  0  0  0  0  0  0  0  0  0  0
    9.2495   44.8774   50.0475 C   0  0  0  0  0  0  0  0  0  0  0  0
    8.8919   43.7751   49.2133 N   0  0  0  0  0  0  0  0  0  0  0  0
    7.3167   42.1951   48.3879 N   0  0  0  0  0  0  0  0  0  0  0  0
    5.9918   41.6777   48.4436 C   0  0  0  0  0  0  0  0  0  0  0  0
    4.0860   40.9396   47.1640 C   0  0  0  0  0  0  0  0  0  0  0  0
    3.4161   40.6726   48.3294 C   0  0  0  0  0  3  0  0  0  0  0  0
    5.3597   41.4365   47.2384 C   0  0  0  0  0  3  0  0  0  0  0  0
    4.0263   40.9051   49.5479 C   0  0  0  0  0  3  0  0  0  0  0  0
    5.3243   41.4116   49.6122 C   0  0  0  0  0  3  0  0  0  0  0  0
    3.4551   40.6990   45.9457 O   0  0  0  0  0  0  0  0  0  0  0  0
    4.1593   40.4458   44.7517 C   0  0  0  0  0  1  0  0  0  0  0  0
    5.8609   45.4180   51.6009 O   0  0  0  0  0  0  0  0  0  0  0  0
    4.6654   44.6568   51.6952 C   0  0  0  0  0  2  0  0  0  0  0  0
    3.7231   45.1800   52.7278 C   0  0  0  0  0  3  0  0  0  0  0  0
    4.4059   45.1809   54.0640 C   0  0  0  0  0  2  0  0  0  0  0  0
    3.0767   46.4735   52.3578 C   0  0  0  0  0  2  0  0  0  0  0  0
    3.5561   45.6955   55.1773 C   0  0  0  0  0  2  0  0  0  0  0  0
    2.9653   47.4261   53.5320 C   0  0  0  0  0  2  0  0  0  0  0  0
    2.4671   46.6260   54.7163 C   0  0  0  0  0  2  0  0  0  0  0  0
  1  2  1  0
  2  3  2  0
  3 19  1  0
  4  8  1  0
  4  5  1  0
  4  3  1  0
  6  5  1  0
  7  8  2  0
  7  6  1  0
  9  8  1  0
  9  1  2  0
 10 11  1  0
 10  1  1  0
 11 16  1  0
 12 13  2  0
 13 15  1  0
 14 12  1  0
 14 11  2  0
 16 15  2  0
 17 18  1  0
 17 12  1  0
 19 20  1  0
 20 21  1  0
 21 22  1  0
 22 24  1  0
 23 21  1  0
 23 25  1  0
 24 26  1  0
 25 26  1  0
M  RAD  8   4   2   6   3  13   2  14   2  15   2  16   2  18   2  20   3
M  RAD  6  21   2  22   3  23   3  24   3  25   3  26   3
M  END
>  <REMARK>  (1) 
 SMILES COc1cccc(Nc2nc(OCC3CCCCC3)c3[nH]cnc3n2)c1
 SMILES IDX 9 1 10 2 11 3 20 4 21 5 22 6 23 7 24 8 25 9 8 11 7 13 3 14
 SMILES IDX 4 15 26 16 5 17 6 18 2 19 1 20 12 21 13 22 14 23 15 24 19 25
 SMILES IDX 16 26 18 27 17 28
 H PARENT 21 10 8 12

>  <TORSDO>  (1) 
F 6

$$$$
