/home/pchatterjee/Documents/git/vs_workflow/DiffDock/diffdock_run/pdbqt_scrubbed/5329556.pdbqt
     RDKit          3D

 26 29  0  0  1  0  0  0  0  0999 V2000
    7.7629   43.4461   49.2799 C   0  0  0  0  0  0  0  0  0  0  0  0
    6.7128   43.9565   50.1057 N   0  0  0  0  0  0  0  0  0  0  0  0
    6.9239   44.8799   51.0145 C   0  0  0  0  0  0  0  0  0  0  0  0
    8.2338   45.4057   51.1686 C   0  0  0  0  0  3  0  0  0  0  0  0
    8.7931   45.7651   52.4053 N   0  0  0  0  0  0  0  0  0  0  0  0
   10.0840   46.3437   51.9190 C   0  0  0  0  0  2  0  0  0  0  0  0
   10.4123   45.4067   50.8212 N   0  0  0  0  0  0  0  0  0  0  0  0
    9.3318   44.8521   50.3797 C   0  0  0  0  0  0  0  0  0  0  0  0
    9.0006   43.8677   49.3999 N   0  0  0  0  0  0  0  0  0  0  0  0
    7.4422   42.4474   48.2985 N   0  0  0  0  0  0  0  0  0  0  0  0
    6.1177   41.9283   48.2502 C   0  0  0  0  0  0  0  0  0  0  0  0
    3.9735   41.8343   49.3493 C   0  0  0  0  0  0  0  0  0  0  0  0
    3.5036   41.0258   48.3474 C   0  0  0  0  0  3  0  0  0  0  0  0
    5.2693   42.2719   49.2858 C   0  0  0  0  0  3  0  0  0  0  0  0
    4.3322   40.6676   47.3003 C   0  0  0  0  0  3  0  0  0  0  0  0
    5.6507   41.1192   47.2456 C   0  0  0  0  0  3  0  0  0  0  0  0
    3.1240   42.1847   50.3961 O   0  0  0  0  0  0  0  0  0  0  0  0
    2.7823   41.2998   51.4382 C   0  0  0  0  0  1  0  0  0  0  0  0
    5.8659   45.3153   51.7800 O   0  0  0  0  0  0  0  0  0  0  0  0
    4.6807   44.5324   51.7868 C   0  0  0  0  0  2  0  0  0  0  0  0
    3.6076   45.1097   52.6488 C   0  0  0  0  0  3  0  0  0  0  0  0
    4.0511   45.0704   54.0818 C   0  0  0  0  0  2  0  0  0  0  0  0
    3.1096   46.4389   52.1871 C   0  0  0  0  0  2  0  0  0  0  0  0
    3.0547   45.6337   55.0390 C   0  0  0  0  0  2  0  0  0  0  0  0
    2.8544   47.3961   53.3347 C   0  0  0  0  0  2  0  0  0  0  0  0
    2.1159   46.6265   54.4085 C   0  0  0  0  0  2  0  0  0  0  0  0
  1  2  1  0
  2  3  2  0
  3 19  1  0
  4  8  1  0
  4  5  1  0
  4  3  1  0
  6  5  1  0
  7  8  2  0
  7  6  1  0
  9  8  1  0
  9  1  2  0
 10 11  1  0
 10  1  1  0
 11 16  1  0
 12 13  2  0
 13 15  1  0
 14 12  1  0
 14 11  2  0
 16 15  2  0
 17 18  1  0
 17 12  1  0
 19 20  1  0
 20 21  1  0
 21 22  1  0
 22 24  1  0
 23 21  1  0
 23 25  1  0
 24 26  1  0
 25 26  1  0
M  RAD  8   4   2   6   3  13   2  14   2  15   2  16   2  18   2  20   3
M  RAD  6  21   2  22   3  23   3  24   3  25   3  26   3
M  END
>  <REMARK>  (1) 
 SMILES COc1cccc(Nc2nc(OCC3CCCCC3)c3[nH]cnc3n2)c1
 SMILES IDX 9 1 10 2 11 3 20 4 21 5 22 6 23 7 24 8 25 9 8 11 7 13 3 14
 SMILES IDX 4 15 26 16 5 17 6 18 2 19 1 20 12 21 13 22 14 23 15 24 19 25
 SMILES IDX 16 26 18 27 17 28
 H PARENT 21 10 8 12

>  <TORSDO>  (1) 
F 6

$$$$
