/home/pchatterjee/Documents/git/vs_workflow/DiffDock/diffdock_run/pdbqt_scrubbed/5329556.pdbqt
     RDKit          3D

 26 29  0  0  1  0  0  0  0  0999 V2000
    7.6842   43.4167   49.3830 C   0  0  0  0  0  0  0  0  0  0  0  0
    6.6779   44.1783   50.0557 N   0  0  0  0  0  0  0  0  0  0  0  0
    6.9597   45.2701   50.7279 C   0  0  0  0  0  0  0  0  0  0  0  0
    8.3047   45.7228   50.7708 C   0  0  0  0  0  3  0  0  0  0  0  0
    8.8950   46.3189   51.8968 N   0  0  0  0  0  0  0  0  0  0  0  0
   10.2215   46.6755   51.3044 C   0  0  0  0  0  2  0  0  0  0  0  0
   10.4758   45.4882   50.4577 N   0  0  0  0  0  0  0  0  0  0  0  0
    9.3559   44.9246   50.1445 C   0  0  0  0  0  0  0  0  0  0  0  0
    8.9497   43.7656   49.4162 N   0  0  0  0  0  0  0  0  0  0  0  0
    7.2874   42.2429   48.6565 N   0  0  0  0  0  0  0  0  0  0  0  0
    5.9274   41.8261   48.7093 C   0  0  0  0  0  0  0  0  0  0  0  0
    4.0535   40.9776   47.4512 C   0  0  0  0  0  0  0  0  0  0  0  0
    3.2969   40.9749   48.5939 C   0  0  0  0  0  3  0  0  0  0  0  0
    5.3532   41.4018   47.5259 C   0  0  0  0  0  3  0  0  0  0  0  0
    3.8477   41.3946   49.7903 C   0  0  0  0  0  3  0  0  0  0  0  0
    5.1729   41.8247   49.8551 C   0  0  0  0  0  3  0  0  0  0  0  0
    3.4813   40.5513   46.2549 O   0  0  0  0  0  0  0  0  0  0  0  0
    2.7448   41.4034   45.4080 C   0  0  0  0  0  1  0  0  0  0  0  0
    5.9397   45.9454   51.3593 O   0  0  0  0  0  0  0  0  0  0  0  0
    4.7212   45.2520   51.5868 C   0  0  0  0  0  2  0  0  0  0  0  0
    3.8883   45.8761   52.6568 C   0  0  0  0  0  3  0  0  0  0  0  0
    2.4395   45.7645   52.2827 C   0  0  0  0  0  2  0  0  0  0  0  0
    4.2147   45.3998   54.0332 C   0  0  0  0  0  2  0  0  0  0  0  0
    1.5077   46.3509   53.2899 C   0  0  0  0  0  2  0  0  0  0  0  0
    2.9789   45.1957   54.8874 C   0  0  0  0  0  2  0  0  0  0  0  0
    2.0831   46.3979   54.6795 C   0  0  0  0  0  2  0  0  0  0  0  0
  1  2  1  0
  2  3  2  0
  3 19  1  0
  4  8  1  0
  4  5  1  0
  4  3  1  0
  6  5  1  0
  7  8  2  0
  7  6  1  0
  9  8  1  0
  9  1  2  0
 10 11  1  0
 10  1  1  0
 11 16  1  0
 12 13  2  0
 13 15  1  0
 14 12  1  0
 14 11  2  0
 16 15  2  0
 17 18  1  0
 17 12  1  0
 19 20  1  0
 20 21  1  0
 21 22  1  0
 22 24  1  0
 23 21  1  0
 23 25  1  0
 24 26  1  0
 25 26  1  0
M  RAD  8   4   2   6   3  13   2  14   2  15   2  16   2  18   2  20   3
M  RAD  6  21   2  22   3  23   3  24   3  25   3  26   3
M  END
>  <REMARK>  (1) 
 SMILES COc1cccc(Nc2nc(OCC3CCCCC3)c3[nH]cnc3n2)c1
 SMILES IDX 9 1 10 2 11 3 20 4 21 5 22 6 23 7 24 8 25 9 8 11 7 13 3 14
 SMILES IDX 4 15 26 16 5 17 6 18 2 19 1 20 12 21 13 22 14 23 15 24 19 25
 SMILES IDX 16 26 18 27 17 28
 H PARENT 21 10 8 12

>  <TORSDO>  (1) 
F 6

$$$$
