/home/pchatterjee/Documents/git/vs_workflow/DiffDock/diffdock_run/pdbqt_scrubbed/5329556.pdbqt
     RDKit          3D

 26 29  0  0  1  0  0  0  0  0999 V2000
    7.7003   43.4176   49.4668 C   0  0  0  0  0  0  0  0  0  0  0  0
    6.7286   44.1498   50.2184 N   0  0  0  0  0  0  0  0  0  0  0  0
    7.0586   45.1526   50.9986 C   0  0  0  0  0  0  0  0  0  0  0  0
    8.4226   45.5379   51.0829 C   0  0  0  0  0  3  0  0  0  0  0  0
    9.0381   45.9874   52.2621 N   0  0  0  0  0  0  0  0  0  0  0  0
   10.3797   46.3436   51.7046 C   0  0  0  0  0  2  0  0  0  0  0  0
   10.5812   45.2401   50.7389 N   0  0  0  0  0  0  0  0  0  0  0  0
    9.4374   44.7624   50.3735 C   0  0  0  0  0  0  0  0  0  0  0  0
    8.9801   43.7043   49.5309 N   0  0  0  0  0  0  0  0  0  0  0  0
    7.2518   42.3441   48.6245 N   0  0  0  0  0  0  0  0  0  0  0  0
    5.8895   41.9371   48.6924 C   0  0  0  0  0  0  0  0  0  0  0  0
    3.9633   41.2078   47.4386 C   0  0  0  0  0  0  0  0  0  0  0  0
    3.2464   41.1225   48.6036 C   0  0  0  0  0  3  0  0  0  0  0  0
    5.2698   41.6126   47.5004 C   0  0  0  0  0  3  0  0  0  0  0  0
    3.8432   41.4416   49.8090 C   0  0  0  0  0  3  0  0  0  0  0  0
    5.1750   41.8528   49.8605 C   0  0  0  0  0  3  0  0  0  0  0  0
    3.3451   40.8822   46.2336 O   0  0  0  0  0  0  0  0  0  0  0  0
    3.1122   41.8224   45.2101 C   0  0  0  0  0  1  0  0  0  0  0  0
    6.0695   45.8040   51.7003 O   0  0  0  0  0  0  0  0  0  0  0  0
    4.7375   45.3272   51.5739 C   0  0  0  0  0  2  0  0  0  0  0  0
    3.8802   45.6805   52.7436 C   0  0  0  0  0  3  0  0  0  0  0  0
    2.4379   45.6231   52.3337 C   0  0  0  0  0  2  0  0  0  0  0  0
    4.2057   44.9183   53.9850 C   0  0  0  0  0  2  0  0  0  0  0  0
    1.4831   45.9515   53.4324 C   0  0  0  0  0  2  0  0  0  0  0  0
    2.9676   44.5032   54.7553 C   0  0  0  0  0  2  0  0  0  0  0  0
    2.0447   45.7019   54.8059 C   0  0  0  0  0  2  0  0  0  0  0  0
  1  2  1  0
  2  3  2  0
  3 19  1  0
  4  8  1  0
  4  5  1  0
  4  3  1  0
  6  5  1  0
  7  8  2  0
  7  6  1  0
  9  8  1  0
  9  1  2  0
 10 11  1  0
 10  1  1  0
 11 16  1  0
 12 13  2  0
 13 15  1  0
 14 12  1  0
 14 11  2  0
 16 15  2  0
 17 18  1  0
 17 12  1  0
 19 20  1  0
 20 21  1  0
 21 22  1  0
 22 24  1  0
 23 21  1  0
 23 25  1  0
 24 26  1  0
 25 26  1  0
M  RAD  8   4   2   6   3  13   2  14   2  15   2  16   2  18   2  20   3
M  RAD  6  21   2  22   3  23   3  24   3  25   3  26   3
M  END
>  <REMARK>  (1) 
 SMILES COc1cccc(Nc2nc(OCC3CCCCC3)c3[nH]cnc3n2)c1
 SMILES IDX 9 1 10 2 11 3 20 4 21 5 22 6 23 7 24 8 25 9 8 11 7 13 3 14
 SMILES IDX 4 15 26 16 5 17 6 18 2 19 1 20 12 21 13 22 14 23 15 24 19 25
 SMILES IDX 16 26 18 27 17 28
 H PARENT 21 10 8 12

>  <TORSDO>  (1) 
F 6

$$$$
