/home/pchatterjee/Documents/git/vs_workflow/DiffDock/diffdock_run/pdbqt_scrubbed/5329556.pdbqt
     RDKit          3D

 26 29  0  0  1  0  0  0  0  0999 V2000
    7.7506   43.2651   49.3965 C   0  0  0  0  0  0  0  0  0  0  0  0
    6.6754   43.8901   50.1023 N   0  0  0  0  0  0  0  0  0  0  0  0
    6.8566   44.9477   50.8587 C   0  0  0  0  0  0  0  0  0  0  0  0
    8.1591   45.5032   50.9627 C   0  0  0  0  0  3  0  0  0  0  0  0
    8.6819   46.0589   52.1414 N   0  0  0  0  0  0  0  0  0  0  0  0
    9.9831   46.5650   51.6044 C   0  0  0  0  0  2  0  0  0  0  0  0
   10.3465   45.4691   50.6782 N   0  0  0  0  0  0  0  0  0  0  0  0
    9.2814   44.8418   50.3013 C   0  0  0  0  0  0  0  0  0  0  0  0
    8.9825   43.7117   49.4814 N   0  0  0  0  0  0  0  0  0  0  0  0
    7.4622   42.1208   48.5775 N   0  0  0  0  0  0  0  0  0  0  0  0
    6.1046   41.7517   48.3617 C   0  0  0  0  0  0  0  0  0  0  0  0
    3.8724   41.7465   49.2736 C   0  0  0  0  0  0  0  0  0  0  0  0
    3.4194   41.1201   48.1419 C   0  0  0  0  0  3  0  0  0  0  0  0
    5.2039   42.0518   49.3661 C   0  0  0  0  0  3  0  0  0  0  0  0
    4.3001   40.8090   47.1228 C   0  0  0  0  0  3  0  0  0  0  0  0
    5.6547   41.1247   47.2275 C   0  0  0  0  0  3  0  0  0  0  0  0
    2.9703   42.0520   50.2899 O   0  0  0  0  0  0  0  0  0  0  0  0
    3.3711   42.3959   51.5964 C   0  0  0  0  0  1  0  0  0  0  0  0
    5.7755   45.4891   51.5168 O   0  0  0  0  0  0  0  0  0  0  0  0
    4.5371   44.7970   51.4470 C   0  0  0  0  0  2  0  0  0  0  0  0
    3.5871   45.1950   52.5273 C   0  0  0  0  0  3  0  0  0  0  0  0
    4.3277   45.2790   53.8296 C   0  0  0  0  0  2  0  0  0  0  0  0
    2.7661   46.3975   52.1989 C   0  0  0  0  0  2  0  0  0  0  0  0
    3.4744   45.6799   54.9861 C   0  0  0  0  0  2  0  0  0  0  0  0
    2.5923   47.3258   53.3849 C   0  0  0  0  0  2  0  0  0  0  0  0
    2.2561   46.4668   54.5849 C   0  0  0  0  0  2  0  0  0  0  0  0
  1  2  1  0
  2  3  2  0
  3 19  1  0
  4  8  1  0
  4  5  1  0
  4  3  1  0
  6  5  1  0
  7  8  2  0
  7  6  1  0
  9  8  1  0
  9  1  2  0
 10 11  1  0
 10  1  1  0
 11 16  1  0
 12 13  2  0
 13 15  1  0
 14 12  1  0
 14 11  2  0
 16 15  2  0
 17 18  1  0
 17 12  1  0
 19 20  1  0
 20 21  1  0
 21 22  1  0
 22 24  1  0
 23 21  1  0
 23 25  1  0
 24 26  1  0
 25 26  1  0
M  RAD  8   4   2   6   3  13   2  14   2  15   2  16   2  18   2  20   3
M  RAD  6  21   2  22   3  23   3  24   3  25   3  26   3
M  END
>  <REMARK>  (1) 
 SMILES COc1cccc(Nc2nc(OCC3CCCCC3)c3[nH]cnc3n2)c1
 SMILES IDX 9 1 10 2 11 3 20 4 21 5 22 6 23 7 24 8 25 9 8 11 7 13 3 14
 SMILES IDX 4 15 26 16 5 17 6 18 2 19 1 20 12 21 13 22 14 23 15 24 19 25
 SMILES IDX 16 26 18 27 17 28
 H PARENT 21 10 8 12

>  <TORSDO>  (1) 
F 6

$$$$
