/home/pchatterjee/Documents/git/vs_workflow/DiffDock/diffdock_run/pdbqt_scrubbed/Z1192499493.pdbqt
     RDKit          3D

 22 24  0  0  1  0  0  0  0  0999 V2000
    4.3687   41.1361   48.7321 C   0  0  0  0  0  2  0  0  0  0  0  0
    4.9543   42.4248   49.1712 C   0  0  0  0  0  0  0  0  0  0  0  0
    5.0210   42.7972   50.5617 N   0  0  0  0  0  0  0  0  0  0  0  0
    5.4125   43.2278   48.2958 O   0  0  0  0  0  0  0  0  0  0  0  0
    5.9375   43.8343   50.8956 C   0  0  0  0  0  0  0  0  0  0  0  0
    5.4683   44.8055   51.7858 C   0  0  0  0  0  3  0  0  0  0  0  0
    7.2144   43.9122   50.3951 C   0  0  0  0  0  3  0  0  0  0  0  0
    6.2411   45.8667   52.1993 C   0  0  0  0  0  3  0  0  0  0  0  0
    8.0138   44.9851   50.8052 C   0  0  0  0  0  0  0  0  0  0  0  0
    7.5327   45.9418   51.6904 C   0  0  0  0  0  0  0  0  0  0  0  0
    9.3079   45.1430   50.3537 C   0  0  0  0  0  0  0  0  0  0  0  0
    8.2753   46.9835   52.1032 N   0  0  0  0  0  0  0  0  0  0  0  0
   10.0544   46.1849   50.7650 N   0  0  0  0  0  0  0  0  0  0  0  0
    9.5345   47.0979   51.6362 C   0  0  0  0  0  3  0  0  0  0  0  0
    9.8085   44.3050   49.5440 O   0  0  0  0  0  0  0  0  0  0  0  0
    3.2777   41.3114   47.8932 O   0  0  0  0  0  0  0  0  0  0  0  0
    3.2049   40.3479   46.8991 C   0  0  0  0  0  2  0  0  0  0  0  0
    3.8912   40.7744   45.6210 C   0  0  0  0  0  3  0  0  0  0  0  0
    3.4545   42.1978   45.3392 C   0  0  0  0  0  2  0  0  0  0  0  0
    3.3947   40.1029   44.5125 O   0  0  0  0  0  0  0  0  0  0  0  0
    2.0710   41.9954   44.7569 C   0  0  0  0  0  2  0  0  0  0  0  0
    2.1026   40.5597   44.2823 C   0  0  0  0  0  2  0  0  0  0  0  0
  2  4  2  0
  2  1  1  0
  3  2  1  0
  5  6  2  0
  5  3  1  0
  7  5  1  0
  8  6  1  0
  9 10  1  0
  9  7  2  0
 10  8  2  0
 11  9  1  0
 12 10  1  0
 13 14  1  0
 13 11  1  0
 14 12  2  0
 15 11  2  0
 16  1  1  0
 16 17  1  0
 18 17  1  0
 18 19  1  0
 20 22  1  0
 20 18  1  0
 21 19  1  0
 22 21  1  0
M  RAD  8   1   3   6   2   7   2   8   2  14   2  17   3  18   2  19   3
M  RAD  2  21   3  22   3
M  END
>  <REMARK>  (1) 
 SMILES O=C(COCC1CCCO1)Nc1ccc2nc[nH]c(=O)c2c1
 SMILES IDX 3 1 2 2 11 3 1 4 12 6 13 7 22 8 14 9 21 10 15 11 19 12 16 13
 SMILES IDX 18 14 17 15 20 16 4 18 5 19 6 20 7 21 10 22 8 23 9 24
 H PARENT 11 5 18 17

>  <TORSDO>  (1) 
F 5

$$$$
