/home/pchatterjee/Documents/git/vs_workflow/DiffDock/diffdock_run/pdbqt_scrubbed/Z1192499493.pdbqt
     RDKit          3D

 22 24  0  0  1  0  0  0  0  0999 V2000
    2.1198   44.9156   53.3070 C   0  0  0  0  0  2  0  0  0  0  0  0
    3.4775   45.3186   52.8707 C   0  0  0  0  0  0  0  0  0  0  0  0
    3.8499   45.3601   51.4791 N   0  0  0  0  0  0  0  0  0  0  0  0
    4.3419   45.6380   53.7493 O   0  0  0  0  0  0  0  0  0  0  0  0
    5.2268   45.1473   51.1862 C   0  0  0  0  0  0  0  0  0  0  0  0
    5.5106   44.1182   50.2827 C   0  0  0  0  0  3  0  0  0  0  0  0
    6.2455   45.8865   51.7366 C   0  0  0  0  0  3  0  0  0  0  0  0
    6.7945   43.7971   49.9047 C   0  0  0  0  0  3  0  0  0  0  0  0
    7.5573   45.5733   51.3630 C   0  0  0  0  0  0  0  0  0  0  0  0
    7.8224   44.5477   50.4641 C   0  0  0  0  0  0  0  0  0  0  0  0
    8.6416   46.2627   51.8655 C   0  0  0  0  0  0  0  0  0  0  0  0
    9.0706   44.2226   50.0854 N   0  0  0  0  0  0  0  0  0  0  0  0
    9.8929   45.9399   51.4885 N   0  0  0  0  0  0  0  0  0  0  0  0
   10.0998   44.9231   50.6018 C   0  0  0  0  0  3  0  0  0  0  0  0
    8.4693   47.2105   52.6903 O   0  0  0  0  0  0  0  0  0  0  0  0
    1.1406   45.2931   52.3996 O   0  0  0  0  0  0  0  0  0  0  0  0
    0.3721   44.2247   51.9641 C   0  0  0  0  0  2  0  0  0  0  0  0
   -1.0811   44.3496   52.3631 C   0  0  0  0  0  3  0  0  0  0  0  0
   -1.7410   43.0224   52.0480 C   0  0  0  0  0  2  0  0  0  0  0  0
   -1.7784   45.2150   51.5318 O   0  0  0  0  0  0  0  0  0  0  0  0
   -1.9436   43.1169   50.5500 C   0  0  0  0  0  2  0  0  0  0  0  0
   -1.8984   44.6059   50.2885 C   0  0  0  0  0  2  0  0  0  0  0  0
  2  4  2  0
  2  1  1  0
  3  2  1  0
  5  6  2  0
  5  3  1  0
  7  5  1  0
  8  6  1  0
  9 10  1  0
  9  7  2  0
 10  8  2  0
 11  9  1  0
 12 10  1  0
 13 14  1  0
 13 11  1  0
 14 12  2  0
 15 11  2  0
 16  1  1  0
 16 17  1  0
 18 17  1  0
 18 19  1  0
 20 22  1  0
 20 18  1  0
 21 19  1  0
 22 21  1  0
M  RAD  8   1   3   6   2   7   2   8   2  14   2  17   3  18   2  19   3
M  RAD  2  21   3  22   3
M  END
>  <REMARK>  (1) 
 SMILES O=C(COCC1CCCO1)Nc1ccc2nc[nH]c(=O)c2c1
 SMILES IDX 3 1 2 2 11 3 1 4 12 6 13 7 22 8 14 9 21 10 15 11 19 12 16 13
 SMILES IDX 18 14 17 15 20 16 4 18 5 19 6 20 7 21 10 22 8 23 9 24
 H PARENT 11 5 18 17

>  <TORSDO>  (1) 
F 5

$$$$
