/home/pchatterjee/Documents/git/vs_workflow/DiffDock/diffdock_run/pdbqt_scrubbed/Z1192499493.pdbqt
     RDKit          3D

 22 24  0  0  1  0  0  0  0  0999 V2000
    3.3406   41.2988   49.3967 C   0  0  0  0  0  2  0  0  0  0  0  0
    4.2013   42.3638   49.9636 C   0  0  0  0  0  0  0  0  0  0  0  0
    5.5147   42.0844   50.4868 N   0  0  0  0  0  0  0  0  0  0  0  0
    3.7697   43.5613   49.9902 O   0  0  0  0  0  0  0  0  0  0  0  0
    6.2997   43.2119   50.8605 C   0  0  0  0  0  0  0  0  0  0  0  0
    5.7148   44.0905   51.7781 C   0  0  0  0  0  3  0  0  0  0  0  0
    7.5598   43.4580   50.3722 C   0  0  0  0  0  3  0  0  0  0  0  0
    6.3538   45.2221   52.2312 C   0  0  0  0  0  3  0  0  0  0  0  0
    8.2240   44.6045   50.8225 C   0  0  0  0  0  0  0  0  0  0  0  0
    7.6290   45.4674   51.7345 C   0  0  0  0  0  0  0  0  0  0  0  0
    9.4915   44.9303   50.3858 C   0  0  0  0  0  0  0  0  0  0  0  0
    8.2404   46.5761   52.1860 N   0  0  0  0  0  0  0  0  0  0  0  0
   10.1068   46.0398   50.8359 N   0  0  0  0  0  0  0  0  0  0  0  0
    9.4786   46.8551   51.7321 C   0  0  0  0  0  3  0  0  0  0  0  0
   10.0913   44.1851   49.5532 O   0  0  0  0  0  0  0  0  0  0  0  0
    3.9611   40.6147   48.3615 O   0  0  0  0  0  0  0  0  0  0  0  0
    3.1600   40.5036   47.2356 C   0  0  0  0  0  2  0  0  0  0  0  0
    3.5451   41.4790   46.1463 C   0  0  0  0  0  3  0  0  0  0  0  0
    2.3853   41.5339   45.1726 C   0  0  0  0  0  2  0  0  0  0  0  0
    4.5645   40.9883   45.3423 O   0  0  0  0  0  0  0  0  0  0  0  0
    2.5829   40.2633   44.3723 C   0  0  0  0  0  2  0  0  0  0  0  0
    4.0452   39.9431   44.5880 C   0  0  0  0  0  2  0  0  0  0  0  0
  2  4  2  0
  2  1  1  0
  3  2  1  0
  5  6  2  0
  5  3  1  0
  7  5  1  0
  8  6  1  0
  9 10  1  0
  9  7  2  0
 10  8  2  0
 11  9  1  0
 12 10  1  0
 13 14  1  0
 13 11  1  0
 14 12  2  0
 15 11  2  0
 16  1  1  0
 16 17  1  0
 18 17  1  0
 18 19  1  0
 20 22  1  0
 20 18  1  0
 21 19  1  0
 22 21  1  0
M  RAD  8   1   3   6   2   7   2   8   2  14   2  17   3  18   2  19   3
M  RAD  2  21   3  22   3
M  END
>  <REMARK>  (1) 
 SMILES O=C(COCC1CCCO1)Nc1ccc2nc[nH]c(=O)c2c1
 SMILES IDX 3 1 2 2 11 3 1 4 12 6 13 7 22 8 14 9 21 10 15 11 19 12 16 13
 SMILES IDX 18 14 17 15 20 16 4 18 5 19 6 20 7 21 10 22 8 23 9 24
 H PARENT 11 5 18 17

>  <TORSDO>  (1) 
F 5

$$$$
