/home/pchatterjee/Documents/git/vs_workflow/DiffDock/diffdock_run/pdbqt_scrubbed/Z1192499493.pdbqt
     RDKit          3D

 22 24  0  0  1  0  0  0  0  0999 V2000
    2.1365   43.2673   52.3647 C   0  0  0  0  0  2  0  0  0  0  0  0
    3.3978   43.3624   51.5924 C   0  0  0  0  0  0  0  0  0  0  0  0
    3.9444   44.6300   51.1787 N   0  0  0  0  0  0  0  0  0  0  0  0
    4.0183   42.2941   51.2844 O   0  0  0  0  0  0  0  0  0  0  0  0
    5.3172   44.6339   50.8011 C   0  0  0  0  0  0  0  0  0  0  0  0
    5.6691   43.7742   49.7557 C   0  0  0  0  0  3  0  0  0  0  0  0
    6.2700   45.4199   51.4023 C   0  0  0  0  0  3  0  0  0  0  0  0
    6.9577   43.6708   49.2833 C   0  0  0  0  0  3  0  0  0  0  0  0
    7.5855   45.3272   50.9341 C   0  0  0  0  0  0  0  0  0  0  0  0
    7.9188   44.4680   49.8945 C   0  0  0  0  0  0  0  0  0  0  0  0
    8.6065   46.0788   51.4783 C   0  0  0  0  0  0  0  0  0  0  0  0
    9.1724   44.3561   49.4224 N   0  0  0  0  0  0  0  0  0  0  0  0
    9.8631   45.9694   51.0081 N   0  0  0  0  0  0  0  0  0  0  0  0
   10.1384   45.1099   49.9843 C   0  0  0  0  0  3  0  0  0  0  0  0
    8.3702   46.8829   52.4301 O   0  0  0  0  0  0  0  0  0  0  0  0
    1.5404   44.5055   52.5553 O   0  0  0  0  0  0  0  0  0  0  0  0
    0.3162   44.4180   53.2000 C   0  0  0  0  0  2  0  0  0  0  0  0
   -0.4118   45.7423   53.2532 C   0  0  0  0  0  3  0  0  0  0  0  0
   -1.5918   45.5602   54.1863 C   0  0  0  0  0  2  0  0  0  0  0  0
   -1.0444   46.0389   52.0540 O   0  0  0  0  0  0  0  0  0  0  0  0
   -2.5835   44.8302   53.3045 C   0  0  0  0  0  2  0  0  0  0  0  0
   -2.1097   45.1589   51.9062 C   0  0  0  0  0  2  0  0  0  0  0  0
  2  4  2  0
  2  1  1  0
  3  2  1  0
  5  6  2  0
  5  3  1  0
  7  5  1  0
  8  6  1  0
  9 10  1  0
  9  7  2  0
 10  8  2  0
 11  9  1  0
 12 10  1  0
 13 14  1  0
 13 11  1  0
 14 12  2  0
 15 11  2  0
 16  1  1  0
 16 17  1  0
 18 17  1  0
 18 19  1  0
 20 22  1  0
 20 18  1  0
 21 19  1  0
 22 21  1  0
M  RAD  8   1   3   6   2   7   2   8   2  14   2  17   3  18   2  19   3
M  RAD  2  21   3  22   3
M  END
>  <REMARK>  (1) 
 SMILES O=C(COCC1CCCO1)Nc1ccc2nc[nH]c(=O)c2c1
 SMILES IDX 3 1 2 2 11 3 1 4 12 6 13 7 22 8 14 9 21 10 15 11 19 12 16 13
 SMILES IDX 18 14 17 15 20 16 4 18 5 19 6 20 7 21 10 22 8 23 9 24
 H PARENT 11 5 18 17

>  <TORSDO>  (1) 
F 5

$$$$
