/home/pchatterjee/Documents/git/vs_workflow/DiffDock/diffdock_run/pdbqt_scrubbed/Z1192499493.pdbqt
     RDKit          3D

 22 24  0  0  1  0  0  0  0  0999 V2000
    2.2886   45.9867   52.8504 C   0  0  0  0  0  2  0  0  0  0  0  0
    3.6956   45.7333   52.4599 C   0  0  0  0  0  0  0  0  0  0  0  0
    4.0386   45.1176   51.2029 N   0  0  0  0  0  0  0  0  0  0  0  0
    4.6303   46.0687   53.2568 O   0  0  0  0  0  0  0  0  0  0  0  0
    5.4280   44.9710   50.9286 C   0  0  0  0  0  0  0  0  0  0  0  0
    5.7745   43.9439   50.0450 C   0  0  0  0  0  3  0  0  0  0  0  0
    6.4010   45.7698   51.4783 C   0  0  0  0  0  3  0  0  0  0  0  0
    7.0775   43.6833   49.6863 C   0  0  0  0  0  3  0  0  0  0  0  0
    7.7314   45.5185   51.1242 C   0  0  0  0  0  0  0  0  0  0  0  0
    8.0591   44.4940   50.2449 C   0  0  0  0  0  0  0  0  0  0  0  0
    8.7731   46.2702   51.6275 C   0  0  0  0  0  0  0  0  0  0  0  0
    9.3267   44.2275   49.8853 N   0  0  0  0  0  0  0  0  0  0  0  0
   10.0436   46.0061   51.2696 N   0  0  0  0  0  0  0  0  0  0  0  0
   10.3127   44.9877   50.4018 C   0  0  0  0  0  3  0  0  0  0  0  0
    8.5429   47.2206   52.4351 O   0  0  0  0  0  0  0  0  0  0  0  0
    1.7917   45.0063   53.6969 O   0  0  0  0  0  0  0  0  0  0  0  0
    0.7566   44.2805   53.1280 C   0  0  0  0  0  2  0  0  0  0  0  0
   -0.6061   44.8378   53.4729 C   0  0  0  0  0  3  0  0  0  0  0  0
   -1.3257   43.7764   54.2802 C   0  0  0  0  0  2  0  0  0  0  0  0
   -1.4241   44.9455   52.3569 O   0  0  0  0  0  0  0  0  0  0  0  0
   -1.7787   42.8122   53.2036 C   0  0  0  0  0  2  0  0  0  0  0  0
   -1.7608   43.6597   51.9511 C   0  0  0  0  0  2  0  0  0  0  0  0
  2  4  2  0
  2  1  1  0
  3  2  1  0
  5  6  2  0
  5  3  1  0
  7  5  1  0
  8  6  1  0
  9 10  1  0
  9  7  2  0
 10  8  2  0
 11  9  1  0
 12 10  1  0
 13 14  1  0
 13 11  1  0
 14 12  2  0
 15 11  2  0
 16  1  1  0
 16 17  1  0
 18 17  1  0
 18 19  1  0
 20 22  1  0
 20 18  1  0
 21 19  1  0
 22 21  1  0
M  RAD  8   1   3   6   2   7   2   8   2  14   2  17   3  18   2  19   3
M  RAD  2  21   3  22   3
M  END
>  <REMARK>  (1) 
 SMILES O=C(COCC1CCCO1)Nc1ccc2nc[nH]c(=O)c2c1
 SMILES IDX 3 1 2 2 11 3 1 4 12 6 13 7 22 8 14 9 21 10 15 11 19 12 16 13
 SMILES IDX 18 14 17 15 20 16 4 18 5 19 6 20 7 21 10 22 8 23 9 24
 H PARENT 11 5 18 17

>  <TORSDO>  (1) 
F 5

$$$$
