/home/pchatterjee/Documents/git/vs_workflow/DiffDock/diffdock_run/pdbqt_scrubbed/Z1192499493.pdbqt
     RDKit          3D

 22 24  0  0  1  0  0  0  0  0999 V2000
    2.4897   43.3611   53.2161 C   0  0  0  0  0  2  0  0  0  0  0  0
    3.8523   43.8885   52.9676 C   0  0  0  0  0  0  0  0  0  0  0  0
    4.1699   44.6542   51.7889 N   0  0  0  0  0  0  0  0  0  0  0  0
    4.7706   43.6594   53.8193 O   0  0  0  0  0  0  0  0  0  0  0  0
    5.5336   44.6491   51.3797 C   0  0  0  0  0  0  0  0  0  0  0  0
    5.8894   43.6756   50.4408 C   0  0  0  0  0  3  0  0  0  0  0  0
    6.4744   45.5302   51.8546 C   0  0  0  0  0  3  0  0  0  0  0  0
    7.1703   43.5498   49.9530 C   0  0  0  0  0  3  0  0  0  0  0  0
    7.7819   45.4163   51.3691 C   0  0  0  0  0  0  0  0  0  0  0  0
    8.1193   44.4436   50.4363 C   0  0  0  0  0  0  0  0  0  0  0  0
    8.7908   46.2580   51.7901 C   0  0  0  0  0  0  0  0  0  0  0  0
    9.3655   44.3084   49.9507 N   0  0  0  0  0  0  0  0  0  0  0  0
   10.0398   46.1257   51.3060 N   0  0  0  0  0  0  0  0  0  0  0  0
   10.3196   45.1530   50.3904 C   0  0  0  0  0  3  0  0  0  0  0  0
    8.5502   47.1678   52.6402 O   0  0  0  0  0  0  0  0  0  0  0  0
    1.7050   44.2477   53.9393 O   0  0  0  0  0  0  0  0  0  0  0  0
    0.3607   44.1651   53.6113 C   0  0  0  0  0  2  0  0  0  0  0  0
   -0.4460   45.3215   54.1576 C   0  0  0  0  0  3  0  0  0  0  0  0
   -1.8782   44.8419   54.2798 C   0  0  0  0  0  2  0  0  0  0  0  0
   -0.5718   46.3518   53.2362 O   0  0  0  0  0  0  0  0  0  0  0  0
   -2.3643   44.9272   52.8479 C   0  0  0  0  0  2  0  0  0  0  0  0
   -1.4042   45.9096   52.2150 C   0  0  0  0  0  2  0  0  0  0  0  0
  2  4  2  0
  2  1  1  0
  3  2  1  0
  5  6  2  0
  5  3  1  0
  7  5  1  0
  8  6  1  0
  9 10  1  0
  9  7  2  0
 10  8  2  0
 11  9  1  0
 12 10  1  0
 13 14  1  0
 13 11  1  0
 14 12  2  0
 15 11  2  0
 16  1  1  0
 16 17  1  0
 18 17  1  0
 18 19  1  0
 20 22  1  0
 20 18  1  0
 21 19  1  0
 22 21  1  0
M  RAD  8   1   3   6   2   7   2   8   2  14   2  17   3  18   2  19   3
M  RAD  2  21   3  22   3
M  END
>  <REMARK>  (1) 
 SMILES O=C(COCC1CCCO1)Nc1ccc2nc[nH]c(=O)c2c1
 SMILES IDX 3 1 2 2 11 3 1 4 12 6 13 7 22 8 14 9 21 10 15 11 19 12 16 13
 SMILES IDX 18 14 17 15 20 16 4 18 5 19 6 20 7 21 10 22 8 23 9 24
 H PARENT 11 5 18 17

>  <TORSDO>  (1) 
F 5

$$$$
