/home/pchatterjee/Documents/git/vs_workflow/DiffDock/diffdock_run/pdbqt_scrubbed/Z1192499493.pdbqt
     RDKit          3D

 22 24  0  0  1  0  0  0  0  0999 V2000
    1.7134   44.4722   51.8311 C   0  0  0  0  0  2  0  0  0  0  0  0
    3.1203   44.3467   51.3825 C   0  0  0  0  0  0  0  0  0  0  0  0
    4.2060   44.9710   52.0953 N   0  0  0  0  0  0  0  0  0  0  0  0
    3.3795   43.6680   50.3369 O   0  0  0  0  0  0  0  0  0  0  0  0
    5.5026   44.8275   51.5248 C   0  0  0  0  0  0  0  0  0  0  0  0
    5.6123   43.9146   50.4710 C   0  0  0  0  0  3  0  0  0  0  0  0
    6.6051   45.5252   51.9546 C   0  0  0  0  0  3  0  0  0  0  0  0
    6.8017   43.6709   49.8226 C   0  0  0  0  0  3  0  0  0  0  0  0
    7.8226   45.2895   51.3062 C   0  0  0  0  0  0  0  0  0  0  0  0
    7.9149   44.3791   50.2608 C   0  0  0  0  0  0  0  0  0  0  0  0
    8.9806   45.9448   51.6712 C   0  0  0  0  0  0  0  0  0  0  0  0
    9.0691   44.1305   49.6181 N   0  0  0  0  0  0  0  0  0  0  0  0
   10.1381   45.6984   51.0297 N   0  0  0  0  0  0  0  0  0  0  0  0
   10.1756   44.7940   50.0083 C   0  0  0  0  0  3  0  0  0  0  0  0
    8.9655   46.7887   52.6178 O   0  0  0  0  0  0  0  0  0  0  0  0
    0.9077   43.4606   51.3289 O   0  0  0  0  0  0  0  0  0  0  0  0
   -0.4246   43.6107   51.6816 C   0  0  0  0  0  2  0  0  0  0  0  0
   -1.2373   44.3051   50.6120 C   0  0  0  0  0  3  0  0  0  0  0  0
   -2.4366   44.9240   51.3010 C   0  0  0  0  0  2  0  0  0  0  0  0
   -1.8432   43.4031   49.7485 O   0  0  0  0  0  0  0  0  0  0  0  0
   -3.3466   43.7279   51.4885 C   0  0  0  0  0  2  0  0  0  0  0  0
   -2.8438   42.7458   50.4540 C   0  0  0  0  0  2  0  0  0  0  0  0
  2  4  2  0
  2  1  1  0
  3  2  1  0
  5  6  2  0
  5  3  1  0
  7  5  1  0
  8  6  1  0
  9 10  1  0
  9  7  2  0
 10  8  2  0
 11  9  1  0
 12 10  1  0
 13 14  1  0
 13 11  1  0
 14 12  2  0
 15 11  2  0
 16  1  1  0
 16 17  1  0
 18 17  1  0
 18 19  1  0
 20 22  1  0
 20 18  1  0
 21 19  1  0
 22 21  1  0
M  RAD  8   1   3   6   2   7   2   8   2  14   2  17   3  18   2  19   3
M  RAD  2  21   3  22   3
M  END
>  <REMARK>  (1) 
 SMILES O=C(COCC1CCCO1)Nc1ccc2nc[nH]c(=O)c2c1
 SMILES IDX 3 1 2 2 11 3 1 4 12 6 13 7 22 8 14 9 21 10 15 11 19 12 16 13
 SMILES IDX 18 14 17 15 20 16 4 18 5 19 6 20 7 21 10 22 8 23 9 24
 H PARENT 11 5 18 17

>  <TORSDO>  (1) 
F 5

$$$$
