/home/pchatterjee/Documents/git/vs_workflow/DiffDock/diffdock_run/pdbqt_scrubbed/Z1192499493.pdbqt
     RDKit          3D

 22 24  0  0  1  0  0  0  0  0999 V2000
    2.2975   46.2466   53.1470 C   0  0  0  0  0  2  0  0  0  0  0  0
    3.6815   46.0821   52.6430 C   0  0  0  0  0  0  0  0  0  0  0  0
    3.9679   45.3799   51.4176 N   0  0  0  0  0  0  0  0  0  0  0  0
    4.6471   46.5749   53.3107 O   0  0  0  0  0  0  0  0  0  0  0  0
    5.3399   45.1110   51.1485 C   0  0  0  0  0  0  0  0  0  0  0  0
    5.5961   44.1524   50.1630 C   0  0  0  0  0  3  0  0  0  0  0  0
    6.3791   45.7340   51.7958 C   0  0  0  0  0  3  0  0  0  0  0  0
    6.8721   43.7894   49.7963 C   0  0  0  0  0  3  0  0  0  0  0  0
    7.6832   45.3767   51.4352 C   0  0  0  0  0  0  0  0  0  0  0  0
    7.9209   44.4224   50.4539 C   0  0  0  0  0  0  0  0  0  0  0  0
    8.7867   45.9506   52.0321 C   0  0  0  0  0  0  0  0  0  0  0  0
    9.1610   44.0575   50.0851 N   0  0  0  0  0  0  0  0  0  0  0  0
   10.0301   45.5877   51.6654 N   0  0  0  0  0  0  0  0  0  0  0  0
   10.2097   44.6446   50.6954 C   0  0  0  0  0  3  0  0  0  0  0  0
    8.6399   46.8286   52.9354 O   0  0  0  0  0  0  0  0  0  0  0  0
    1.8240   45.1014   53.7707 O   0  0  0  0  0  0  0  0  0  0  0  0
    1.1649   44.2489   52.8986 C   0  0  0  0  0  2  0  0  0  0  0  0
   -0.3215   44.5177   52.8307 C   0  0  0  0  0  3  0  0  0  0  0  0
   -1.0201   43.2541   53.2905 C   0  0  0  0  0  2  0  0  0  0  0  0
   -0.7730   44.6290   51.5231 O   0  0  0  0  0  0  0  0  0  0  0  0
   -0.9269   42.3749   52.0608 C   0  0  0  0  0  2  0  0  0  0  0  0
   -0.7069   43.3684   50.9418 C   0  0  0  0  0  2  0  0  0  0  0  0
  2  4  2  0
  2  1  1  0
  3  2  1  0
  5  6  2  0
  5  3  1  0
  7  5  1  0
  8  6  1  0
  9 10  1  0
  9  7  2  0
 10  8  2  0
 11  9  1  0
 12 10  1  0
 13 14  1  0
 13 11  1  0
 14 12  2  0
 15 11  2  0
 16  1  1  0
 16 17  1  0
 18 17  1  0
 18 19  1  0
 20 22  1  0
 20 18  1  0
 21 19  1  0
 22 21  1  0
M  RAD  8   1   3   6   2   7   2   8   2  14   2  17   3  18   2  19   3
M  RAD  2  21   3  22   3
M  END
>  <REMARK>  (1) 
 SMILES O=C(COCC1CCCO1)Nc1ccc2nc[nH]c(=O)c2c1
 SMILES IDX 3 1 2 2 11 3 1 4 12 6 13 7 22 8 14 9 21 10 15 11 19 12 16 13
 SMILES IDX 18 14 17 15 20 16 4 18 5 19 6 20 7 21 10 22 8 23 9 24
 H PARENT 11 5 18 17

>  <TORSDO>  (1) 
F 5

$$$$
