/home/pchatterjee/Documents/git/vs_workflow/DiffDock/diffdock_run/pdbqt_scrubbed/Z1192499493.pdbqt
     RDKit          3D

 22 24  0  0  1  0  0  0  0  0999 V2000
    2.2290   45.2448   53.4592 C   0  0  0  0  0  2  0  0  0  0  0  0
    3.5933   45.6596   53.0553 C   0  0  0  0  0  0  0  0  0  0  0  0
    3.9550   45.8469   51.6730 N   0  0  0  0  0  0  0  0  0  0  0  0
    4.4730   45.8568   53.9543 O   0  0  0  0  0  0  0  0  0  0  0  0
    5.2826   45.4809   51.3114 C   0  0  0  0  0  0  0  0  0  0  0  0
    5.4017   44.4480   50.3760 C   0  0  0  0  0  3  0  0  0  0  0  0
    6.4052   46.0813   51.8272 C   0  0  0  0  0  3  0  0  0  0  0  0
    6.6203   43.9877   49.9317 C   0  0  0  0  0  3  0  0  0  0  0  0
    7.6526   45.6254   51.3862 C   0  0  0  0  0  0  0  0  0  0  0  0
    7.7540   44.5981   50.4563 C   0  0  0  0  0  0  0  0  0  0  0  0
    8.8324   46.1698   51.8502 C   0  0  0  0  0  0  0  0  0  0  0  0
    8.9366   44.1379   50.0130 N   0  0  0  0  0  0  0  0  0  0  0  0
   10.0185   45.7115   51.4085 N   0  0  0  0  0  0  0  0  0  0  0  0
   10.0637   44.6996   50.4937 C   0  0  0  0  0  3  0  0  0  0  0  0
    8.8107   47.1107   52.7002 O   0  0  0  0  0  0  0  0  0  0  0  0
    1.3741   45.1165   52.3741 O   0  0  0  0  0  0  0  0  0  0  0  0
    0.3548   44.2042   52.5990 C   0  0  0  0  0  2  0  0  0  0  0  0
   -0.9399   44.8657   53.0147 C   0  0  0  0  0  3  0  0  0  0  0  0
   -1.9734   43.7661   53.1511 C   0  0  0  0  0  2  0  0  0  0  0  0
   -1.4825   45.6372   51.9966 O   0  0  0  0  0  0  0  0  0  0  0  0
   -2.3471   43.5013   51.7075 C   0  0  0  0  0  2  0  0  0  0  0  0
   -1.9341   44.7752   51.0045 C   0  0  0  0  0  2  0  0  0  0  0  0
  2  4  2  0
  2  1  1  0
  3  2  1  0
  5  6  2  0
  5  3  1  0
  7  5  1  0
  8  6  1  0
  9 10  1  0
  9  7  2  0
 10  8  2  0
 11  9  1  0
 12 10  1  0
 13 14  1  0
 13 11  1  0
 14 12  2  0
 15 11  2  0
 16  1  1  0
 16 17  1  0
 18 17  1  0
 18 19  1  0
 20 22  1  0
 20 18  1  0
 21 19  1  0
 22 21  1  0
M  RAD  8   1   3   6   2   7   2   8   2  14   2  17   3  18   2  19   3
M  RAD  2  21   3  22   3
M  END
>  <REMARK>  (1) 
 SMILES O=C(COCC1CCCO1)Nc1ccc2nc[nH]c(=O)c2c1
 SMILES IDX 3 1 2 2 11 3 1 4 12 6 13 7 22 8 14 9 21 10 15 11 19 12 16 13
 SMILES IDX 18 14 17 15 20 16 4 18 5 19 6 20 7 21 10 22 8 23 9 24
 H PARENT 11 5 18 17

>  <TORSDO>  (1) 
F 5

$$$$
