/home/pchatterjee/Documents/git/vs_workflow/DiffDock/diffdock_run/pdbqt_scrubbed/Z1192499493.pdbqt
     RDKit          3D

 22 24  0  0  1  0  0  0  0  0999 V2000
    2.2845   45.3018   53.3822 C   0  0  0  0  0  2  0  0  0  0  0  0
    3.6803   45.4876   52.9202 C   0  0  0  0  0  0  0  0  0  0  0  0
    4.0280   45.4769   51.5217 N   0  0  0  0  0  0  0  0  0  0  0  0
    4.6008   45.6618   53.7824 O   0  0  0  0  0  0  0  0  0  0  0  0
    5.3771   45.1472   51.2078 C   0  0  0  0  0  0  0  0  0  0  0  0
    5.5576   44.1747   50.2191 C   0  0  0  0  0  3  0  0  0  0  0  0
    6.4638   45.7265   51.8164 C   0  0  0  0  0  3  0  0  0  0  0  0
    6.8033   43.7548   49.8115 C   0  0  0  0  0  3  0  0  0  0  0  0
    7.7381   45.3111   51.4138 C   0  0  0  0  0  0  0  0  0  0  0  0
    7.9004   44.3437   50.4300 C   0  0  0  0  0  0  0  0  0  0  0  0
    8.8852   45.8383   51.9702 C   0  0  0  0  0  0  0  0  0  0  0  0
    9.1102   43.9235   50.0215 N   0  0  0  0  0  0  0  0  0  0  0  0
   10.0984   45.4200   51.5636 N   0  0  0  0  0  0  0  0  0  0  0  0
   10.2037   44.4663   50.5929 C   0  0  0  0  0  3  0  0  0  0  0  0
    8.8076   46.7253   52.8733 O   0  0  0  0  0  0  0  0  0  0  0  0
    1.3772   45.3031   52.3326 O   0  0  0  0  0  0  0  0  0  0  0  0
    0.7979   44.0613   52.1227 C   0  0  0  0  0  2  0  0  0  0  0  0
   -0.6995   44.1408   51.9272 C   0  0  0  0  0  3  0  0  0  0  0  0
   -1.2608   42.7721   52.2557 C   0  0  0  0  0  2  0  0  0  0  0  0
   -1.0452   44.2732   50.5896 O   0  0  0  0  0  0  0  0  0  0  0  0
   -0.9436   41.9893   50.9985 C   0  0  0  0  0  2  0  0  0  0  0  0
   -0.7607   43.0696   49.9558 C   0  0  0  0  0  2  0  0  0  0  0  0
  2  4  2  0
  2  1  1  0
  3  2  1  0
  5  6  2  0
  5  3  1  0
  7  5  1  0
  8  6  1  0
  9 10  1  0
  9  7  2  0
 10  8  2  0
 11  9  1  0
 12 10  1  0
 13 14  1  0
 13 11  1  0
 14 12  2  0
 15 11  2  0
 16  1  1  0
 16 17  1  0
 18 17  1  0
 18 19  1  0
 20 22  1  0
 20 18  1  0
 21 19  1  0
 22 21  1  0
M  RAD  8   1   3   6   2   7   2   8   2  14   2  17   3  18   2  19   3
M  RAD  2  21   3  22   3
M  END
>  <REMARK>  (1) 
 SMILES O=C(COCC1CCCO1)Nc1ccc2nc[nH]c(=O)c2c1
 SMILES IDX 3 1 2 2 11 3 1 4 12 6 13 7 22 8 14 9 21 10 15 11 19 12 16 13
 SMILES IDX 18 14 17 15 20 16 4 18 5 19 6 20 7 21 10 22 8 23 9 24
 H PARENT 11 5 18 17

>  <TORSDO>  (1) 
F 5

$$$$
