/home/pchatterjee/Documents/git/vs_workflow/DiffDock/diffdock_run/pdbqt_scrubbed/Z28511349.pdbqt
     RDKit          3D

 25 28  0  0  1  0  0  0  0  0999 V2000
    4.1623   43.6696   50.8065 N   0  0  0  0  0  0  0  0  0  0  0  0
    3.0152   42.9039   51.1538 C   0  0  0  0  0  0  0  0  0  0  0  0
    2.9141   41.6725   50.9938 O   0  0  0  0  0  0  0  0  0  0  0  0
    1.8561   43.6185   51.7485 C   0  0  0  0  0  3  0  0  0  0  0  0
    1.5373   43.1627   53.1770 C   0  0  0  0  0  2  0  0  0  0  0  0
    0.5195   43.0008   51.3514 C   0  0  0  0  0  2  0  0  0  0  0  0
    0.4925   42.1792   52.6342 C   0  0  0  0  0  2  0  0  0  0  0  0
    5.3720   43.0521   50.2957 C   0  0  0  0  0  2  0  0  0  0  0  0
    6.5944   43.8463   50.5853 C   0  0  0  0  0  0  0  0  0  0  0  0
    6.4859   44.8084   51.5328 N   0  0  0  0  0  0  0  0  0  0  0  0
    7.7673   43.6475   49.9575 N   0  0  0  0  0  0  0  0  0  0  0  0
    7.5511   45.5793   51.8594 C   0  0  0  0  0  0  0  0  0  0  0  0
    8.8373   44.3751   50.2415 C   0  0  0  0  0  0  0  0  0  0  0  0
    7.4357   46.5534   52.8209 C   0  0  0  0  0  3  0  0  0  0  0  0
    8.7486   45.3702   51.2127 C   0  0  0  0  0  0  0  0  0  0  0  0
    8.5157   47.3337   53.1508 C   0  0  0  0  0  3  0  0  0  0  0  0
    9.8298   46.1527   51.5443 C   0  0  0  0  0  3  0  0  0  0  0  0
    9.7065   47.1236   52.5057 C   0  0  0  0  0  3  0  0  0  0  0  0
    9.9437   44.1725   49.6351 O   0  0  0  0  0  0  0  0  0  0  0  0
    4.1905   45.1256   50.9437 C   0  0  0  0  0  2  0  0  0  0  0  0
    3.3871   45.4495   52.1857 C   0  0  0  0  0  3  0  0  0  0  0  0
    4.1670   45.0351   53.3831 C   0  0  0  0  0  2  0  0  0  0  0  0
    3.1147   46.8020   52.2919 O   0  0  0  0  0  0  0  0  0  0  0  0
    4.0440   46.1639   54.3507 C   0  0  0  0  0  2  0  0  0  0  0  0
    3.3708   47.2299   53.5630 C   0  0  0  0  0  2  0  0  0  0  0  0
  1 20  1  0
  2  3  2  0
  2  1  1  0
  4  2  1  0
  5  4  1  0
  6  4  1  0
  7  6  1  0
  7  5  1  0
  8  1  1  0
  8  9  1  0
  9 11  1  0
 10  9  2  0
 10 12  1  0
 11 13  1  0
 12 15  2  0
 13 19  2  0
 14 12  1  0
 14 16  2  0
 15 13  1  0
 15 17  1  0
 16 18  1  0
 18 17  2  0
 21 20  1  0
 21 22  1  0
 21 23  1  0
 22 24  1  0
 23 25  1  0
 24 25  1  0
M  RAD  8   4   2   5   3   6   3   7   3   8   3  14   2  16   2  17   2
M  RAD  6  18   2  20   3  21   2  22   3  24   3  25   3
M  END
>  <REMARK>  (1) 
 SMILES O=C(C1CCC1)N(Cc1nc2ccccc2c(=O)[nH]1)CC1CCCO1
 SMILES IDX 7 1 2 2 1 3 3 4 4 5 6 6 5 7 8 8 9 9 10 10 19 11 11 12 17 13
 SMILES IDX 12 14 16 15 13 16 15 17 14 18 18 20 20 21 21 22 22 23 25 24
 SMILES IDX 23 25 24 26
 H PARENT 19 19

>  <TORSDO>  (1) 
F 6

$$$$
