/home/pchatterjee/Documents/git/vs_workflow/DiffDock/diffdock_run/pdbqt_scrubbed/Z28511349.pdbqt
     RDKit          3D

 25 28  0  0  1  0  0  0  0  0999 V2000
    4.5140   42.6607   50.2391 N   0  0  0  0  0  0  0  0  0  0  0  0
    3.7386   41.7031   49.5287 C   0  0  0  0  0  0  0  0  0  0  0  0
    4.1337   40.5617   49.2238 O   0  0  0  0  0  0  0  0  0  0  0  0
    2.3625   42.0874   49.1206 C   0  0  0  0  0  3  0  0  0  0  0  0
    1.2759   41.2592   49.8159 C   0  0  0  0  0  2  0  0  0  0  0  0
    1.9231   41.4088   47.8275 C   0  0  0  0  0  2  0  0  0  0  0  0
    1.2303   40.3044   48.6160 C   0  0  0  0  0  2  0  0  0  0  0  0
    5.6821   42.2819   51.0120 C   0  0  0  0  0  2  0  0  0  0  0  0
    6.7411   43.3248   51.0098 C   0  0  0  0  0  0  0  0  0  0  0  0
    6.6003   44.3382   51.8976 N   0  0  0  0  0  0  0  0  0  0  0  0
    7.8007   43.2962   50.1818 N   0  0  0  0  0  0  0  0  0  0  0  0
    7.5195   45.3315   51.9634 C   0  0  0  0  0  0  0  0  0  0  0  0
    8.7262   44.2437   50.2076 C   0  0  0  0  0  0  0  0  0  0  0  0
    7.3720   46.3567   52.8654 C   0  0  0  0  0  3  0  0  0  0  0  0
    8.6017   45.2957   51.1127 C   0  0  0  0  0  0  0  0  0  0  0  0
    8.3041   47.3622   52.9311 C   0  0  0  0  0  3  0  0  0  0  0  0
    9.5346   46.3038   51.1796 C   0  0  0  0  0  3  0  0  0  0  0  0
    9.3802   47.3244   52.0833 C   0  0  0  0  0  3  0  0  0  0  0  0
    9.7264   44.2006   49.4135 O   0  0  0  0  0  0  0  0  0  0  0  0
    4.1795   44.0847   50.2326 C   0  0  0  0  0  2  0  0  0  0  0  0
    3.0356   44.2554   51.2101 C   0  0  0  0  0  3  0  0  0  0  0  0
    3.5018   43.8625   52.5673 C   0  0  0  0  0  2  0  0  0  0  0  0
    2.5895   45.5640   51.2664 O   0  0  0  0  0  0  0  0  0  0  0  0
    2.9892   44.9188   53.4875 C   0  0  0  0  0  2  0  0  0  0  0  0
    2.4375   45.9483   52.5678 C   0  0  0  0  0  2  0  0  0  0  0  0
  1 20  1  0
  2  3  2  0
  2  1  1  0
  4  2  1  0
  5  4  1  0
  6  4  1  0
  7  6  1  0
  7  5  1  0
  8  1  1  0
  8  9  1  0
  9 11  1  0
 10  9  2  0
 10 12  1  0
 11 13  1  0
 12 15  2  0
 13 19  2  0
 14 12  1  0
 14 16  2  0
 15 13  1  0
 15 17  1  0
 16 18  1  0
 18 17  2  0
 21 20  1  0
 21 22  1  0
 21 23  1  0
 22 24  1  0
 23 25  1  0
 24 25  1  0
M  RAD  8   4   2   5   3   6   3   7   3   8   3  14   2  16   2  17   2
M  RAD  6  18   2  20   3  21   2  22   3  24   3  25   3
M  END
>  <REMARK>  (1) 
 SMILES O=C(C1CCC1)N(Cc1nc2ccccc2c(=O)[nH]1)CC1CCCO1
 SMILES IDX 7 1 2 2 1 3 3 4 4 5 6 6 5 7 8 8 9 9 10 10 19 11 11 12 17 13
 SMILES IDX 12 14 16 15 13 16 15 17 14 18 18 20 20 21 21 22 22 23 25 24
 SMILES IDX 23 25 24 26
 H PARENT 19 19

>  <TORSDO>  (1) 
F 6

$$$$
