/home/pchatterjee/Documents/git/vs_workflow/DiffDock/diffdock_run/pdbqt_scrubbed/Z28511349.pdbqt
     RDKit          3D

 25 28  0  0  1  0  0  0  0  0999 V2000
    4.0484   43.5850   50.4073 N   0  0  0  0  0  0  0  0  0  0  0  0
    3.4551   42.4788   51.0760 C   0  0  0  0  0  0  0  0  0  0  0  0
    4.0706   41.4542   51.4274 O   0  0  0  0  0  0  0  0  0  0  0  0
    2.0017   42.5465   51.3775 C   0  0  0  0  0  3  0  0  0  0  0  0
    1.6680   43.5217   52.5122 C   0  0  0  0  0  2  0  0  0  0  0  0
    1.5459   41.4377   52.3202 C   0  0  0  0  0  2  0  0  0  0  0  0
    1.6955   42.3651   53.5197 C   0  0  0  0  0  2  0  0  0  0  0  0
    5.2053   43.4307   49.5453 C   0  0  0  0  0  2  0  0  0  0  0  0
    6.4287   44.0684   50.0982 C   0  0  0  0  0  0  0  0  0  0  0  0
    6.2522   44.9455   51.1154 N   0  0  0  0  0  0  0  0  0  0  0  0
    7.6656   43.8116   49.6364 N   0  0  0  0  0  0  0  0  0  0  0  0
    7.3131   45.5724   51.6787 C   0  0  0  0  0  0  0  0  0  0  0  0
    8.7344   44.3990   50.1538 C   0  0  0  0  0  0  0  0  0  0  0  0
    7.1287   46.4608   52.7098 C   0  0  0  0  0  3  0  0  0  0  0  0
    8.5764   45.3046   51.2008 C   0  0  0  0  0  0  0  0  0  0  0  0
    8.2044   47.0953   53.2795 C   0  0  0  0  0  3  0  0  0  0  0  0
    9.6531   45.9410   51.7725 C   0  0  0  0  0  3  0  0  0  0  0  0
    9.4607   46.8270   52.8022 C   0  0  0  0  0  3  0  0  0  0  0  0
    9.9022   44.1430   49.7026 O   0  0  0  0  0  0  0  0  0  0  0  0
    3.5271   44.9443   50.5492 C   0  0  0  0  0  2  0  0  0  0  0  0
    4.2506   45.5539   51.7316 C   0  0  0  0  0  3  0  0  0  0  0  0
    3.6182   46.8602   52.0594 C   0  0  0  0  0  2  0  0  0  0  0  0
    4.1865   44.7470   52.8540 O   0  0  0  0  0  0  0  0  0  0  0  0
    3.4802   46.8762   53.5447 C   0  0  0  0  0  2  0  0  0  0  0  0
    3.8577   45.4958   53.9474 C   0  0  0  0  0  2  0  0  0  0  0  0
  1 20  1  0
  2  3  2  0
  2  1  1  0
  4  2  1  0
  5  4  1  0
  6  4  1  0
  7  6  1  0
  7  5  1  0
  8  1  1  0
  8  9  1  0
  9 11  1  0
 10  9  2  0
 10 12  1  0
 11 13  1  0
 12 15  2  0
 13 19  2  0
 14 12  1  0
 14 16  2  0
 15 13  1  0
 15 17  1  0
 16 18  1  0
 18 17  2  0
 21 20  1  0
 21 22  1  0
 21 23  1  0
 22 24  1  0
 23 25  1  0
 24 25  1  0
M  RAD  8   4   2   5   3   6   3   7   3   8   3  14   2  16   2  17   2
M  RAD  6  18   2  20   3  21   2  22   3  24   3  25   3
M  END
>  <REMARK>  (1) 
 SMILES O=C(C1CCC1)N(Cc1nc2ccccc2c(=O)[nH]1)CC1CCCO1
 SMILES IDX 7 1 2 2 1 3 3 4 4 5 6 6 5 7 8 8 9 9 10 10 19 11 11 12 17 13
 SMILES IDX 12 14 16 15 13 16 15 17 14 18 18 20 20 21 21 22 22 23 25 24
 SMILES IDX 23 25 24 26
 H PARENT 19 19

>  <TORSDO>  (1) 
F 6

$$$$
