/home/pchatterjee/Documents/git/vs_workflow/DiffDock/diffdock_run/pdbqt_scrubbed/Z28511349.pdbqt
     RDKit          3D

 25 28  0  0  1  0  0  0  0  0999 V2000
    4.5194   42.8895   50.6589 N   0  0  0  0  0  0  0  0  0  0  0  0
    3.2796   42.2639   50.3519 C   0  0  0  0  0  0  0  0  0  0  0  0
    2.4001   41.9915   51.1911 O   0  0  0  0  0  0  0  0  0  0  0  0
    3.0117   41.9097   48.9339 C   0  0  0  0  0  3  0  0  0  0  0  0
    1.5260   41.9889   48.5648 C   0  0  0  0  0  2  0  0  0  0  0  0
    2.8907   40.4048   48.7181 C   0  0  0  0  0  2  0  0  0  0  0  0
    1.3740   40.4870   48.8379 C   0  0  0  0  0  2  0  0  0  0  0  0
    5.5681   43.0432   49.6679 C   0  0  0  0  0  2  0  0  0  0  0  0
    6.7147   43.8514   50.1587 C   0  0  0  0  0  0  0  0  0  0  0  0
    6.4644   44.7091   51.1769 N   0  0  0  0  0  0  0  0  0  0  0  0
    7.9532   43.7621   49.6416 N   0  0  0  0  0  0  0  0  0  0  0  0
    7.4523   45.4844   51.6857 C   0  0  0  0  0  0  0  0  0  0  0  0
    8.9524   44.4987   50.1044 C   0  0  0  0  0  0  0  0  0  0  0  0
    7.1931   46.3523   52.7181 C   0  0  0  0  0  3  0  0  0  0  0  0
    8.7177   45.3876   51.1514 C   0  0  0  0  0  0  0  0  0  0  0  0
    8.1948   47.1372   53.2326 C   0  0  0  0  0  3  0  0  0  0  0  0
    9.7203   46.1745   51.6678 C   0  0  0  0  0  3  0  0  0  0  0  0
    9.4534   47.0390   52.6991 C   0  0  0  0  0  3  0  0  0  0  0  0
   10.1228   44.4008   49.6011 O   0  0  0  0  0  0  0  0  0  0  0  0
    4.8109   43.4152   51.9924 C   0  0  0  0  0  2  0  0  0  0  0  0
    4.4350   44.8817   51.9609 C   0  0  0  0  0  3  0  0  0  0  0  0
    3.0114   45.0032   51.5458 C   0  0  0  0  0  2  0  0  0  0  0  0
    4.5790   45.4831   53.1988 O   0  0  0  0  0  0  0  0  0  0  0  0
    2.4087   46.0048   52.4726 C   0  0  0  0  0  2  0  0  0  0  0  0
    3.4762   46.2372   53.4809 C   0  0  0  0  0  2  0  0  0  0  0  0
  1 20  1  0
  2  3  2  0
  2  1  1  0
  4  2  1  0
  5  4  1  0
  6  4  1  0
  7  6  1  0
  7  5  1  0
  8  1  1  0
  8  9  1  0
  9 11  1  0
 10  9  2  0
 10 12  1  0
 11 13  1  0
 12 15  2  0
 13 19  2  0
 14 12  1  0
 14 16  2  0
 15 13  1  0
 15 17  1  0
 16 18  1  0
 18 17  2  0
 21 20  1  0
 21 22  1  0
 21 23  1  0
 22 24  1  0
 23 25  1  0
 24 25  1  0
M  RAD  8   4   2   5   3   6   3   7   3   8   3  14   2  16   2  17   2
M  RAD  6  18   2  20   3  21   2  22   3  24   3  25   3
M  END
>  <REMARK>  (1) 
 SMILES O=C(C1CCC1)N(Cc1nc2ccccc2c(=O)[nH]1)CC1CCCO1
 SMILES IDX 7 1 2 2 1 3 3 4 4 5 6 6 5 7 8 8 9 9 10 10 19 11 11 12 17 13
 SMILES IDX 12 14 16 15 13 16 15 17 14 18 18 20 20 21 21 22 22 23 25 24
 SMILES IDX 23 25 24 26
 H PARENT 19 19

>  <TORSDO>  (1) 
F 6

$$$$
