/home/pchatterjee/Documents/git/vs_workflow/DiffDock/diffdock_run/pdbqt_scrubbed/Z28511349.pdbqt
     RDKit          3D

 25 28  0  0  1  0  0  0  0  0999 V2000
    4.4809   42.8395   50.1728 N   0  0  0  0  0  0  0  0  0  0  0  0
    3.4747   42.0673   49.5295 C   0  0  0  0  0  0  0  0  0  0  0  0
    3.7013   41.1313   48.7392 O   0  0  0  0  0  0  0  0  0  0  0  0
    2.0547   42.3969   49.8176 C   0  0  0  0  0  3  0  0  0  0  0  0
    1.5565   41.8042   51.1406 C   0  0  0  0  0  2  0  0  0  0  0  0
    1.0807   41.4455   49.1307 C   0  0  0  0  0  2  0  0  0  0  0  0
    0.9920   40.5916   50.3893 C   0  0  0  0  0  2  0  0  0  0  0  0
    5.7895   42.2929   50.4797 C   0  0  0  0  0  2  0  0  0  0  0  0
    6.8294   43.3409   50.6505 C   0  0  0  0  0  0  0  0  0  0  0  0
    6.5854   44.2959   51.5797 N   0  0  0  0  0  0  0  0  0  0  0  0
    7.9685   43.3712   49.9357 N   0  0  0  0  0  0  0  0  0  0  0  0
    7.4800   45.2893   51.8007 C   0  0  0  0  0  0  0  0  0  0  0  0
    8.8740   44.3214   50.1147 C   0  0  0  0  0  0  0  0  0  0  0  0
    7.2277   46.2551   52.7439 C   0  0  0  0  0  3  0  0  0  0  0  0
    8.6438   45.3139   51.0651 C   0  0  0  0  0  0  0  0  0  0  0  0
    8.1349   47.2609   52.9667 C   0  0  0  0  0  3  0  0  0  0  0  0
    9.5518   46.3221   51.2894 C   0  0  0  0  0  3  0  0  0  0  0  0
    9.2925   47.2833   52.2334 C   0  0  0  0  0  3  0  0  0  0  0  0
    9.9506   44.3347   49.4265 O   0  0  0  0  0  0  0  0  0  0  0  0
    4.2561   44.2311   50.5634 C   0  0  0  0  0  2  0  0  0  0  0  0
    3.2177   44.1991   51.6652 C   0  0  0  0  0  3  0  0  0  0  0  0
    3.9133   44.1090   52.9773 C   0  0  0  0  0  2  0  0  0  0  0  0
    2.4279   45.3354   51.6697 O   0  0  0  0  0  0  0  0  0  0  0  0
    3.2205   45.0875   53.8652 C   0  0  0  0  0  2  0  0  0  0  0  0
    2.3085   45.8139   52.9429 C   0  0  0  0  0  2  0  0  0  0  0  0
  1 20  1  0
  2  3  2  0
  2  1  1  0
  4  2  1  0
  5  4  1  0
  6  4  1  0
  7  6  1  0
  7  5  1  0
  8  1  1  0
  8  9  1  0
  9 11  1  0
 10  9  2  0
 10 12  1  0
 11 13  1  0
 12 15  2  0
 13 19  2  0
 14 12  1  0
 14 16  2  0
 15 13  1  0
 15 17  1  0
 16 18  1  0
 18 17  2  0
 21 20  1  0
 21 22  1  0
 21 23  1  0
 22 24  1  0
 23 25  1  0
 24 25  1  0
M  RAD  8   4   2   5   3   6   3   7   3   8   3  14   2  16   2  17   2
M  RAD  6  18   2  20   3  21   2  22   3  24   3  25   3
M  END
>  <REMARK>  (1) 
 SMILES O=C(C1CCC1)N(Cc1nc2ccccc2c(=O)[nH]1)CC1CCCO1
 SMILES IDX 7 1 2 2 1 3 3 4 4 5 6 6 5 7 8 8 9 9 10 10 19 11 11 12 17 13
 SMILES IDX 12 14 16 15 13 16 15 17 14 18 18 20 20 21 21 22 22 23 25 24
 SMILES IDX 23 25 24 26
 H PARENT 19 19

>  <TORSDO>  (1) 
F 6

$$$$
