/home/pchatterjee/Documents/git/vs_workflow/DiffDock/diffdock_run/pdbqt_scrubbed/Z28511349.pdbqt
     RDKit          3D

 25 28  0  0  1  0  0  0  0  0999 V2000
    3.9305   46.1948   53.3225 N   0  0  0  0  0  0  0  0  0  0  0  0
    3.2838   44.9339   53.4447 C   0  0  0  0  0  0  0  0  0  0  0  0
    3.7948   43.9272   53.9713 O   0  0  0  0  0  0  0  0  0  0  0  0
    1.9040   44.8053   52.9084 C   0  0  0  0  0  3  0  0  0  0  0  0
    1.3489   43.3802   53.0127 C   0  0  0  0  0  2  0  0  0  0  0  0
    1.8784   44.6062   51.3967 C   0  0  0  0  0  2  0  0  0  0  0  0
    1.8001   43.0951   51.5744 C   0  0  0  0  0  2  0  0  0  0  0  0
    4.9287   46.6413   54.2762 C   0  0  0  0  0  2  0  0  0  0  0  0
    6.3089   46.6141   53.7254 C   0  0  0  0  0  0  0  0  0  0  0  0
    6.4819   45.9701   52.5462 N   0  0  0  0  0  0  0  0  0  0  0  0
    7.3581   47.1894   54.3397 N   0  0  0  0  0  0  0  0  0  0  0  0
    7.7072   45.8970   51.9725 C   0  0  0  0  0  0  0  0  0  0  0  0
    8.5755   47.1453   53.8191 C   0  0  0  0  0  0  0  0  0  0  0  0
    7.8772   45.2429   50.7769 C   0  0  0  0  0  3  0  0  0  0  0  0
    8.7767   46.4883   52.6070 C   0  0  0  0  0  0  0  0  0  0  0  0
    9.1190   45.1696   50.1967 C   0  0  0  0  0  3  0  0  0  0  0  0
   10.0203   46.4140   52.0247 C   0  0  0  0  0  3  0  0  0  0  0  0
   10.1819   45.7588   50.8302 C   0  0  0  0  0  3  0  0  0  0  0  0
    9.5610   47.6975   54.4165 O   0  0  0  0  0  0  0  0  0  0  0  0
    3.6273   47.1163   52.2278 C   0  0  0  0  0  2  0  0  0  0  0  0
    3.0092   48.3428   52.8657 C   0  0  0  0  0  3  0  0  0  0  0  0
    3.9279   48.8493   53.9207 C   0  0  0  0  0  2  0  0  0  0  0  0
    2.8001   49.3576   51.9485 O   0  0  0  0  0  0  0  0  0  0  0  0
    3.9745   50.3286   53.7338 C   0  0  0  0  0  2  0  0  0  0  0  0
    3.2388   50.5450   52.4602 C   0  0  0  0  0  2  0  0  0  0  0  0
  1 20  1  0
  2  3  2  0
  2  1  1  0
  4  2  1  0
  5  4  1  0
  6  4  1  0
  7  6  1  0
  7  5  1  0
  8  1  1  0
  8  9  1  0
  9 11  1  0
 10  9  2  0
 10 12  1  0
 11 13  1  0
 12 15  2  0
 13 19  2  0
 14 12  1  0
 14 16  2  0
 15 13  1  0
 15 17  1  0
 16 18  1  0
 18 17  2  0
 21 20  1  0
 21 22  1  0
 21 23  1  0
 22 24  1  0
 23 25  1  0
 24 25  1  0
M  RAD  8   4   2   5   3   6   3   7   3   8   3  14   2  16   2  17   2
M  RAD  6  18   2  20   3  21   2  22   3  24   3  25   3
M  END
>  <REMARK>  (1) 
 SMILES O=C(C1CCC1)N(Cc1nc2ccccc2c(=O)[nH]1)CC1CCCO1
 SMILES IDX 7 1 2 2 1 3 3 4 4 5 6 6 5 7 8 8 9 9 10 10 19 11 11 12 17 13
 SMILES IDX 12 14 16 15 13 16 15 17 14 18 18 20 20 21 21 22 22 23 25 24
 SMILES IDX 23 25 24 26
 H PARENT 19 19

>  <TORSDO>  (1) 
F 6

$$$$
