/home/pchatterjee/Documents/git/vs_workflow/DiffDock/diffdock_run/pdbqt_scrubbed/Z28511349.pdbqt
     RDKit          3D

 25 28  0  0  1  0  0  0  0  0999 V2000
    4.4497   43.1538   50.3336 N   0  0  0  0  0  0  0  0  0  0  0  0
    3.5182   42.3544   49.6152 C   0  0  0  0  0  0  0  0  0  0  0  0
    2.3190   42.6473   49.4477 O   0  0  0  0  0  0  0  0  0  0  0  0
    4.0056   41.0819   49.0226 C   0  0  0  0  0  3  0  0  0  0  0  0
    4.4968   41.2403   47.5791 C   0  0  0  0  0  2  0  0  0  0  0  0
    2.8770   40.2322   48.4481 C   0  0  0  0  0  2  0  0  0  0  0  0
    3.1194   40.8092   47.0590 C   0  0  0  0  0  2  0  0  0  0  0  0
    5.6622   42.5958   50.9026 C   0  0  0  0  0  2  0  0  0  0  0  0
    6.7736   43.5798   50.9762 C   0  0  0  0  0  0  0  0  0  0  0  0
    6.6443   44.5788   51.8819 N   0  0  0  0  0  0  0  0  0  0  0  0
    7.8686   43.5131   50.1978 N   0  0  0  0  0  0  0  0  0  0  0  0
    7.6105   45.5193   52.0156 C   0  0  0  0  0  0  0  0  0  0  0  0
    8.8406   44.4085   50.2907 C   0  0  0  0  0  0  0  0  0  0  0  0
    7.4743   46.5301   52.9355 C   0  0  0  0  0  3  0  0  0  0  0  0
    8.7286   45.4447   51.2155 C   0  0  0  0  0  0  0  0  0  0  0  0
    8.4539   47.4822   53.0699 C   0  0  0  0  0  3  0  0  0  0  0  0
    9.7092   46.3992   51.3512 C   0  0  0  0  0  3  0  0  0  0  0  0
    9.5658   47.4057   52.2724 C   0  0  0  0  0  3  0  0  0  0  0  0
    9.8739   44.3297   49.5431 O   0  0  0  0  0  0  0  0  0  0  0  0
    4.2404   44.5865   50.5413 C   0  0  0  0  0  2  0  0  0  0  0  0
    3.0833   44.7092   51.5104 C   0  0  0  0  0  3  0  0  0  0  0  0
    3.4939   44.1398   52.8222 C   0  0  0  0  0  2  0  0  0  0  0  0
    2.7064   46.0260   51.7077 O   0  0  0  0  0  0  0  0  0  0  0  0
    3.0157   45.1122   53.8475 C   0  0  0  0  0  2  0  0  0  0  0  0
    2.5429   46.2684   53.0414 C   0  0  0  0  0  2  0  0  0  0  0  0
  1 20  1  0
  2  3  2  0
  2  1  1  0
  4  2  1  0
  5  4  1  0
  6  4  1  0
  7  6  1  0
  7  5  1  0
  8  1  1  0
  8  9  1  0
  9 11  1  0
 10  9  2  0
 10 12  1  0
 11 13  1  0
 12 15  2  0
 13 19  2  0
 14 12  1  0
 14 16  2  0
 15 13  1  0
 15 17  1  0
 16 18  1  0
 18 17  2  0
 21 20  1  0
 21 22  1  0
 21 23  1  0
 22 24  1  0
 23 25  1  0
 24 25  1  0
M  RAD  8   4   2   5   3   6   3   7   3   8   3  14   2  16   2  17   2
M  RAD  6  18   2  20   3  21   2  22   3  24   3  25   3
M  END
>  <REMARK>  (1) 
 SMILES O=C(C1CCC1)N(Cc1nc2ccccc2c(=O)[nH]1)CC1CCCO1
 SMILES IDX 7 1 2 2 1 3 3 4 4 5 6 6 5 7 8 8 9 9 10 10 19 11 11 12 17 13
 SMILES IDX 12 14 16 15 13 16 15 17 14 18 18 20 20 21 21 22 22 23 25 24
 SMILES IDX 23 25 24 26
 H PARENT 19 19

>  <TORSDO>  (1) 
F 6

$$$$
