/home/pchatterjee/Documents/git/vs_workflow/DiffDock/diffdock_run/pdbqt_scrubbed/Z28511349.pdbqt
     RDKit          3D

 25 28  0  0  1  0  0  0  0  0999 V2000
    4.6637   42.8416   50.0238 N   0  0  0  0  0  0  0  0  0  0  0  0
    3.6897   41.9391   49.5141 C   0  0  0  0  0  0  0  0  0  0  0  0
    2.8723   41.3134   50.2157 O   0  0  0  0  0  0  0  0  0  0  0  0
    3.6411   41.7258   48.0444 C   0  0  0  0  0  3  0  0  0  0  0  0
    2.2528   41.9791   47.4457 C   0  0  0  0  0  2  0  0  0  0  0  0
    3.4340   40.2618   47.6708 C   0  0  0  0  0  2  0  0  0  0  0  0
    1.9315   40.4825   47.5474 C   0  0  0  0  0  2  0  0  0  0  0  0
    5.9901   42.4004   50.4128 C   0  0  0  0  0  2  0  0  0  0  0  0
    6.9467   43.5246   50.5862 C   0  0  0  0  0  0  0  0  0  0  0  0
    6.6452   44.4401   51.5381 N   0  0  0  0  0  0  0  0  0  0  0  0
    8.0660   43.6586   49.8525 N   0  0  0  0  0  0  0  0  0  0  0  0
    7.4622   45.4973   51.7630 C   0  0  0  0  0  0  0  0  0  0  0  0
    8.8966   44.6745   50.0345 C   0  0  0  0  0  0  0  0  0  0  0  0
    7.1519   46.4227   52.7293 C   0  0  0  0  0  3  0  0  0  0  0  0
    8.6064   45.6280   51.0081 C   0  0  0  0  0  0  0  0  0  0  0  0
    7.9805   47.4932   52.9561 C   0  0  0  0  0  3  0  0  0  0  0  0
    9.4356   46.7010   51.2364 C   0  0  0  0  0  3  0  0  0  0  0  0
    9.1186   47.6211   52.2035 C   0  0  0  0  0  3  0  0  0  0  0  0
    9.9557   44.7860   49.3282 O   0  0  0  0  0  0  0  0  0  0  0  0
    4.3857   44.2685   50.1860 C   0  0  0  0  0  2  0  0  0  0  0  0
    3.1553   44.3630   51.0635 C   0  0  0  0  0  3  0  0  0  0  0  0
    3.4868   43.8324   52.4133 C   0  0  0  0  0  2  0  0  0  0  0  0
    2.7160   45.6675   51.2059 O   0  0  0  0  0  0  0  0  0  0  0  0
    2.8971   44.8030   53.3806 C   0  0  0  0  0  2  0  0  0  0  0  0
    2.4437   45.9262   52.5186 C   0  0  0  0  0  2  0  0  0  0  0  0
  1 20  1  0
  2  3  2  0
  2  1  1  0
  4  2  1  0
  5  4  1  0
  6  4  1  0
  7  6  1  0
  7  5  1  0
  8  1  1  0
  8  9  1  0
  9 11  1  0
 10  9  2  0
 10 12  1  0
 11 13  1  0
 12 15  2  0
 13 19  2  0
 14 12  1  0
 14 16  2  0
 15 13  1  0
 15 17  1  0
 16 18  1  0
 18 17  2  0
 21 20  1  0
 21 22  1  0
 21 23  1  0
 22 24  1  0
 23 25  1  0
 24 25  1  0
M  RAD  8   4   2   5   3   6   3   7   3   8   3  14   2  16   2  17   2
M  RAD  6  18   2  20   3  21   2  22   3  24   3  25   3
M  END
>  <REMARK>  (1) 
 SMILES O=C(C1CCC1)N(Cc1nc2ccccc2c(=O)[nH]1)CC1CCCO1
 SMILES IDX 7 1 2 2 1 3 3 4 4 5 6 6 5 7 8 8 9 9 10 10 19 11 11 12 17 13
 SMILES IDX 12 14 16 15 13 16 15 17 14 18 18 20 20 21 21 22 22 23 25 24
 SMILES IDX 23 25 24 26
 H PARENT 19 19

>  <TORSDO>  (1) 
F 6

$$$$
