/home/pchatterjee/Documents/git/vs_workflow/DiffDock/diffdock_run/pdbqt_scrubbed/Z28511349.pdbqt
     RDKit          3D

 25 28  0  0  1  0  0  0  0  0999 V2000
    7.5582   47.0732   53.1064 N   0  0  0  0  0  0  0  0  0  0  0  0
    8.6337   47.7553   53.7396 C   0  0  0  0  0  0  0  0  0  0  0  0
    9.4267   48.5181   53.1553 O   0  0  0  0  0  0  0  0  0  0  0  0
    8.8275   47.5459   55.1978 C   0  0  0  0  0  3  0  0  0  0  0  0
    8.3175   48.7164   56.0462 C   0  0  0  0  0  2  0  0  0  0  0  0
   10.2256   47.9359   55.6657 C   0  0  0  0  0  2  0  0  0  0  0  0
    9.7287   49.3176   56.0722 C   0  0  0  0  0  2  0  0  0  0  0  0
    7.3318   47.1572   51.6756 C   0  0  0  0  0  2  0  0  0  0  0  0
    7.3237   45.8276   51.0115 C   0  0  0  0  0  0  0  0  0  0  0  0
    6.1729   45.1167   51.0848 N   0  0  0  0  0  0  0  0  0  0  0  0
    8.3875   45.3232   50.3609 N   0  0  0  0  0  0  0  0  0  0  0  0
    6.0779   43.8948   50.5072 C   0  0  0  0  0  0  0  0  0  0  0  0
    8.3443   44.1334   49.7800 C   0  0  0  0  0  0  0  0  0  0  0  0
    4.9088   43.1782   50.5844 C   0  0  0  0  0  3  0  0  0  0  0  0
    7.1709   43.3847   49.8428 C   0  0  0  0  0  0  0  0  0  0  0  0
    4.8140   41.9403   49.9988 C   0  0  0  0  0  3  0  0  0  0  0  0
    7.0745   42.1445   49.2566 C   0  0  0  0  0  3  0  0  0  0  0  0
    5.9032   41.4349   49.3382 C   0  0  0  0  0  3  0  0  0  0  0  0
    9.3647   43.6697   49.1661 O   0  0  0  0  0  0  0  0  0  0  0  0
    6.6163   46.2463   53.8604 C   0  0  0  0  0  2  0  0  0  0  0  0
    5.3516   46.1809   53.0302 C   0  0  0  0  0  3  0  0  0  0  0  0
    4.4461   45.1555   53.6153 C   0  0  0  0  0  2  0  0  0  0  0  0
    4.6801   47.3907   53.0078 O   0  0  0  0  0  0  0  0  0  0  0  0
    3.0903   45.7777   53.6248 C   0  0  0  0  0  2  0  0  0  0  0  0
    3.3485   47.1881   53.2317 C   0  0  0  0  0  2  0  0  0  0  0  0
  1 20  1  0
  2  3  2  0
  2  1  1  0
  4  2  1  0
  5  4  1  0
  6  4  1  0
  7  6  1  0
  7  5  1  0
  8  1  1  0
  8  9  1  0
  9 11  1  0
 10  9  2  0
 10 12  1  0
 11 13  1  0
 12 15  2  0
 13 19  2  0
 14 12  1  0
 14 16  2  0
 15 13  1  0
 15 17  1  0
 16 18  1  0
 18 17  2  0
 21 20  1  0
 21 22  1  0
 21 23  1  0
 22 24  1  0
 23 25  1  0
 24 25  1  0
M  RAD  8   4   2   5   3   6   3   7   3   8   3  14   2  16   2  17   2
M  RAD  6  18   2  20   3  21   2  22   3  24   3  25   3
M  END
>  <REMARK>  (1) 
 SMILES O=C(C1CCC1)N(Cc1nc2ccccc2c(=O)[nH]1)CC1CCCO1
 SMILES IDX 7 1 2 2 1 3 3 4 4 5 6 6 5 7 8 8 9 9 10 10 19 11 11 12 17 13
 SMILES IDX 12 14 16 15 13 16 15 17 14 18 18 20 20 21 21 22 22 23 25 24
 SMILES IDX 23 25 24 26
 H PARENT 19 19

>  <TORSDO>  (1) 
F 6

$$$$
