/home/pchatterjee/Documents/git/vs_workflow/DiffDock/diffdock_run/pdbqt_scrubbed/Z28511349.pdbqt
     RDKit          3D

 25 28  0  0  1  0  0  0  0  0999 V2000
    4.3131   43.3378   50.8387 N   0  0  0  0  0  0  0  0  0  0  0  0
    3.1118   42.5881   50.7061 C   0  0  0  0  0  0  0  0  0  0  0  0
    3.0532   41.4194   50.2787 O   0  0  0  0  0  0  0  0  0  0  0  0
    1.8374   43.2407   51.1037 C   0  0  0  0  0  3  0  0  0  0  0  0
    1.3650   42.8337   52.5041 C   0  0  0  0  0  2  0  0  0  0  0  0
    0.6113   42.5033   50.5759 C   0  0  0  0  0  2  0  0  0  0  0  0
    0.4719   41.7472   51.8913 C   0  0  0  0  0  2  0  0  0  0  0  0
    5.6200   42.7303   50.6698 C   0  0  0  0  0  2  0  0  0  0  0  0
    6.7302   43.7159   50.7401 C   0  0  0  0  0  0  0  0  0  0  0  0
    6.6409   44.6672   51.7004 N   0  0  0  0  0  0  0  0  0  0  0  0
    7.7869   43.6951   49.9081 N   0  0  0  0  0  0  0  0  0  0  0  0
    7.6091   45.6054   51.8355 C   0  0  0  0  0  0  0  0  0  0  0  0
    8.7591   44.5903   49.9999 C   0  0  0  0  0  0  0  0  0  0  0  0
    7.5136   46.5676   52.8109 C   0  0  0  0  0  3  0  0  0  0  0  0
    8.6879   45.5778   50.9802 C   0  0  0  0  0  0  0  0  0  0  0  0
    8.4952   47.5175   52.9465 C   0  0  0  0  0  3  0  0  0  0  0  0
    9.6705   46.5300   51.1173 C   0  0  0  0  0  3  0  0  0  0  0  0
    9.5679   47.4879   52.0941 C   0  0  0  0  0  3  0  0  0  0  0  0
    9.7557   44.5554   49.2009 O   0  0  0  0  0  0  0  0  0  0  0  0
    4.3023   44.7663   51.1532 C   0  0  0  0  0  2  0  0  0  0  0  0
    3.4898   44.9142   52.4225 C   0  0  0  0  0  3  0  0  0  0  0  0
    4.2716   44.3586   53.5599 C   0  0  0  0  0  2  0  0  0  0  0  0
    3.1970   46.2373   52.7024 O   0  0  0  0  0  0  0  0  0  0  0  0
    4.1286   45.3498   54.6656 C   0  0  0  0  0  2  0  0  0  0  0  0
    3.4424   46.4997   54.0197 C   0  0  0  0  0  2  0  0  0  0  0  0
  1 20  1  0
  2  3  2  0
  2  1  1  0
  4  2  1  0
  5  4  1  0
  6  4  1  0
  7  6  1  0
  7  5  1  0
  8  1  1  0
  8  9  1  0
  9 11  1  0
 10  9  2  0
 10 12  1  0
 11 13  1  0
 12 15  2  0
 13 19  2  0
 14 12  1  0
 14 16  2  0
 15 13  1  0
 15 17  1  0
 16 18  1  0
 18 17  2  0
 21 20  1  0
 21 22  1  0
 21 23  1  0
 22 24  1  0
 23 25  1  0
 24 25  1  0
M  RAD  8   4   2   5   3   6   3   7   3   8   3  14   2  16   2  17   2
M  RAD  6  18   2  20   3  21   2  22   3  24   3  25   3
M  END
>  <REMARK>  (1) 
 SMILES O=C(C1CCC1)N(Cc1nc2ccccc2c(=O)[nH]1)CC1CCCO1
 SMILES IDX 7 1 2 2 1 3 3 4 4 5 6 6 5 7 8 8 9 9 10 10 19 11 11 12 17 13
 SMILES IDX 12 14 16 15 13 16 15 17 14 18 18 20 20 21 21 22 22 23 25 24
 SMILES IDX 23 25 24 26
 H PARENT 19 19

>  <TORSDO>  (1) 
F 6

$$$$
