/home/pchatterjee/Documents/git/vs_workflow/DiffDock/diffdock_run/pdbqt_scrubbed/118704754.pdbqt
     RDKit          3D

 29 32  0  0  1  0  0  0  0  0999 V2000
    7.3346   42.4839   49.4989 N   0  0  0  0  0  0  0  0  0  0  0  0
    6.1115   41.8231   49.2052 C   0  0  0  0  0  0  0  0  0  0  0  0
    3.6589   40.5759   48.8011 C   0  0  0  0  0  0  0  0  0  0  0  0
    3.9179   41.2055   50.0221 C   0  0  0  0  0  3  0  0  0  0  0  0
    4.6235   40.5825   47.8149 C   0  0  0  0  0  3  0  0  0  0  0  0
    5.1508   41.8268   50.2119 C   0  0  0  0  0  3  0  0  0  0  0  0
    5.8638   41.2013   47.9911 C   0  0  0  0  0  3  0  0  0  0  0  0
    2.0993   39.8031   48.5922 S   0  0  2  0  0  0  0  0  0  0  0  0
    2.1853   38.4165   49.1907 O   0  0  0  0  0  0  0  0  0  0  0  0
    1.7316   39.7071   47.1378 O   0  0  0  0  0  0  0  0  0  0  0  0
    0.8940   40.7494   49.4390 C   0  0  0  0  0  3  0  0  0  0  0  0
    0.6799   42.0071   49.0270 C   0  0  0  0  0  2  0  0  0  0  0  0
    7.4548   43.8627   49.0388 C   0  0  0  0  0  3  0  0  0  0  0  0
    6.5336   44.6530   49.8338 N   0  0  0  0  0  0  0  0  0  0  0  0
    8.8008   44.3489   49.2120 N   0  0  0  0  0  0  0  0  0  0  0  0
    6.8457   45.1848   50.9667 C   0  0  0  0  0  0  0  0  0  0  0  0
    9.1934   44.8627   50.3168 C   0  0  0  0  0  0  0  0  0  0  0  0
    8.2266   44.9605   51.4594 C   0  0  0  0  0  3  0  0  0  0  0  0
   10.4070   45.4255   50.8254 N   0  0  0  0  0  0  0  0  0  0  0  0
    8.7614   46.1081   52.1751 N   0  0  0  0  0  0  0  0  0  0  0  0
   10.1527   46.1288   51.8773 C   0  0  0  0  0  3  0  0  0  0  0  0
    5.8911   45.9159   51.6362 O   0  0  0  0  0  0  0  0  0  0  0  0
    4.5050   45.6711   51.4836 C   0  0  0  0  0  2  0  0  0  0  0  0
    4.1143   44.4533   52.3247 C   0  0  0  0  0  3  0  0  0  0  0  0
    2.6174   44.2501   52.0743 C   0  0  0  0  0  2  0  0  0  0  0  0
    4.2043   44.9121   53.7805 C   0  0  0  0  0  2  0  0  0  0  0  0
    2.0003   45.6360   52.0697 C   0  0  0  0  0  2  0  0  0  0  0  0
    3.6664   46.3282   53.8128 C   0  0  0  0  0  2  0  0  0  0  0  0
    2.2250   46.3678   53.3780 C   0  0  0  0  0  2  0  0  0  0  0  0
  2  1  1  0
  2  7  2  0
  3  5  2  0
  4  6  2  0
  4  3  1  0
  5  7  1  0
  6  2  1  0
  8  3  1  0
  8  9  2  0
  8 11  1  1
 10  8  2  0
 11 12  2  0
 13  1  1  0
 13 14  1  0
 14 16  2  0
 15 13  1  0
 15 17  2  0
 16 18  1  0
 16 22  1  0
 17 19  1  0
 18 17  1  0
 18 20  1  0
 19 21  2  0
 21 20  1  0
 23 22  1  0
 23 24  1  0
 24 25  1  0
 25 27  1  0
 26 24  1  0
 26 28  1  0
 28 29  1  0
 29 27  1  0
M  RAD  8   4   2   5   2   6   2   7   2  11   2  12   3  13   2  18   2
M  RAD  8  21   2  23   3  24   2  25   3  26   3  27   3  28   3  29   3
M  END
>  <REMARK>  (1) 
 SMILES C=CS(=O)(=O)c1ccc(Nc2nc(OCC3CCCCC3)c3[nH]cnc3n2)cc1
 SMILES IDX 10 1 9 3 6 4 7 5 29 6 8 7 28 8 3 9 4 10 5 11 2 12 1 13 11 14
 SMILES IDX 12 15 27 16 13 17 26 18 22 19 25 20 23 21 24 22 14 24 15 25
 SMILES IDX 16 26 17 27 21 28 18 29 20 30 19 31
 H PARENT 10 2 23 23

>  <TORSDO>  (1) 
F 7

$$$$
