/home/pchatterjee/Documents/git/vs_workflow/DiffDock/diffdock_run/pdbqt_scrubbed/118704754.pdbqt
     RDKit          3D

 29 32  0  0  1  0  0  0  0  0999 V2000
    7.3976   42.5809   49.1731 N   0  0  0  0  0  0  0  0  0  0  0  0
    6.1214   41.9708   49.0391 C   0  0  0  0  0  0  0  0  0  0  0  0
    3.6635   40.7471   48.5974 C   0  0  0  0  0  0  0  0  0  0  0  0
    4.5691   40.8740   47.5400 C   0  0  0  0  0  3  0  0  0  0  0  0
    4.0024   41.2306   49.8441 C   0  0  0  0  0  3  0  0  0  0  0  0
    5.7974   41.4892   47.7745 C   0  0  0  0  0  3  0  0  0  0  0  0
    5.2299   41.8495   50.0939 C   0  0  0  0  0  3  0  0  0  0  0  0
    2.1269   39.9688   48.2714 S   0  0  2  0  0  0  0  0  0  0  0  0
    1.6694   39.2944   49.5459 O   0  0  0  0  0  0  0  0  0  0  0  0
    2.2570   38.9487   47.1750 O   0  0  0  0  0  0  0  0  0  0  0  0
    0.9739   41.1968   47.7940 C   0  0  0  0  0  3  0  0  0  0  0  0
    0.7304   42.1972   48.6526 C   0  0  0  0  0  2  0  0  0  0  0  0
    7.5123   43.9571   48.7039 C   0  0  0  0  0  3  0  0  0  0  0  0
    6.5917   44.7498   49.4972 N   0  0  0  0  0  0  0  0  0  0  0  0
    8.8575   44.4483   48.8692 N   0  0  0  0  0  0  0  0  0  0  0  0
    6.9063   45.2896   50.6256 C   0  0  0  0  0  0  0  0  0  0  0  0
    9.2526   44.9701   49.9693 C   0  0  0  0  0  0  0  0  0  0  0  0
    8.2896   45.0723   51.1147 C   0  0  0  0  0  3  0  0  0  0  0  0
   10.4664   45.5394   50.4700 N   0  0  0  0  0  0  0  0  0  0  0  0
    8.8236   46.2259   51.8213 N   0  0  0  0  0  0  0  0  0  0  0  0
   10.2139   46.2487   51.5184 C   0  0  0  0  0  3  0  0  0  0  0  0
    5.9520   46.0221   51.2940 O   0  0  0  0  0  0  0  0  0  0  0  0
    4.5883   45.6427   51.3219 C   0  0  0  0  0  2  0  0  0  0  0  0
    4.2719   45.0050   52.6771 C   0  0  0  0  0  3  0  0  0  0  0  0
    2.8718   44.4039   52.5260 C   0  0  0  0  0  2  0  0  0  0  0  0
    4.0894   46.1716   53.6486 C   0  0  0  0  0  2  0  0  0  0  0  0
    2.0604   45.4198   51.7443 C   0  0  0  0  0  2  0  0  0  0  0  0
    3.3461   47.2479   52.8840 C   0  0  0  0  0  2  0  0  0  0  0  0
    1.9893   46.7605   52.4480 C   0  0  0  0  0  2  0  0  0  0  0  0
  2  1  1  0
  2  7  2  0
  3  5  2  0
  4  6  2  0
  4  3  1  0
  5  7  1  0
  6  2  1  0
  8  3  1  0
  8  9  2  0
  8 11  1  6
 10  8  2  0
 11 12  2  0
 13  1  1  0
 13 14  1  0
 14 16  2  0
 15 13  1  0
 15 17  2  0
 16 18  1  0
 16 22  1  0
 17 19  1  0
 18 17  1  0
 18 20  1  0
 19 21  2  0
 21 20  1  0
 23 22  1  0
 23 24  1  0
 24 25  1  0
 25 27  1  0
 26 24  1  0
 26 28  1  0
 28 29  1  0
 29 27  1  0
M  RAD  8   4   2   5   2   6   2   7   2  11   2  12   3  13   2  18   2
M  RAD  8  21   2  23   3  24   2  25   3  26   3  27   3  28   3  29   3
M  END
>  <REMARK>  (1) 
 SMILES C=CS(=O)(=O)c1ccc(Nc2nc(OCC3CCCCC3)c3[nH]cnc3n2)cc1
 SMILES IDX 10 1 9 3 6 4 7 5 29 6 8 7 28 8 3 9 4 10 5 11 2 12 1 13 11 14
 SMILES IDX 12 15 27 16 13 17 26 18 22 19 25 20 23 21 24 22 14 24 15 25
 SMILES IDX 16 26 17 27 21 28 18 29 20 30 19 31
 H PARENT 10 2 23 23

>  <TORSDO>  (1) 
F 7

$$$$
