/home/pchatterjee/Documents/git/vs_workflow/DiffDock/diffdock_run/pdbqt_scrubbed/118704754.pdbqt
     RDKit          3D

 29 32  0  0  1  0  0  0  0  0999 V2000
    7.3525   42.7923   49.4704 N   0  0  0  0  0  0  0  0  0  0  0  0
    6.1348   42.1604   49.1008 C   0  0  0  0  0  0  0  0  0  0  0  0
    3.6716   41.0046   48.5254 C   0  0  0  0  0  0  0  0  0  0  0  0
    3.7976   41.8362   49.6420 C   0  0  0  0  0  3  0  0  0  0  0  0
    4.7707   40.7697   47.7256 C   0  0  0  0  0  3  0  0  0  0  0  0
    5.0373   42.4092   49.9194 C   0  0  0  0  0  3  0  0  0  0  0  0
    6.0195   41.3372   47.9913 C   0  0  0  0  0  3  0  0  0  0  0  0
    2.0998   40.2986   48.2026 S   0  0  2  0  0  0  0  0  0  0  0  0
    2.3118   39.0637   47.3549 O   0  0  0  0  0  0  0  0  0  0  0  0
    1.2087   41.2670   47.4762 O   0  0  0  0  0  0  0  0  0  0  0  0
    1.3649   39.8601   49.7300 C   0  0  0  0  0  3  0  0  0  0  0  0
    1.0314   40.8480   50.5728 C   0  0  0  0  0  2  0  0  0  0  0  0
    7.5226   44.1760   49.0420 C   0  0  0  0  0  3  0  0  0  0  0  0
    6.6725   44.9872   49.8931 N   0  0  0  0  0  0  0  0  0  0  0  0
    8.8966   44.5920   49.1742 N   0  0  0  0  0  0  0  0  0  0  0  0
    7.0535   45.4715   51.0262 C   0  0  0  0  0  0  0  0  0  0  0  0
    9.3560   45.0553   50.2756 C   0  0  0  0  0  0  0  0  0  0  0  0
    8.4396   45.1675   51.4577 C   0  0  0  0  0  3  0  0  0  0  0  0
   10.6143   45.5446   50.7501 N   0  0  0  0  0  0  0  0  0  0  0  0
    9.0572   46.2676   52.1813 N   0  0  0  0  0  0  0  0  0  0  0  0
   10.4354   46.2297   51.8292 C   0  0  0  0  0  3  0  0  0  0  0  0
    6.1624   46.2286   51.7518 O   0  0  0  0  0  0  0  0  0  0  0  0
    4.7605   46.0911   51.6097 C   0  0  0  0  0  2  0  0  0  0  0  0
    4.3388   44.7054   52.1049 C   0  0  0  0  0  3  0  0  0  0  0  0
    2.8190   44.6553   51.9257 C   0  0  0  0  0  2  0  0  0  0  0  0
    4.5494   44.7274   53.6191 C   0  0  0  0  0  2  0  0  0  0  0  0
    2.3000   46.0140   52.3570 C   0  0  0  0  0  2  0  0  0  0  0  0
    4.1138   46.1007   54.0879 C   0  0  0  0  0  2  0  0  0  0  0  0
    2.6546   46.3327   53.7958 C   0  0  0  0  0  2  0  0  0  0  0  0
  2  1  1  0
  2  7  2  0
  3  5  2  0
  4  6  2  0
  4  3  1  0
  5  7  1  0
  6  2  1  0
  8  3  1  0
  8  9  2  0
  8 11  1  1
 10  8  2  0
 11 12  2  0
 13  1  1  0
 13 14  1  0
 14 16  2  0
 15 13  1  0
 15 17  2  0
 16 18  1  0
 16 22  1  0
 17 19  1  0
 18 17  1  0
 18 20  1  0
 19 21  2  0
 21 20  1  0
 23 22  1  0
 23 24  1  0
 24 25  1  0
 25 27  1  0
 26 24  1  0
 26 28  1  0
 28 29  1  0
 29 27  1  0
M  RAD  8   4   2   5   2   6   2   7   2  11   2  12   3  13   2  18   2
M  RAD  8  21   2  23   3  24   2  25   3  26   3  27   3  28   3  29   3
M  END
>  <REMARK>  (1) 
 SMILES C=CS(=O)(=O)c1ccc(Nc2nc(OCC3CCCCC3)c3[nH]cnc3n2)cc1
 SMILES IDX 10 1 9 3 6 4 7 5 29 6 8 7 28 8 3 9 4 10 5 11 2 12 1 13 11 14
 SMILES IDX 12 15 27 16 13 17 26 18 22 19 25 20 23 21 24 22 14 24 15 25
 SMILES IDX 16 26 17 27 21 28 18 29 20 30 19 31
 H PARENT 10 2 23 23

>  <TORSDO>  (1) 
F 7

$$$$
