/home/pchatterjee/Documents/git/vs_workflow/DiffDock/diffdock_run/pdbqt_scrubbed/118704754.pdbqt
     RDKit          3D

 29 32  0  0  1  0  0  0  0  0999 V2000
    7.2787   42.5823   49.4031 N   0  0  0  0  0  0  0  0  0  0  0  0
    6.1007   41.8578   49.0772 C   0  0  0  0  0  0  0  0  0  0  0  0
    3.7321   40.4772   48.6107 C   0  0  0  0  0  0  0  0  0  0  0  0
    3.9419   41.0839   49.8525 C   0  0  0  0  0  3  0  0  0  0  0  0
    4.7028   40.5722   47.6352 C   0  0  0  0  0  3  0  0  0  0  0  0
    5.1331   41.7728   50.0736 C   0  0  0  0  0  3  0  0  0  0  0  0
    5.9016   41.2594   47.8426 C   0  0  0  0  0  3  0  0  0  0  0  0
    2.2242   39.6181   48.3628 S   0  0  2  0  0  0  0  0  0  0  0  0
    1.8124   39.0133   49.6868 O   0  0  0  0  0  0  0  0  0  0  0  0
    2.3807   38.5326   47.3347 O   0  0  0  0  0  0  0  0  0  0  0  0
    1.0154   40.7643   47.8238 C   0  0  0  0  0  3  0  0  0  0  0  0
    0.6598   41.7446   48.6663 C   0  0  0  0  0  2  0  0  0  0  0  0
    7.3625   43.9477   48.8973 C   0  0  0  0  0  3  0  0  0  0  0  0
    6.4251   44.7406   49.6704 N   0  0  0  0  0  0  0  0  0  0  0  0
    8.6967   44.4727   49.0478 N   0  0  0  0  0  0  0  0  0  0  0  0
    6.7284   45.3171   50.7836 C   0  0  0  0  0  0  0  0  0  0  0  0
    9.0808   45.0323   50.1331 C   0  0  0  0  0  0  0  0  0  0  0  0
    8.1165   45.1437   51.2766 C   0  0  0  0  0  3  0  0  0  0  0  0
   10.2819   45.6416   50.6170 N   0  0  0  0  0  0  0  0  0  0  0  0
    8.6253   46.3272   51.9516 N   0  0  0  0  0  0  0  0  0  0  0  0
   10.0145   46.3727   51.6465 C   0  0  0  0  0  3  0  0  0  0  0  0
    5.7586   46.0459   51.4334 O   0  0  0  0  0  0  0  0  0  0  0  0
    4.3912   45.6796   51.4070 C   0  0  0  0  0  2  0  0  0  0  0  0
    4.0363   44.9684   52.7152 C   0  0  0  0  0  3  0  0  0  0  0  0
    2.5398   44.6597   52.6166 C   0  0  0  0  0  2  0  0  0  0  0  0
    4.1403   46.0353   53.8055 C   0  0  0  0  0  2  0  0  0  0  0  0
    1.8970   45.8885   52.0016 C   0  0  0  0  0  2  0  0  0  0  0  0
    3.5768   47.3085   53.2081 C   0  0  0  0  0  2  0  0  0  0  0  0
    2.1283   47.1339   52.8342 C   0  0  0  0  0  2  0  0  0  0  0  0
  2  1  1  0
  2  7  2  0
  3  5  2  0
  4  6  2  0
  4  3  1  0
  5  7  1  0
  6  2  1  0
  8  3  1  0
  8  9  2  0
  8 11  1  6
 10  8  2  0
 11 12  2  0
 13  1  1  0
 13 14  1  0
 14 16  2  0
 15 13  1  0
 15 17  2  0
 16 18  1  0
 16 22  1  0
 17 19  1  0
 18 17  1  0
 18 20  1  0
 19 21  2  0
 21 20  1  0
 23 22  1  0
 23 24  1  0
 24 25  1  0
 25 27  1  0
 26 24  1  0
 26 28  1  0
 28 29  1  0
 29 27  1  0
M  RAD  8   4   2   5   2   6   2   7   2  11   2  12   3  13   2  18   2
M  RAD  8  21   2  23   3  24   2  25   3  26   3  27   3  28   3  29   3
M  END
>  <REMARK>  (1) 
 SMILES C=CS(=O)(=O)c1ccc(Nc2nc(OCC3CCCCC3)c3[nH]cnc3n2)cc1
 SMILES IDX 10 1 9 3 6 4 7 5 29 6 8 7 28 8 3 9 4 10 5 11 2 12 1 13 11 14
 SMILES IDX 12 15 27 16 13 17 26 18 22 19 25 20 23 21 24 22 14 24 15 25
 SMILES IDX 16 26 17 27 21 28 18 29 20 30 19 31
 H PARENT 10 2 23 23

>  <TORSDO>  (1) 
F 7

$$$$
