/home/pchatterjee/Documents/git/vs_workflow/DiffDock/diffdock_run/pdbqt_scrubbed/118704754.pdbqt
     RDKit          3D

 29 32  0  0  1  0  0  0  0  0999 V2000
    7.4444   42.6133   49.2718 N   0  0  0  0  0  0  0  0  0  0  0  0
    6.1989   41.9380   49.1645 C   0  0  0  0  0  0  0  0  0  0  0  0
    3.8075   40.5715   48.7797 C   0  0  0  0  0  0  0  0  0  0  0  0
    4.7377   40.6376   47.7383 C   0  0  0  0  0  3  0  0  0  0  0  0
    4.0895   41.1849   49.9827 C   0  0  0  0  0  3  0  0  0  0  0  0
    5.9322   41.3254   47.9439 C   0  0  0  0  0  3  0  0  0  0  0  0
    5.2826   41.8778   50.2032 C   0  0  0  0  0  3  0  0  0  0  0  0
    2.3145   39.6994   48.4908 S   0  0  2  0  0  0  0  0  0  0  0  0
    2.6068   38.2216   48.6295 O   0  0  0  0  0  0  0  0  0  0  0  0
    1.7768   39.9844   47.1163 O   0  0  0  0  0  0  0  0  0  0  0  0
    1.1415   40.1953   49.6922 C   0  0  0  0  0  3  0  0  0  0  0  0
    0.7459   41.4763   49.6923 C   0  0  0  0  0  2  0  0  0  0  0  0
    7.4825   43.9873   48.7842 C   0  0  0  0  0  3  0  0  0  0  0  0
    6.5900   44.7583   49.6291 N   0  0  0  0  0  0  0  0  0  0  0  0
    8.8187   44.5237   48.8565 N   0  0  0  0  0  0  0  0  0  0  0  0
    6.9595   45.3203   50.7297 C   0  0  0  0  0  0  0  0  0  0  0  0
    9.2673   45.0700   49.9238 C   0  0  0  0  0  0  0  0  0  0  0  0
    8.3782   45.1534   51.1289 C   0  0  0  0  0  3  0  0  0  0  0  0
   10.4916   45.6839   50.3388 N   0  0  0  0  0  0  0  0  0  0  0  0
    8.9187   46.3313   51.7888 N   0  0  0  0  0  0  0  0  0  0  0  0
   10.2847   46.3959   51.3952 C   0  0  0  0  0  3  0  0  0  0  0  0
    6.0272   46.0286   51.4528 O   0  0  0  0  0  0  0  0  0  0  0  0
    4.7279   45.5279   51.7092 C   0  0  0  0  0  2  0  0  0  0  0  0
    4.5071   45.4552   53.2222 C   0  0  0  0  0  3  0  0  0  0  0  0
    3.1146   44.8438   53.4004 C   0  0  0  0  0  2  0  0  0  0  0  0
    4.3558   46.9042   53.6865 C   0  0  0  0  0  2  0  0  0  0  0  0
    2.2353   45.4864   52.3444 C   0  0  0  0  0  2  0  0  0  0  0  0
    3.5440   47.6090   52.6190 C   0  0  0  0  0  2  0  0  0  0  0  0
    2.1753   46.9941   52.4882 C   0  0  0  0  0  2  0  0  0  0  0  0
  2  1  1  0
  2  7  2  0
  3  5  2  0
  4  6  2  0
  4  3  1  0
  5  7  1  0
  6  2  1  0
  8  3  1  0
  8  9  2  0
  8 11  1  1
 10  8  2  0
 11 12  2  0
 13  1  1  0
 13 14  1  0
 14 16  2  0
 15 13  1  0
 15 17  2  0
 16 18  1  0
 16 22  1  0
 17 19  1  0
 18 17  1  0
 18 20  1  0
 19 21  2  0
 21 20  1  0
 23 22  1  0
 23 24  1  0
 24 25  1  0
 25 27  1  0
 26 24  1  0
 26 28  1  0
 28 29  1  0
 29 27  1  0
M  RAD  8   4   2   5   2   6   2   7   2  11   2  12   3  13   2  18   2
M  RAD  8  21   2  23   3  24   2  25   3  26   3  27   3  28   3  29   3
M  END
>  <REMARK>  (1) 
 SMILES C=CS(=O)(=O)c1ccc(Nc2nc(OCC3CCCCC3)c3[nH]cnc3n2)cc1
 SMILES IDX 10 1 9 3 6 4 7 5 29 6 8 7 28 8 3 9 4 10 5 11 2 12 1 13 11 14
 SMILES IDX 12 15 27 16 13 17 26 18 22 19 25 20 23 21 24 22 14 24 15 25
 SMILES IDX 16 26 17 27 21 28 18 29 20 30 19 31
 H PARENT 10 2 23 23

>  <TORSDO>  (1) 
F 7

$$$$
