/home/pchatterjee/Documents/git/vs_workflow/DiffDock/diffdock_run/pdbqt_scrubbed/118704754.pdbqt
     RDKit          3D

 29 32  0  0  1  0  0  0  0  0999 V2000
    7.5589   42.6285   49.1833 N   0  0  0  0  0  0  0  0  0  0  0  0
    6.2924   42.0607   48.8791 C   0  0  0  0  0  0  0  0  0  0  0  0
    3.7505   41.0198   48.4443 C   0  0  0  0  0  0  0  0  0  0  0  0
    4.0042   41.7533   49.6070 C   0  0  0  0  0  3  0  0  0  0  0  0
    4.7645   40.8231   47.5300 C   0  0  0  0  0  3  0  0  0  0  0  0
    5.2822   42.2695   49.8130 C   0  0  0  0  0  3  0  0  0  0  0  0
    6.0503   41.3346   47.7232 C   0  0  0  0  0  3  0  0  0  0  0  0
    2.1334   40.3833   48.2134 S   0  0  2  0  0  0  0  0  0  0  0  0
    2.2399   39.1538   47.3385 O   0  0  0  0  0  0  0  0  0  0  0  0
    1.2393   41.3981   47.5575 O   0  0  0  0  0  0  0  0  0  0  0  0
    1.4788   39.9520   49.7789 C   0  0  0  0  0  3  0  0  0  0  0  0
    1.1716   40.9446   50.6262 C   0  0  0  0  0  2  0  0  0  0  0  0
    7.7410   44.0334   48.8367 C   0  0  0  0  0  3  0  0  0  0  0  0
    6.8087   44.7914   49.6499 N   0  0  0  0  0  0  0  0  0  0  0  0
    9.0918   44.4601   49.1047 N   0  0  0  0  0  0  0  0  0  0  0  0
    7.0847   45.2250   50.8329 C   0  0  0  0  0  0  0  0  0  0  0  0
    9.4489   44.8752   50.2618 C   0  0  0  0  0  0  0  0  0  0  0  0
    8.4344   44.9182   51.3658 C   0  0  0  0  0  3  0  0  0  0  0  0
   10.6543   45.3570   50.8641 N   0  0  0  0  0  0  0  0  0  0  0  0
    8.9702   45.9897   52.1904 N   0  0  0  0  0  0  0  0  0  0  0  0
   10.3736   45.9866   51.9554 C   0  0  0  0  0  3  0  0  0  0  0  0
    6.1229   45.9345   51.5152 O   0  0  0  0  0  0  0  0  0  0  0  0
    4.7388   45.7561   51.2770 C   0  0  0  0  0  2  0  0  0  0  0  0
    4.2387   44.5607   52.0920 C   0  0  0  0  0  3  0  0  0  0  0  0
    2.7284   44.5049   51.8462 C   0  0  0  0  0  2  0  0  0  0  0  0
    4.3773   44.9743   53.5574 C   0  0  0  0  0  2  0  0  0  0  0  0
    2.2442   45.9422   51.8777 C   0  0  0  0  0  2  0  0  0  0  0  0
    3.9751   46.4335   53.6260 C   0  0  0  0  0  2  0  0  0  0  0  0
    2.5420   46.6185   53.2012 C   0  0  0  0  0  2  0  0  0  0  0  0
  2  1  1  0
  2  7  2  0
  3  5  2  0
  4  6  2  0
  4  3  1  0
  5  7  1  0
  6  2  1  0
  8  3  1  0
  8  9  2  0
  8 11  1  1
 10  8  2  0
 11 12  2  0
 13  1  1  0
 13 14  1  0
 14 16  2  0
 15 13  1  0
 15 17  2  0
 16 18  1  0
 16 22  1  0
 17 19  1  0
 18 17  1  0
 18 20  1  0
 19 21  2  0
 21 20  1  0
 23 22  1  0
 23 24  1  0
 24 25  1  0
 25 27  1  0
 26 24  1  0
 26 28  1  0
 28 29  1  0
 29 27  1  0
M  RAD  8   4   2   5   2   6   2   7   2  11   2  12   3  13   2  18   2
M  RAD  8  21   2  23   3  24   2  25   3  26   3  27   3  28   3  29   3
M  END
>  <REMARK>  (1) 
 SMILES C=CS(=O)(=O)c1ccc(Nc2nc(OCC3CCCCC3)c3[nH]cnc3n2)cc1
 SMILES IDX 10 1 9 3 6 4 7 5 29 6 8 7 28 8 3 9 4 10 5 11 2 12 1 13 11 14
 SMILES IDX 12 15 27 16 13 17 26 18 22 19 25 20 23 21 24 22 14 24 15 25
 SMILES IDX 16 26 17 27 21 28 18 29 20 30 19 31
 H PARENT 10 2 23 23

>  <TORSDO>  (1) 
F 7

$$$$
