/home/pchatterjee/Documents/git/vs_workflow/DiffDock/diffdock_run/pdbqt_scrubbed/118704754.pdbqt
     RDKit          3D

 29 32  0  0  1  0  0  0  0  0999 V2000
    7.4499   42.7421   49.0525 N   0  0  0  0  0  0  0  0  0  0  0  0
    6.1725   42.1341   48.9211 C   0  0  0  0  0  0  0  0  0  0  0  0
    3.7270   40.8794   48.4977 C   0  0  0  0  0  0  0  0  0  0  0  0
    4.7258   40.7864   47.5241 C   0  0  0  0  0  3  0  0  0  0  0  0
    3.9690   41.5920   49.6538 C   0  0  0  0  0  3  0  0  0  0  0  0
    5.9469   41.4197   47.7485 C   0  0  0  0  0  3  0  0  0  0  0  0
    5.1880   42.2319   49.8922 C   0  0  0  0  0  3  0  0  0  0  0  0
    2.2020   40.0723   48.1869 S   0  0  2  0  0  0  0  0  0  0  0  0
    2.5024   38.7744   47.4704 O   0  0  0  0  0  0  0  0  0  0  0  0
    1.3001   40.9245   47.3384 O   0  0  0  0  0  0  0  0  0  0  0  0
    1.4248   39.7459   49.7214 C   0  0  0  0  0  3  0  0  0  0  0  0
    1.0690   40.7923   50.4802 C   0  0  0  0  0  2  0  0  0  0  0  0
    7.5538   44.1337   48.6285 C   0  0  0  0  0  3  0  0  0  0  0  0
    6.6350   44.8946   49.4542 N   0  0  0  0  0  0  0  0  0  0  0  0
    8.8977   44.6265   48.8002 N   0  0  0  0  0  0  0  0  0  0  0  0
    6.9551   45.3984   50.5976 C   0  0  0  0  0  0  0  0  0  0  0  0
    9.2982   45.1138   49.9141 C   0  0  0  0  0  0  0  0  0  0  0  0
    8.3431   45.1727   51.0692 C   0  0  0  0  0  3  0  0  0  0  0  0
   10.5126   45.6729   50.4246 N   0  0  0  0  0  0  0  0  0  0  0  0
    8.8763   46.3052   51.8098 N   0  0  0  0  0  0  0  0  0  0  0  0
   10.2641   46.3457   51.4977 C   0  0  0  0  0  3  0  0  0  0  0  0
    6.0020   46.1031   51.2968 O   0  0  0  0  0  0  0  0  0  0  0  0
    4.6519   45.6832   51.3700 C   0  0  0  0  0  2  0  0  0  0  0  0
    4.3238   45.2964   52.8143 C   0  0  0  0  0  3  0  0  0  0  0  0
    2.8878   44.7662   52.7765 C   0  0  0  0  0  2  0  0  0  0  0  0
    4.2293   46.6150   53.5826 C   0  0  0  0  0  2  0  0  0  0  0  0
    2.1236   45.6887   51.8457 C   0  0  0  0  0  2  0  0  0  0  0  0
    3.5369   47.5956   52.6582 C   0  0  0  0  0  2  0  0  0  0  0  0
    2.1456   47.1282   52.3202 C   0  0  0  0  0  2  0  0  0  0  0  0
  2  1  1  0
  2  7  2  0
  3  5  2  0
  4  6  2  0
  4  3  1  0
  5  7  1  0
  6  2  1  0
  8  3  1  0
  8  9  2  0
  8 11  1  1
 10  8  2  0
 11 12  2  0
 13  1  1  0
 13 14  1  0
 14 16  2  0
 15 13  1  0
 15 17  2  0
 16 18  1  0
 16 22  1  0
 17 19  1  0
 18 17  1  0
 18 20  1  0
 19 21  2  0
 21 20  1  0
 23 22  1  0
 23 24  1  0
 24 25  1  0
 25 27  1  0
 26 24  1  0
 26 28  1  0
 28 29  1  0
 29 27  1  0
M  RAD  8   4   2   5   2   6   2   7   2  11   2  12   3  13   2  18   2
M  RAD  8  21   2  23   3  24   2  25   3  26   3  27   3  28   3  29   3
M  END
>  <REMARK>  (1) 
 SMILES C=CS(=O)(=O)c1ccc(Nc2nc(OCC3CCCCC3)c3[nH]cnc3n2)cc1
 SMILES IDX 10 1 9 3 6 4 7 5 29 6 8 7 28 8 3 9 4 10 5 11 2 12 1 13 11 14
 SMILES IDX 12 15 27 16 13 17 26 18 22 19 25 20 23 21 24 22 14 24 15 25
 SMILES IDX 16 26 17 27 21 28 18 29 20 30 19 31
 H PARENT 10 2 23 23

>  <TORSDO>  (1) 
F 7

$$$$
