/home/pchatterjee/Documents/git/vs_workflow/DiffDock/diffdock_run/pdbqt_scrubbed/118704754.pdbqt
     RDKit          3D

 29 32  0  0  1  0  0  0  0  0999 V2000
    7.2899   42.6042   49.4309 N   0  0  0  0  0  0  0  0  0  0  0  0
    6.0737   41.9659   49.0669 C   0  0  0  0  0  0  0  0  0  0  0  0
    3.6163   40.7906   48.5071 C   0  0  0  0  0  0  0  0  0  0  0  0
    3.7563   41.5812   49.6515 C   0  0  0  0  0  3  0  0  0  0  0  0
    4.6989   40.6051   47.6726 C   0  0  0  0  0  3  0  0  0  0  0  0
    4.9930   42.1645   49.9206 C   0  0  0  0  0  3  0  0  0  0  0  0
    5.9445   41.1835   47.9297 C   0  0  0  0  0  3  0  0  0  0  0  0
    2.0486   40.0703   48.1955 S   0  0  2  0  0  0  0  0  0  0  0  0
    2.2739   38.6366   47.7689 O   0  0  0  0  0  0  0  0  0  0  0  0
    1.3154   40.8133   47.1139 O   0  0  0  0  0  0  0  0  0  0  0  0
    1.1132   40.1173   49.6747 C   0  0  0  0  0  3  0  0  0  0  0  0
    0.7064   41.3136   50.1227 C   0  0  0  0  0  2  0  0  0  0  0  0
    7.4540   43.9863   48.9950 C   0  0  0  0  0  3  0  0  0  0  0  0
    6.5570   44.7912   49.8028 N   0  0  0  0  0  0  0  0  0  0  0  0
    8.8145   44.4269   49.1779 N   0  0  0  0  0  0  0  0  0  0  0  0
    6.8840   45.2932   50.9451 C   0  0  0  0  0  0  0  0  0  0  0  0
    9.2214   44.9088   50.2918 C   0  0  0  0  0  0  0  0  0  0  0  0
    8.2564   45.0170   51.4350 C   0  0  0  0  0  3  0  0  0  0  0  0
   10.4513   45.4241   50.8112 N   0  0  0  0  0  0  0  0  0  0  0  0
    8.8260   46.1346   52.1711 N   0  0  0  0  0  0  0  0  0  0  0  0
   10.2177   46.1167   51.8750 C   0  0  0  0  0  3  0  0  0  0  0  0
    5.9519   46.0421   51.6264 O   0  0  0  0  0  0  0  0  0  0  0  0
    4.5590   45.8489   51.4626 C   0  0  0  0  0  2  0  0  0  0  0  0
    4.1053   44.6864   52.3492 C   0  0  0  0  0  3  0  0  0  0  0  0
    2.5859   44.6117   52.1748 C   0  0  0  0  0  2  0  0  0  0  0  0
    4.3066   45.1629   53.7880 C   0  0  0  0  0  2  0  0  0  0  0  0
    2.0926   46.0462   52.1674 C   0  0  0  0  0  2  0  0  0  0  0  0
    3.8967   46.6213   53.8131 C   0  0  0  0  0  2  0  0  0  0  0  0
    2.4446   46.7799   53.4463 C   0  0  0  0  0  2  0  0  0  0  0  0
  2  1  1  0
  2  7  2  0
  3  5  2  0
  4  6  2  0
  4  3  1  0
  5  7  1  0
  6  2  1  0
  8  3  1  0
  8  9  2  0
  8 11  1  1
 10  8  2  0
 11 12  2  0
 13  1  1  0
 13 14  1  0
 14 16  2  0
 15 13  1  0
 15 17  2  0
 16 18  1  0
 16 22  1  0
 17 19  1  0
 18 17  1  0
 18 20  1  0
 19 21  2  0
 21 20  1  0
 23 22  1  0
 23 24  1  0
 24 25  1  0
 25 27  1  0
 26 24  1  0
 26 28  1  0
 28 29  1  0
 29 27  1  0
M  RAD  8   4   2   5   2   6   2   7   2  11   2  12   3  13   2  18   2
M  RAD  8  21   2  23   3  24   2  25   3  26   3  27   3  28   3  29   3
M  END
>  <REMARK>  (1) 
 SMILES C=CS(=O)(=O)c1ccc(Nc2nc(OCC3CCCCC3)c3[nH]cnc3n2)cc1
 SMILES IDX 10 1 9 3 6 4 7 5 29 6 8 7 28 8 3 9 4 10 5 11 2 12 1 13 11 14
 SMILES IDX 12 15 27 16 13 17 26 18 22 19 25 20 23 21 24 22 14 24 15 25
 SMILES IDX 16 26 17 27 21 28 18 29 20 30 19 31
 H PARENT 10 2 23 23

>  <TORSDO>  (1) 
F 7

$$$$
