/home/pchatterjee/Documents/git/vs_workflow/DiffDock/diffdock_run/pdbqt_scrubbed/118704754.pdbqt
     RDKit          3D

 29 32  0  0  1  0  0  0  0  0999 V2000
    7.3198   42.4650   49.5431 N   0  0  0  0  0  0  0  0  0  0  0  0
    6.0299   41.8774   49.4445 C   0  0  0  0  0  0  0  0  0  0  0  0
    3.5573   40.6556   49.0875 C   0  0  0  0  0  0  0  0  0  0  0  0
    4.5459   40.5068   48.1104 C   0  0  0  0  0  3  0  0  0  0  0  0
    3.8227   41.4060   50.2141 C   0  0  0  0  0  3  0  0  0  0  0  0
    5.7807   41.1242   48.3013 C   0  0  0  0  0  3  0  0  0  0  0  0
    5.0557   42.0306   50.4189 C   0  0  0  0  0  3  0  0  0  0  0  0
    2.0146   39.8672   48.8190 S   0  0  2  0  0  0  0  0  0  0  0  0
    2.1825   38.3987   49.1409 O   0  0  0  0  0  0  0  0  0  0  0  0
    1.5643   40.0270   47.3938 O   0  0  0  0  0  0  0  0  0  0  0  0
    0.8311   40.5858   49.8905 C   0  0  0  0  0  3  0  0  0  0  0  0
    0.4939   41.8670   49.6848 C   0  0  0  0  0  2  0  0  0  0  0  0
    7.4766   43.7905   48.9552 C   0  0  0  0  0  3  0  0  0  0  0  0
    6.6912   44.7044   49.7633 N   0  0  0  0  0  0  0  0  0  0  0  0
    8.8604   44.1944   48.9549 N   0  0  0  0  0  0  0  0  0  0  0  0
    7.1489   45.3029   50.8102 C   0  0  0  0  0  0  0  0  0  0  0  0
    9.3942   44.7671   49.9677 C   0  0  0  0  0  0  0  0  0  0  0  0
    8.5565   45.0237   51.1852 C   0  0  0  0  0  3  0  0  0  0  0  0
   10.6853   45.2834   50.3060 N   0  0  0  0  0  0  0  0  0  0  0  0
    9.2305   46.1853   51.7434 N   0  0  0  0  0  0  0  0  0  0  0  0
   10.5830   46.0852   51.3123 C   0  0  0  0  0  3  0  0  0  0  0  0
    6.3139   46.1500   51.5023 O   0  0  0  0  0  0  0  0  0  0  0  0
    5.0185   45.7614   51.9208 C   0  0  0  0  0  2  0  0  0  0  0  0
    4.4185   46.8684   52.7913 C   0  0  0  0  0  3  0  0  0  0  0  0
    4.6886   46.4400   54.2363 C   0  0  0  0  0  2  0  0  0  0  0  0
    2.9032   46.7451   52.6279 C   0  0  0  0  0  2  0  0  0  0  0  0
    4.4259   44.9468   54.2880 C   0  0  0  0  0  2  0  0  0  0  0  0
    2.5993   45.2611   52.5973 C   0  0  0  0  0  2  0  0  0  0  0  0
    3.0053   44.6005   53.8885 C   0  0  0  0  0  2  0  0  0  0  0  0
  2  1  1  0
  2  7  2  0
  3  5  2  0
  4  6  2  0
  4  3  1  0
  5  7  1  0
  6  2  1  0
  8  3  1  0
  8  9  2  0
  8 11  1  1
 10  8  2  0
 11 12  2  0
 13  1  1  0
 13 14  1  0
 14 16  2  0
 15 13  1  0
 15 17  2  0
 16 18  1  0
 16 22  1  0
 17 19  1  0
 18 17  1  0
 18 20  1  0
 19 21  2  0
 21 20  1  0
 23 22  1  0
 23 24  1  0
 24 25  1  0
 25 27  1  0
 26 24  1  0
 26 28  1  0
 28 29  1  0
 29 27  1  0
M  RAD  8   4   2   5   2   6   2   7   2  11   2  12   3  13   2  18   2
M  RAD  8  21   2  23   3  24   2  25   3  26   3  27   3  28   3  29   3
M  END
>  <REMARK>  (1) 
 SMILES C=CS(=O)(=O)c1ccc(Nc2nc(OCC3CCCCC3)c3[nH]cnc3n2)cc1
 SMILES IDX 10 1 9 3 6 4 7 5 29 6 8 7 28 8 3 9 4 10 5 11 2 12 1 13 11 14
 SMILES IDX 12 15 27 16 13 17 26 18 22 19 25 20 23 21 24 22 14 24 15 25
 SMILES IDX 16 26 17 27 21 28 18 29 20 30 19 31
 H PARENT 10 2 23 23

>  <TORSDO>  (1) 
F 7

$$$$
