/home/pchatterjee/Documents/git/vs_workflow/DiffDock/diffdock_run/pdbqt_scrubbed/118704754.pdbqt
     RDKit          3D

 29 32  0  0  1  0  0  0  0  0999 V2000
    7.4429   42.5154   49.5319 N   0  0  0  0  0  0  0  0  0  0  0  0
    6.1990   41.8617   49.3216 C   0  0  0  0  0  0  0  0  0  0  0  0
    3.8182   40.5497   48.7346 C   0  0  0  0  0  0  0  0  0  0  0  0
    4.7938   40.6821   47.7422 C   0  0  0  0  0  3  0  0  0  0  0  0
    4.0508   41.0716   49.9901 C   0  0  0  0  0  3  0  0  0  0  0  0
    5.9825   41.3417   48.0492 C   0  0  0  0  0  3  0  0  0  0  0  0
    5.2374   41.7352   50.3122 C   0  0  0  0  0  3  0  0  0  0  0  0
    2.3338   39.7152   48.3182 S   0  0  2  0  0  0  0  0  0  0  0  0
    1.9427   38.8499   49.4958 O   0  0  0  0  0  0  0  0  0  0  0  0
    2.5171   38.8586   47.0967 O   0  0  0  0  0  0  0  0  0  0  0  0
    1.0924   40.9114   48.0128 C   0  0  0  0  0  3  0  0  0  0  0  0
    0.7965   41.7742   48.9954 C   0  0  0  0  0  2  0  0  0  0  0  0
    7.5544   43.8783   49.0246 C   0  0  0  0  0  3  0  0  0  0  0  0
    6.6268   44.6893   49.7907 N   0  0  0  0  0  0  0  0  0  0  0  0
    8.8969   44.3793   49.1824 N   0  0  0  0  0  0  0  0  0  0  0  0
    6.9338   45.2620   50.9049 C   0  0  0  0  0  0  0  0  0  0  0  0
    9.2845   44.9337   50.2692 C   0  0  0  0  0  0  0  0  0  0  0  0
    8.3154   45.0643   51.4066 C   0  0  0  0  0  3  0  0  0  0  0  0
   10.4935   45.5218   50.7595 N   0  0  0  0  0  0  0  0  0  0  0  0
    8.8415   46.2395   52.0829 N   0  0  0  0  0  0  0  0  0  0  0  0
   10.2331   46.2594   51.7862 C   0  0  0  0  0  3  0  0  0  0  0  0
    5.9733   46.0092   51.5477 O   0  0  0  0  0  0  0  0  0  0  0  0
    4.5892   45.7492   51.4030 C   0  0  0  0  0  2  0  0  0  0  0  0
    4.2024   44.5724   52.3023 C   0  0  0  0  0  3  0  0  0  0  0  0
    2.6908   44.4054   52.1249 C   0  0  0  0  0  2  0  0  0  0  0  0
    4.3703   45.0770   53.7359 C   0  0  0  0  0  2  0  0  0  0  0  0
    2.1132   45.8079   52.0991 C   0  0  0  0  0  2  0  0  0  0  0  0
    3.8745   46.5087   53.7424 C   0  0  0  0  0  2  0  0  0  0  0  0
    2.4167   46.5763   53.3699 C   0  0  0  0  0  2  0  0  0  0  0  0
  2  1  1  0
  2  7  2  0
  3  5  2  0
  4  6  2  0
  4  3  1  0
  5  7  1  0
  6  2  1  0
  8  3  1  0
  8  9  2  0
  8 11  1  6
 10  8  2  0
 11 12  2  0
 13  1  1  0
 13 14  1  0
 14 16  2  0
 15 13  1  0
 15 17  2  0
 16 18  1  0
 16 22  1  0
 17 19  1  0
 18 17  1  0
 18 20  1  0
 19 21  2  0
 21 20  1  0
 23 22  1  0
 23 24  1  0
 24 25  1  0
 25 27  1  0
 26 24  1  0
 26 28  1  0
 28 29  1  0
 29 27  1  0
M  RAD  8   4   2   5   2   6   2   7   2  11   2  12   3  13   2  18   2
M  RAD  8  21   2  23   3  24   2  25   3  26   3  27   3  28   3  29   3
M  END
>  <REMARK>  (1) 
 SMILES C=CS(=O)(=O)c1ccc(Nc2nc(OCC3CCCCC3)c3[nH]cnc3n2)cc1
 SMILES IDX 10 1 9 3 6 4 7 5 29 6 8 7 28 8 3 9 4 10 5 11 2 12 1 13 11 14
 SMILES IDX 12 15 27 16 13 17 26 18 22 19 25 20 23 21 24 22 14 24 15 25
 SMILES IDX 16 26 17 27 21 28 18 29 20 30 19 31
 H PARENT 10 2 23 23

>  <TORSDO>  (1) 
F 7

$$$$
