/home/pchatterjee/Documents/git/vs_workflow/DiffDock/diffdock_run/pdbqt_scrubbed/Z1657744734.pdbqt
     RDKit          3D

 23 26  0  0  1  0  0  0  0  0999 V2000
    5.6116   44.0714   50.7147 O   0  0  0  0  0  0  0  0  0  0  0  0
    5.9523   42.9894   50.1463 C   0  0  0  0  0  0  0  0  0  0  0  0
    7.3399   42.6963   50.1387 N   0  0  0  0  0  0  0  0  0  0  0  0
    4.9863   42.0867   49.5306 C   0  0  0  0  0  0  0  0  0  0  0  0
    3.9766   41.5697   50.2955 C   0  0  0  0  0  3  0  0  0  0  0  0
    5.1207   41.7801   48.1892 C   0  0  0  0  0  0  0  0  0  0  0  0
    3.0557   40.7183   49.7386 C   0  0  0  0  0  3  0  0  0  0  0  0
    5.9586   42.1008   47.1972 N   0  0  0  0  0  0  0  0  0  0  0  0
    4.1948   40.9273   47.6402 C   0  0  0  0  0  0  0  0  0  0  0  0
    3.1748   40.3989   48.3927 C   0  0  0  0  0  3  0  0  0  0  0  0
    5.5862   41.4861   46.0792 N   0  0  0  0  0  0  0  0  0  0  0  0
    4.4838   40.7354   46.2994 C   0  0  0  0  0  3  0  0  0  0  0  0
    8.2879   43.6977   50.4497 C   0  0  0  0  0  0  0  0  0  0  0  0
    9.5858   43.6753   50.3034 N   0  0  0  0  0  0  0  0  0  0  0  0
    7.9589   44.9838   51.0124 N   0  0  0  0  0  2  0  0  0  0  0  0
   10.1893   44.8963   50.7409 C   0  0  0  0  0  2  0  0  0  0  0  0
    9.1474   45.5015   51.5814 N   0  0  0  0  0  0  0  0  0  0  0  0
    9.2574   46.9393   51.3821 C   0  0  0  0  0  3  0  0  0  0  0  0
    7.9777   47.6008   51.8463 C   0  0  0  0  0  2  0  0  0  0  0  0
   10.4165   47.5114   52.1689 C   0  0  0  0  0  2  0  0  0  0  0  0
    7.7608   47.0983   53.2760 C   0  0  0  0  0  2  0  0  0  0  0  0
   10.2300   47.3269   53.6599 C   0  0  0  0  0  2  0  0  0  0  0  0
    8.8522   47.6394   54.1442 C   0  0  0  0  0  2  0  0  0  0  0  0
  1  2  2  0
  2  4  1  0
  2  3  1  0
  4  5  2  0
  5  7  1  0
  6  9  2  0
  6  4  1  0
  8  6  1  0
  9 10  1  0
 10  7  2  0
 11  8  1  0
 11 12  2  0
 12  9  1  0
 13  3  1  0
 13 15  1  0
 14 16  1  0
 14 13  2  0
 16 17  1  0
 17 15  1  0
 17 18  1  0
 18 20  1  0
 19 21  1  0
 19 18  1  0
 20 22  1  0
 21 23  1  0
 23 22  1  0
M  RAD  8   5   2   7   2  10   2  12   2  15   2  16   3  18   2  19   3
M  RAD  4  20   3  21   3  22   3  23   3
M  END
>  <REMARK>  (1) 
 SMILES O=C(Nc1ncn(C2CCCCC2)n1)c1cccc2cn[nH]c12
 SMILES IDX 1 1 2 2 3 3 15 5 16 6 23 7 17 8 22 9 19 10 18 11 21 12 20 13
 SMILES IDX 4 15 5 16 14 17 6 18 7 19 8 20 9 21 13 22 10 23 12 24 11 25
 H PARENT 3 4 22 14

>  <TORSDO>  (1) 
F 3

$$$$
