/home/pchatterjee/Documents/git/vs_workflow/DiffDock/diffdock_run/pdbqt_scrubbed/Z1657744734.pdbqt
     RDKit          3D

 23 26  0  0  1  0  0  0  0  0999 V2000
    5.2046   43.6346   50.9826 O   0  0  0  0  0  0  0  0  0  0  0  0
    6.3334   43.9825   50.5191 C   0  0  0  0  0  0  0  0  0  0  0  0
    6.7374   43.3509   49.3153 N   0  0  0  0  0  0  0  0  0  0  0  0
    7.1803   44.9734   51.1734 C   0  0  0  0  0  0  0  0  0  0  0  0
    6.6561   45.7366   52.1806 C   0  0  0  0  0  3  0  0  0  0  0  0
    8.4907   45.1115   50.7546 C   0  0  0  0  0  0  0  0  0  0  0  0
    7.4334   46.6753   52.8110 C   0  0  0  0  0  3  0  0  0  0  0  0
    9.2832   44.5473   49.8368 N   0  0  0  0  0  0  0  0  0  0  0  0
    9.2613   46.0534   51.3911 C   0  0  0  0  0  0  0  0  0  0  0  0
    8.7520   46.8283   52.4039 C   0  0  0  0  0  3  0  0  0  0  0  0
   10.4911   45.0996   49.8867 N   0  0  0  0  0  0  0  0  0  0  0  0
   10.5341   46.0519   50.8451 C   0  0  0  0  0  3  0  0  0  0  0  0
    5.9792   42.2892   48.7709 C   0  0  0  0  0  0  0  0  0  0  0  0
    6.1231   41.6791   47.6249 N   0  0  0  0  0  0  0  0  0  0  0  0
    4.8566   41.6690   49.4297 N   0  0  0  0  0  2  0  0  0  0  0  0
    5.1456   40.6501   47.4461 C   0  0  0  0  0  2  0  0  0  0  0  0
    4.1119   40.9967   48.4308 N   0  0  0  0  0  0  0  0  0  0  0  0
    3.5808   39.7312   48.9160 C   0  0  0  0  0  3  0  0  0  0  0  0
    2.6693   39.9983   50.0943 C   0  0  0  0  0  2  0  0  0  0  0  0
    2.7905   39.0226   47.8375 C   0  0  0  0  0  2  0  0  0  0  0  0
    1.6668   41.0438   49.5986 C   0  0  0  0  0  2  0  0  0  0  0  0
    1.5814   39.8254   47.4066 C   0  0  0  0  0  2  0  0  0  0  0  0
    0.8126   40.4231   48.5389 C   0  0  0  0  0  2  0  0  0  0  0  0
  1  2  2  0
  2  4  1  0
  2  3  1  0
  4  5  2  0
  5  7  1  0
  6  9  2  0
  6  4  1  0
  8  6  1  0
  9 10  1  0
 10  7  2  0
 11  8  1  0
 11 12  2  0
 12  9  1  0
 13  3  1  0
 13 15  1  0
 14 16  1  0
 14 13  2  0
 16 17  1  0
 17 15  1  0
 17 18  1  0
 18 20  1  0
 19 21  1  0
 19 18  1  0
 20 22  1  0
 21 23  1  0
 23 22  1  0
M  RAD  8   5   2   7   2  10   2  12   2  15   2  16   3  18   2  19   3
M  RAD  4  20   3  21   3  22   3  23   3
M  END
>  <REMARK>  (1) 
 SMILES O=C(Nc1ncn(C2CCCCC2)n1)c1cccc2cn[nH]c12
 SMILES IDX 1 1 2 2 3 3 15 5 16 6 23 7 17 8 22 9 19 10 18 11 21 12 20 13
 SMILES IDX 4 15 5 16 14 17 6 18 7 19 8 20 9 21 13 22 10 23 12 24 11 25
 H PARENT 3 4 22 14

>  <TORSDO>  (1) 
F 3

$$$$
