/home/pchatterjee/Documents/git/vs_workflow/DiffDock/diffdock_run/pdbqt_scrubbed/Z1657744734.pdbqt
     RDKit          3D

 23 26  0  0  1  0  0  0  0  0999 V2000
    5.7596   43.3088   50.7967 O   0  0  0  0  0  0  0  0  0  0  0  0
    6.0904   42.7099   49.7280 C   0  0  0  0  0  0  0  0  0  0  0  0
    7.4398   42.8604   49.3182 N   0  0  0  0  0  0  0  0  0  0  0  0
    5.1504   41.9085   48.9527 C   0  0  0  0  0  0  0  0  0  0  0  0
    5.4896   41.5268   47.6834 C   0  0  0  0  0  3  0  0  0  0  0  0
    3.9418   41.5581   49.5256 C   0  0  0  0  0  0  0  0  0  0  0  0
    4.6216   40.7725   46.9346 C   0  0  0  0  0  3  0  0  0  0  0  0
    3.3250   41.7593   50.6952 N   0  0  0  0  0  0  0  0  0  0  0  0
    3.0794   40.8033   48.7690 C   0  0  0  0  0  0  0  0  0  0  0  0
    3.4030   40.4111   47.4934 C   0  0  0  0  0  3  0  0  0  0  0  0
    2.1361   41.1653   50.6832 N   0  0  0  0  0  0  0  0  0  0  0  0
    1.9294   40.5494   49.4978 C   0  0  0  0  0  3  0  0  0  0  0  0
    8.2862   43.7932   49.9598 C   0  0  0  0  0  0  0  0  0  0  0  0
    9.5693   43.7152   50.1924 N   0  0  0  0  0  0  0  0  0  0  0  0
    7.8468   45.0582   50.4942 N   0  0  0  0  0  2  0  0  0  0  0  0
   10.0561   44.8764   50.8712 C   0  0  0  0  0  2  0  0  0  0  0  0
    8.8337   45.4815   51.4169 N   0  0  0  0  0  0  0  0  0  0  0  0
    9.0402   46.9213   51.3611 C   0  0  0  0  0  3  0  0  0  0  0  0
    7.7776   47.6187   51.8193 C   0  0  0  0  0  2  0  0  0  0  0  0
   10.1842   47.3429   52.2574 C   0  0  0  0  0  2  0  0  0  0  0  0
    7.4494   47.0025   53.1817 C   0  0  0  0  0  2  0  0  0  0  0  0
    9.9017   47.0351   53.7125 C   0  0  0  0  0  2  0  0  0  0  0  0
    8.5194   47.3903   54.1526 C   0  0  0  0  0  2  0  0  0  0  0  0
  1  2  2  0
  2  4  1  0
  2  3  1  0
  4  5  2  0
  5  7  1  0
  6  9  2  0
  6  4  1  0
  8  6  1  0
  9 10  1  0
 10  7  2  0
 11  8  1  0
 11 12  2  0
 12  9  1  0
 13  3  1  0
 13 15  1  0
 14 16  1  0
 14 13  2  0
 16 17  1  0
 17 15  1  0
 17 18  1  0
 18 20  1  0
 19 21  1  0
 19 18  1  0
 20 22  1  0
 21 23  1  0
 23 22  1  0
M  RAD  8   5   2   7   2  10   2  12   2  15   2  16   3  18   2  19   3
M  RAD  4  20   3  21   3  22   3  23   3
M  END
>  <REMARK>  (1) 
 SMILES O=C(Nc1ncn(C2CCCCC2)n1)c1cccc2cn[nH]c12
 SMILES IDX 1 1 2 2 3 3 15 5 16 6 23 7 17 8 22 9 19 10 18 11 21 12 20 13
 SMILES IDX 4 15 5 16 14 17 6 18 7 19 8 20 9 21 13 22 10 23 12 24 11 25
 H PARENT 3 4 22 14

>  <TORSDO>  (1) 
F 3

$$$$
