/home/pchatterjee/Documents/git/vs_workflow/DiffDock/diffdock_run/pdbqt_scrubbed/Z1657744734.pdbqt
     RDKit          3D

 23 26  0  0  1  0  0  0  0  0999 V2000
    5.4763   44.3873   50.1303 O   0  0  0  0  0  0  0  0  0  0  0  0
    5.8700   43.3045   49.5988 C   0  0  0  0  0  0  0  0  0  0  0  0
    7.2723   43.1548   49.4484 N   0  0  0  0  0  0  0  0  0  0  0  0
    4.9479   42.2626   49.1615 C   0  0  0  0  0  0  0  0  0  0  0  0
    3.8330   42.0027   49.9107 C   0  0  0  0  0  3  0  0  0  0  0  0
    5.2294   41.5674   48.0000 C   0  0  0  0  0  0  0  0  0  0  0  0
    2.9509   41.0271   49.5195 C   0  0  0  0  0  3  0  0  0  0  0  0
    6.1928   41.5727   47.0723 N   0  0  0  0  0  0  0  0  0  0  0  0
    4.3411   40.5929   47.6161 C   0  0  0  0  0  0  0  0  0  0  0  0
    3.2171   40.3185   48.3556 C   0  0  0  0  0  3  0  0  0  0  0  0
    5.9319   40.6525   46.1494 N   0  0  0  0  0  0  0  0  0  0  0  0
    4.7806   40.0068   46.4407 C   0  0  0  0  0  3  0  0  0  0  0  0
    8.1595   44.1163   49.9837 C   0  0  0  0  0  0  0  0  0  0  0  0
    9.4543   44.2109   49.8394 N   0  0  0  0  0  0  0  0  0  0  0  0
    7.7575   45.2151   50.8263 N   0  0  0  0  0  2  0  0  0  0  0  0
    9.9856   45.3347   50.5474 C   0  0  0  0  0  2  0  0  0  0  0  0
    8.9182   45.6630   51.5020 N   0  0  0  0  0  0  0  0  0  0  0  0
    8.9355   47.1120   51.6391 C   0  0  0  0  0  3  0  0  0  0  0  0
    7.7304   47.5455   52.4457 C   0  0  0  0  0  2  0  0  0  0  0  0
   10.1899   47.5776   52.3459 C   0  0  0  0  0  2  0  0  0  0  0  0
    7.7841   46.7118   53.7286 C   0  0  0  0  0  2  0  0  0  0  0  0
   10.2716   47.0407   53.7591 C   0  0  0  0  0  2  0  0  0  0  0  0
    8.9872   47.1233   54.5168 C   0  0  0  0  0  2  0  0  0  0  0  0
  1  2  2  0
  2  4  1  0
  2  3  1  0
  4  5  2  0
  5  7  1  0
  6  9  2  0
  6  4  1  0
  8  6  1  0
  9 10  1  0
 10  7  2  0
 11  8  1  0
 11 12  2  0
 12  9  1  0
 13  3  1  0
 13 15  1  0
 14 16  1  0
 14 13  2  0
 16 17  1  0
 17 15  1  0
 17 18  1  0
 18 20  1  0
 19 21  1  0
 19 18  1  0
 20 22  1  0
 21 23  1  0
 23 22  1  0
M  RAD  8   5   2   7   2  10   2  12   2  15   2  16   3  18   2  19   3
M  RAD  4  20   3  21   3  22   3  23   3
M  END
>  <REMARK>  (1) 
 SMILES O=C(Nc1ncn(C2CCCCC2)n1)c1cccc2cn[nH]c12
 SMILES IDX 1 1 2 2 3 3 15 5 16 6 23 7 17 8 22 9 19 10 18 11 21 12 20 13
 SMILES IDX 4 15 5 16 14 17 6 18 7 19 8 20 9 21 13 22 10 23 12 24 11 25
 H PARENT 3 4 22 14

>  <TORSDO>  (1) 
F 3

$$$$
