/home/pchatterjee/Documents/git/vs_workflow/DiffDock/diffdock_run/pdbqt_scrubbed/Z1657744734.pdbqt
     RDKit          3D

 23 26  0  0  1  0  0  0  0  0999 V2000
    5.8407   44.4351   50.8454 O   0  0  0  0  0  0  0  0  0  0  0  0
    6.1354   43.3499   50.2576 C   0  0  0  0  0  0  0  0  0  0  0  0
    7.5142   43.1244   50.0140 N   0  0  0  0  0  0  0  0  0  0  0  0
    5.1273   42.3784   49.8488 C   0  0  0  0  0  0  0  0  0  0  0  0
    4.0186   42.2002   50.6303 C   0  0  0  0  0  3  0  0  0  0  0  0
    5.3235   41.6652   48.6807 C   0  0  0  0  0  0  0  0  0  0  0  0
    3.0565   41.2920   50.2663 C   0  0  0  0  0  3  0  0  0  0  0  0
    6.2575   41.6006   47.7256 N   0  0  0  0  0  0  0  0  0  0  0  0
    4.3556   40.7584   48.3242 C   0  0  0  0  0  0  0  0  0  0  0  0
    3.2364   40.5664   49.0962 C   0  0  0  0  0  3  0  0  0  0  0  0
    5.9034   40.7025   46.8120 N   0  0  0  0  0  0  0  0  0  0  0  0
    4.7169   40.1424   47.1375 C   0  0  0  0  0  3  0  0  0  0  0  0
    8.4788   44.0820   50.4021 C   0  0  0  0  0  0  0  0  0  0  0  0
    9.7722   44.0670   50.2197 N   0  0  0  0  0  0  0  0  0  0  0  0
    8.1760   45.3045   51.1042 N   0  0  0  0  0  2  0  0  0  0  0  0
   10.3978   45.2319   50.7657 C   0  0  0  0  0  2  0  0  0  0  0  0
    9.3834   45.7527   51.6920 N   0  0  0  0  0  0  0  0  0  0  0  0
    9.5010   47.2026   51.6407 C   0  0  0  0  0  3  0  0  0  0  0  0
    8.2007   47.8198   52.1086 C   0  0  0  0  0  2  0  0  0  0  0  0
   10.6223   47.6903   52.5322 C   0  0  0  0  0  2  0  0  0  0  0  0
    7.9189   47.1797   53.4705 C   0  0  0  0  0  2  0  0  0  0  0  0
   10.3676   47.3606   53.9877 C   0  0  0  0  0  2  0  0  0  0  0  0
    8.9688   47.6288   54.4369 C   0  0  0  0  0  2  0  0  0  0  0  0
  1  2  2  0
  2  4  1  0
  2  3  1  0
  4  5  2  0
  5  7  1  0
  6  9  2  0
  6  4  1  0
  8  6  1  0
  9 10  1  0
 10  7  2  0
 11  8  1  0
 11 12  2  0
 12  9  1  0
 13  3  1  0
 13 15  1  0
 14 16  1  0
 14 13  2  0
 16 17  1  0
 17 15  1  0
 17 18  1  0
 18 20  1  0
 19 21  1  0
 19 18  1  0
 20 22  1  0
 21 23  1  0
 23 22  1  0
M  RAD  8   5   2   7   2  10   2  12   2  15   2  16   3  18   2  19   3
M  RAD  4  20   3  21   3  22   3  23   3
M  END
>  <REMARK>  (1) 
 SMILES O=C(Nc1ncn(C2CCCCC2)n1)c1cccc2cn[nH]c12
 SMILES IDX 1 1 2 2 3 3 15 5 16 6 23 7 17 8 22 9 19 10 18 11 21 12 20 13
 SMILES IDX 4 15 5 16 14 17 6 18 7 19 8 20 9 21 13 22 10 23 12 24 11 25
 H PARENT 3 4 22 14

>  <TORSDO>  (1) 
F 3

$$$$
