/home/pchatterjee/Documents/git/vs_workflow/DiffDock/diffdock_run/pdbqt_scrubbed/Z1657744734.pdbqt
     RDKit          3D

 23 26  0  0  1  0  0  0  0  0999 V2000
    5.6693   43.3965   50.6423 O   0  0  0  0  0  0  0  0  0  0  0  0
    6.0381   42.7245   49.6311 C   0  0  0  0  0  0  0  0  0  0  0  0
    7.3887   42.8872   49.2301 N   0  0  0  0  0  0  0  0  0  0  0  0
    5.1384   41.8312   48.9101 C   0  0  0  0  0  0  0  0  0  0  0  0
    5.5363   41.3137   47.7078 C   0  0  0  0  0  3  0  0  0  0  0  0
    3.9076   41.5339   49.4653 C   0  0  0  0  0  0  0  0  0  0  0  0
    4.7071   40.4710   47.0111 C   0  0  0  0  0  3  0  0  0  0  0  0
    3.2379   41.8578   50.5768 N   0  0  0  0  0  0  0  0  0  0  0  0
    3.0843   40.6898   48.7612 C   0  0  0  0  0  0  0  0  0  0  0  0
    3.4670   40.1610   47.5530 C   0  0  0  0  0  3  0  0  0  0  0  0
    2.0542   41.2533   50.5796 N   0  0  0  0  0  0  0  0  0  0  0  0
    1.9044   40.5065   49.4628 C   0  0  0  0  0  3  0  0  0  0  0  0
    8.1928   43.8973   49.8056 C   0  0  0  0  0  0  0  0  0  0  0  0
    9.4952   43.9902   49.8426 N   0  0  0  0  0  0  0  0  0  0  0  0
    7.6774   45.0593   50.4861 N   0  0  0  0  0  2  0  0  0  0  0  0
    9.9228   45.1735   50.5234 C   0  0  0  0  0  2  0  0  0  0  0  0
    8.7298   45.5716   51.2826 N   0  0  0  0  0  0  0  0  0  0  0  0
    8.7327   47.0271   51.2989 C   0  0  0  0  0  3  0  0  0  0  0  0
    7.5350   47.5140   52.0857 C   0  0  0  0  0  2  0  0  0  0  0  0
    9.9922   47.5624   51.9447 C   0  0  0  0  0  2  0  0  0  0  0  0
    7.6173   46.7904   53.4323 C   0  0  0  0  0  2  0  0  0  0  0  0
   10.1010   47.1455   53.3961 C   0  0  0  0  0  2  0  0  0  0  0  0
    8.8272   47.2779   54.1645 C   0  0  0  0  0  2  0  0  0  0  0  0
  1  2  2  0
  2  4  1  0
  2  3  1  0
  4  5  2  0
  5  7  1  0
  6  9  2  0
  6  4  1  0
  8  6  1  0
  9 10  1  0
 10  7  2  0
 11  8  1  0
 11 12  2  0
 12  9  1  0
 13  3  1  0
 13 15  1  0
 14 16  1  0
 14 13  2  0
 16 17  1  0
 17 15  1  0
 17 18  1  0
 18 20  1  0
 19 21  1  0
 19 18  1  0
 20 22  1  0
 21 23  1  0
 23 22  1  0
M  RAD  8   5   2   7   2  10   2  12   2  15   2  16   3  18   2  19   3
M  RAD  4  20   3  21   3  22   3  23   3
M  END
>  <REMARK>  (1) 
 SMILES O=C(Nc1ncn(C2CCCCC2)n1)c1cccc2cn[nH]c12
 SMILES IDX 1 1 2 2 3 3 15 5 16 6 23 7 17 8 22 9 19 10 18 11 21 12 20 13
 SMILES IDX 4 15 5 16 14 17 6 18 7 19 8 20 9 21 13 22 10 23 12 24 11 25
 H PARENT 3 4 22 14

>  <TORSDO>  (1) 
F 3

$$$$
