/home/pchatterjee/Documents/git/vs_workflow/DiffDock/diffdock_run/pdbqt_scrubbed/Z1657744734.pdbqt
     RDKit          3D

 23 26  0  0  1  0  0  0  0  0999 V2000
    5.5574   44.1900   50.4404 O   0  0  0  0  0  0  0  0  0  0  0  0
    5.9157   43.1367   49.8303 C   0  0  0  0  0  0  0  0  0  0  0  0
    7.3072   42.9905   49.5981 N   0  0  0  0  0  0  0  0  0  0  0  0
    4.9652   42.1237   49.3860 C   0  0  0  0  0  0  0  0  0  0  0  0
    3.8846   41.8335   50.1734 C   0  0  0  0  0  3  0  0  0  0  0  0
    5.1858   41.4858   48.1794 C   0  0  0  0  0  0  0  0  0  0  0  0
    2.9768   40.8842   49.7765 C   0  0  0  0  0  3  0  0  0  0  0  0
    6.1045   41.5315   47.2085 N   0  0  0  0  0  0  0  0  0  0  0  0
    4.2722   40.5372   47.7901 C   0  0  0  0  0  0  0  0  0  0  0  0
    3.1819   40.2330   48.5675 C   0  0  0  0  0  3  0  0  0  0  0  0
    5.7926   40.6603   46.2544 N   0  0  0  0  0  0  0  0  0  0  0  0
    4.6509   40.0079   46.5675 C   0  0  0  0  0  3  0  0  0  0  0  0
    8.2162   43.9838   50.0285 C   0  0  0  0  0  0  0  0  0  0  0  0
    9.5163   44.0172   49.9067 N   0  0  0  0  0  0  0  0  0  0  0  0
    7.8354   45.1944   50.7129 N   0  0  0  0  0  2  0  0  0  0  0  0
   10.0717   45.2050   50.4785 C   0  0  0  0  0  2  0  0  0  0  0  0
    8.9965   45.6879   51.3554 N   0  0  0  0  0  0  0  0  0  0  0  0
    9.0620   47.1413   51.3062 C   0  0  0  0  0  3  0  0  0  0  0  0
    7.8158   47.7131   51.9470 C   0  0  0  0  0  2  0  0  0  0  0  0
   10.2748   47.6575   52.0495 C   0  0  0  0  0  2  0  0  0  0  0  0
    7.7342   47.0539   53.3263 C   0  0  0  0  0  2  0  0  0  0  0  0
   10.2228   47.3086   53.5218 C   0  0  0  0  0  2  0  0  0  0  0  0
    8.8872   47.5288   54.1527 C   0  0  0  0  0  2  0  0  0  0  0  0
  1  2  2  0
  2  4  1  0
  2  3  1  0
  4  5  2  0
  5  7  1  0
  6  9  2  0
  6  4  1  0
  8  6  1  0
  9 10  1  0
 10  7  2  0
 11  8  1  0
 11 12  2  0
 12  9  1  0
 13  3  1  0
 13 15  1  0
 14 16  1  0
 14 13  2  0
 16 17  1  0
 17 15  1  0
 17 18  1  0
 18 20  1  0
 19 21  1  0
 19 18  1  0
 20 22  1  0
 21 23  1  0
 23 22  1  0
M  RAD  8   5   2   7   2  10   2  12   2  15   2  16   3  18   2  19   3
M  RAD  4  20   3  21   3  22   3  23   3
M  END
>  <REMARK>  (1) 
 SMILES O=C(Nc1ncn(C2CCCCC2)n1)c1cccc2cn[nH]c12
 SMILES IDX 1 1 2 2 3 3 15 5 16 6 23 7 17 8 22 9 19 10 18 11 21 12 20 13
 SMILES IDX 4 15 5 16 14 17 6 18 7 19 8 20 9 21 13 22 10 23 12 24 11 25
 H PARENT 3 4 22 14

>  <TORSDO>  (1) 
F 3

$$$$
