/home/pchatterjee/Documents/git/vs_workflow/DiffDock/diffdock_run/pdbqt_scrubbed/Z1657744734.pdbqt
     RDKit          3D

 23 26  0  0  1  0  0  0  0  0999 V2000
   12.2544   58.3786   85.4158 O   0  0  0  0  0  0  0  0  0  0  0  0
   13.4369   58.8319   85.3372 C   0  0  0  0  0  0  0  0  0  0  0  0
   14.3453   58.3866   86.3312 N   0  0  0  0  0  0  0  0  0  0  0  0
   13.8558   59.7585   84.2917 C   0  0  0  0  0  0  0  0  0  0  0  0
   15.1908   59.9154   84.0366 C   0  0  0  0  0  3  0  0  0  0  0  0
   12.8883   60.4519   83.5882 C   0  0  0  0  0  0  0  0  0  0  0  0
   15.6091   60.7814   83.0578 C   0  0  0  0  0  3  0  0  0  0  0  0
   11.5530   60.5275   83.5873 N   0  0  0  0  0  0  0  0  0  0  0  0
   13.3160   61.3163   82.6105 C   0  0  0  0  0  0  0  0  0  0  0  0
   14.6517   61.4865   82.3409 C   0  0  0  0  0  3  0  0  0  0  0  0
   11.1534   61.3922   82.6604 N   0  0  0  0  0  0  0  0  0  0  0  0
   12.2192   61.9178   82.0162 C   0  0  0  0  0  3  0  0  0  0  0  0
   13.9165   57.5159   87.3588 C   0  0  0  0  0  0  0  0  0  0  0  0
   12.7120   57.0838   87.6214 N   0  0  0  0  0  0  0  0  0  0  0  0
   14.7893   56.9270   88.3440 N   0  0  0  0  0  2  0  0  0  0  0  0
   12.6976   56.2112   88.7548 C   0  0  0  0  0  2  0  0  0  0  0  0
   13.9721   56.5090   89.4220 N   0  0  0  0  0  0  0  0  0  0  0  0
   14.4315   55.2493   89.9884 C   0  0  0  0  0  3  0  0  0  0  0  0
   15.7027   55.4953   90.7721 C   0  0  0  0  0  2  0  0  0  0  0  0
   13.3923   54.6576   90.9157 C   0  0  0  0  0  2  0  0  0  0  0  0
   15.3625   56.6273   91.7451 C   0  0  0  0  0  2  0  0  0  0  0  0
   13.1220   55.5559   92.1039 C   0  0  0  0  0  2  0  0  0  0  0  0
   14.3531   56.1258   92.7286 C   0  0  0  0  0  2  0  0  0  0  0  0
  1  2  2  0
  2  4  1  0
  2  3  1  0
  4  5  2  0
  5  7  1  0
  6  9  2  0
  6  4  1  0
  8  6  1  0
  9 10  1  0
 10  7  2  0
 11  8  1  0
 11 12  2  0
 12  9  1  0
 13  3  1  0
 13 15  1  0
 14 16  1  0
 14 13  2  0
 16 17  1  0
 17 15  1  0
 17 18  1  0
 18 20  1  0
 19 21  1  0
 19 18  1  0
 20 22  1  0
 21 23  1  0
 23 22  1  0
M  RAD  8   5   2   7   2  10   2  12   2  15   2  16   3  18   2  19   3
M  RAD  4  20   3  21   3  22   3  23   3
M  END
>  <REMARK>  (1) 
 SMILES O=C(Nc1ncn(C2CCCCC2)n1)c1cccc2cn[nH]c12
 SMILES IDX 1 1 2 2 3 3 15 5 16 6 23 7 17 8 22 9 19 10 18 11 21 12 20 13
 SMILES IDX 4 15 5 16 14 17 6 18 7 19 8 20 9 21 13 22 10 23 12 24 11 25
 H PARENT 3 4 22 14

>  <TORSDO>  (1) 
F 3

$$$$
