/home/pchatterjee/Documents/git/vs_workflow/DiffDock/diffdock_run/pdbqt_scrubbed/Z1657744734.pdbqt
     RDKit          3D

 23 26  0  0  1  0  0  0  0  0999 V2000
    7.0395   46.0148   51.7924 O   0  0  0  0  0  0  0  0  0  0  0  0
    8.2965   46.1771   51.7319 C   0  0  0  0  0  0  0  0  0  0  0  0
    8.9732   45.4519   50.7182 N   0  0  0  0  0  0  0  0  0  0  0  0
    9.0206   47.0550   52.6441 C   0  0  0  0  0  0  0  0  0  0  0  0
   10.3803   47.1569   52.5314 C   0  0  0  0  0  3  0  0  0  0  0  0
    8.3089   47.7594   53.5974 C   0  0  0  0  0  0  0  0  0  0  0  0
   11.0833   47.9764   53.3783 C   0  0  0  0  0  3  0  0  0  0  0  0
    7.0277   47.8819   53.9613 N   0  0  0  0  0  0  0  0  0  0  0  0
    9.0205   48.5771   54.4407 C   0  0  0  0  0  0  0  0  0  0  0  0
   10.3854   48.6917   54.3422 C   0  0  0  0  0  3  0  0  0  0  0  0
    6.9298   48.7304   54.9797 N   0  0  0  0  0  0  0  0  0  0  0  0
    8.1511   49.1978   55.3221 C   0  0  0  0  0  3  0  0  0  0  0  0
    8.3044   44.4440   49.9869 C   0  0  0  0  0  0  0  0  0  0  0  0
    8.5486   44.0030   48.7818 N   0  0  0  0  0  0  0  0  0  0  0  0
    7.1765   43.6929   50.4798 N   0  0  0  0  0  2  0  0  0  0  0  0
    7.6370   42.9681   48.4016 C   0  0  0  0  0  2  0  0  0  0  0  0
    6.5291   43.1331   49.3521 N   0  0  0  0  0  0  0  0  0  0  0  0
    6.0340   41.7920   49.6267 C   0  0  0  0  0  3  0  0  0  0  0  0
    4.9866   41.8665   50.7166 C   0  0  0  0  0  2  0  0  0  0  0  0
    5.4116   41.1774   48.3919 C   0  0  0  0  0  2  0  0  0  0  0  0
    3.9758   42.9094   50.2325 C   0  0  0  0  0  2  0  0  0  0  0  0
    4.2050   41.9610   47.9207 C   0  0  0  0  0  2  0  0  0  0  0  0
    3.2821   42.3763   49.0191 C   0  0  0  0  0  2  0  0  0  0  0  0
  1  2  2  0
  2  4  1  0
  2  3  1  0
  4  5  2  0
  5  7  1  0
  6  9  2  0
  6  4  1  0
  8  6  1  0
  9 10  1  0
 10  7  2  0
 11  8  1  0
 11 12  2  0
 12  9  1  0
 13  3  1  0
 13 15  1  0
 14 16  1  0
 14 13  2  0
 16 17  1  0
 17 15  1  0
 17 18  1  0
 18 20  1  0
 19 21  1  0
 19 18  1  0
 20 22  1  0
 21 23  1  0
 23 22  1  0
M  RAD  8   5   2   7   2  10   2  12   2  15   2  16   3  18   2  19   3
M  RAD  4  20   3  21   3  22   3  23   3
M  END
>  <REMARK>  (1) 
 SMILES O=C(Nc1ncn(C2CCCCC2)n1)c1cccc2cn[nH]c12
 SMILES IDX 1 1 2 2 3 3 15 5 16 6 23 7 17 8 22 9 19 10 18 11 21 12 20 13
 SMILES IDX 4 15 5 16 14 17 6 18 7 19 8 20 9 21 13 22 10 23 12 24 11 25
 H PARENT 3 4 22 14

>  <TORSDO>  (1) 
F 3

$$$$
