/home/pchatterjee/Documents/git/vs_workflow/DiffDock/diffdock_run/pdbqt_scrubbed/Z1657744734.pdbqt
     RDKit          3D

 23 26  0  0  1  0  0  0  0  0999 V2000
    8.1437   45.7044   51.2074 O   0  0  0  0  0  0  0  0  0  0  0  0
    7.0369   45.2062   51.5772 C   0  0  0  0  0  0  0  0  0  0  0  0
    6.5516   45.6283   52.8413 N   0  0  0  0  0  0  0  0  0  0  0  0
    6.2924   44.2529   50.7622 C   0  0  0  0  0  0  0  0  0  0  0  0
    5.0029   43.9492   51.1037 C   0  0  0  0  0  3  0  0  0  0  0  0
    6.9144   43.6836   49.6665 C   0  0  0  0  0  0  0  0  0  0  0  0
    4.2824   43.0552   50.3523 C   0  0  0  0  0  3  0  0  0  0  0  0
    8.1142   43.7598   49.0805 N   0  0  0  0  0  0  0  0  0  0  0  0
    6.1859   42.7900   48.9202 C   0  0  0  0  0  0  0  0  0  0  0  0
    4.8906   42.4733   49.2480 C   0  0  0  0  0  3  0  0  0  0  0  0
    8.1472   42.9591   48.0201 N   0  0  0  0  0  0  0  0  0  0  0  0
    6.9626   42.3251   47.8720 C   0  0  0  0  0  3  0  0  0  0  0  0
    7.2648   46.5815   53.6034 C   0  0  0  0  0  0  0  0  0  0  0  0
    7.2451   46.7843   54.8936 N   0  0  0  0  0  0  0  0  0  0  0  0
    8.1853   47.5432   53.0493 N   0  0  0  0  0  2  0  0  0  0  0  0
    8.1163   47.8528   55.2754 C   0  0  0  0  0  2  0  0  0  0  0  0
    8.3394   48.5693   54.0125 N   0  0  0  0  0  0  0  0  0  0  0  0
    9.7101   49.0563   54.0652 C   0  0  0  0  0  3  0  0  0  0  0  0
    9.7448   50.3475   54.8540 C   0  0  0  0  0  2  0  0  0  0  0  0
   10.6206   48.0500   54.7348 C   0  0  0  0  0  2  0  0  0  0  0  0
    9.0557   50.0259   56.1826 C   0  0  0  0  0  2  0  0  0  0  0  0
   10.2264   47.8065   56.1761 C   0  0  0  0  0  2  0  0  0  0  0  0
    9.9023   49.0501   56.9369 C   0  0  0  0  0  2  0  0  0  0  0  0
  1  2  2  0
  2  4  1  0
  2  3  1  0
  4  5  2  0
  5  7  1  0
  6  9  2  0
  6  4  1  0
  8  6  1  0
  9 10  1  0
 10  7  2  0
 11  8  1  0
 11 12  2  0
 12  9  1  0
 13  3  1  0
 13 15  1  0
 14 16  1  0
 14 13  2  0
 16 17  1  0
 17 15  1  0
 17 18  1  0
 18 20  1  0
 19 21  1  0
 19 18  1  0
 20 22  1  0
 21 23  1  0
 23 22  1  0
M  RAD  8   5   2   7   2  10   2  12   2  15   2  16   3  18   2  19   3
M  RAD  4  20   3  21   3  22   3  23   3
M  END
>  <REMARK>  (1) 
 SMILES O=C(Nc1ncn(C2CCCCC2)n1)c1cccc2cn[nH]c12
 SMILES IDX 1 1 2 2 3 3 15 5 16 6 23 7 17 8 22 9 19 10 18 11 21 12 20 13
 SMILES IDX 4 15 5 16 14 17 6 18 7 19 8 20 9 21 13 22 10 23 12 24 11 25
 H PARENT 3 4 22 14

>  <TORSDO>  (1) 
F 3

$$$$
