/home/pchatterjee/Documents/git/vs_workflow/DiffDock/diffdock_run/pdbqt_scrubbed/Z57110395.pdbqt
     RDKit          3D

 26 29  0  0  1  0  0  0  0  0999 V2000
    9.1435   58.2156   55.5327 C   0  0  0  0  0  0  0  0  0  0  0  0
    8.1212   59.0259   55.0623 C   0  0  0  0  0  3  0  0  0  0  0  0
    8.3660   60.3732   54.7859 C   0  0  0  0  0  3  0  0  0  0  0  0
    9.6262   60.9242   54.9748 C   0  0  0  0  0  0  0  0  0  0  0  0
   10.6386   60.0989   55.4464 C   0  0  0  0  0  3  0  0  0  0  0  0
   10.3997   58.7593   55.7223 C   0  0  0  0  0  3  0  0  0  0  0  0
    8.8692   56.8083   55.8164 C   0  0  0  0  0  0  0  0  0  0  0  0
    9.8507   55.9389   56.2904 O   0  0  0  0  0  1  0  0  0  0  0  0
    7.6814   56.3860   55.6148 O   0  0  0  0  0  0  0  0  0  0  0  0
    9.8602   62.2994   54.6886 N   0  0  0  0  0  0  0  0  0  0  0  0
   11.1542   62.8096   54.4037 C   0  0  0  0  0  0  0  0  0  0  0  0
   12.1480   62.0000   54.3449 N   0  0  0  0  0  0  0  0  0  0  0  0
   11.2875   64.2114   54.1946 N   0  0  0  0  0  2  0  0  0  0  0  0
   13.5194   62.3617   54.0669 C   0  0  0  0  0  3  0  0  0  0  0  0
   12.5919   64.7030   53.9105 C   0  0  0  0  0  0  0  0  0  0  0  0
   13.6510   63.8222   53.8503 C   0  0  0  0  0  0  0  0  0  0  0  0
   12.7729   66.0478   53.7010 C   0  0  0  0  0  3  0  0  0  0  0  0
   14.9250   64.3022   53.5728 C   0  0  0  0  0  3  0  0  0  0  0  0
   14.0228   66.5658   53.4225 C   0  0  0  0  0  3  0  0  0  0  0  0
   15.0652   65.6636   53.3679 C   0  0  0  0  0  3  0  0  0  0  0  0
   14.4756   61.8426   55.0613 C   0  0  0  0  0  0  0  0  0  0  0  0
   15.6440   61.2559   54.5676 C   0  0  0  0  0  3  0  0  0  0  0  0
   14.2831   61.9035   56.4259 C   0  0  0  0  0  3  0  0  0  0  0  0
   16.6010   60.7403   55.4184 C   0  0  0  0  0  3  0  0  0  0  0  0
   15.2440   61.3868   57.2447 C   0  0  0  0  0  3  0  0  0  0  0  0
   16.4007   60.8052   56.7842 C   0  0  0  0  0  3  0  0  0  0  0  0
  1  7  1  0
  1  6  2  0
  2  1  1  0
  3  2  2  0
  3  4  1  0
  4  5  2  0
  5  6  1  0
  7  8  1  0
  9  7  2  0
 10  4  1  0
 11 10  1  0
 12 11  2  0
 13 11  1  0
 14 21  1  0
 14 12  1  0
 15 13  1  0
 16 15  2  0
 16 14  1  0
 17 15  1  0
 18 16  1  0
 19 17  2  0
 20 19  1  0
 20 18  2  0
 21 23  2  0
 22 24  2  0
 22 21  1  0
 23 25  1  0
 24 26  1  0
 26 25  2  0
M  RAD  8   2   2   3   2   5   2   6   2   8   2  13   2  14   2  17   2
M  RAD  8  18   2  19   2  20   2  22   2  23   2  24   2  25   2  26   2
M  END
>  <REMARK>  (1) 
 SMILES O=C([O-])c1ccc(Nc2nc(-c3ccccc3)c3ccccc3n2)cc1
 SMILES IDX 4 1 5 2 6 3 7 4 25 5 26 6 2 7 1 8 3 9 8 10 9 12 10 13 24 14
 SMILES IDX 11 15 23 16 18 17 22 18 19 19 21 20 20 21 12 22 13 23 17 24
 SMILES IDX 14 25 16 26 15 27
 H PARENT 8 11

>  <TORSDO>  (1) 
F 4

$$$$
