/home/pchatterjee/Documents/git/vs_workflow/DiffDock/diffdock_run/pdbqt_scrubbed/Z57110395.pdbqt
     RDKit          3D

 26 29  0  0  1  0  0  0  0  0999 V2000
    5.9670   63.8556   84.9888 C   0  0  0  0  0  0  0  0  0  0  0  0
    6.8465   63.7389   83.9231 C   0  0  0  0  0  3  0  0  0  0  0  0
    7.3530   64.8841   83.3040 C   0  0  0  0  0  3  0  0  0  0  0  0
    6.9898   66.1517   83.7388 C   0  0  0  0  0  0  0  0  0  0  0  0
    6.1082   66.2507   84.8072 C   0  0  0  0  0  3  0  0  0  0  0  0
    5.6025   65.1151   85.4253 C   0  0  0  0  0  3  0  0  0  0  0  0
    5.4472   62.6465   85.6244 C   0  0  0  0  0  0  0  0  0  0  0  0
    5.8332   61.3685   85.2220 O   0  0  0  0  0  1  0  0  0  0  0  0
    4.6119   62.7935   86.5787 O   0  0  0  0  0  0  0  0  0  0  0  0
    7.5146   67.3097   83.0975 N   0  0  0  0  0  0  0  0  0  0  0  0
    8.7901   67.3241   82.4738 C   0  0  0  0  0  0  0  0  0  0  0  0
    9.4419   66.2251   82.3550 N   0  0  0  0  0  0  0  0  0  0  0  0
    9.2896   68.5720   82.0052 N   0  0  0  0  0  2  0  0  0  0  0  0
   10.7448   66.0750   81.7478 C   0  0  0  0  0  3  0  0  0  0  0  0
   10.5691   68.5655   81.3834 C   0  0  0  0  0  0  0  0  0  0  0  0
   11.2588   67.3777   81.2622 C   0  0  0  0  0  0  0  0  0  0  0  0
   11.0950   69.7440   80.9144 C   0  0  0  0  0  3  0  0  0  0  0  0
   12.5085   67.3713   80.6549 C   0  0  0  0  0  3  0  0  0  0  0  0
   12.3338   69.7811   80.3046 C   0  0  0  0  0  3  0  0  0  0  0  0
   13.0030   68.5794   80.1958 C   0  0  0  0  0  3  0  0  0  0  0  0
   11.7110   65.3617   82.6024 C   0  0  0  0  0  0  0  0  0  0  0  0
   11.3506   64.0808   83.0298 C   0  0  0  0  0  3  0  0  0  0  0  0
   12.9275   65.8799   82.9952 C   0  0  0  0  0  3  0  0  0  0  0  0
   12.1872   63.3322   83.8331 C   0  0  0  0  0  3  0  0  0  0  0  0
   13.7356   65.1198   83.7889 C   0  0  0  0  0  3  0  0  0  0  0  0
   13.4042   63.8586   84.2222 C   0  0  0  0  0  3  0  0  0  0  0  0
  1  7  1  0
  1  6  2  0
  2  1  1  0
  3  2  2  0
  3  4  1  0
  4  5  2  0
  5  6  1  0
  7  8  1  0
  9  7  2  0
 10  4  1  0
 11 10  1  0
 12 11  2  0
 13 11  1  0
 14 21  1  0
 14 12  1  0
 15 13  1  0
 16 15  2  0
 16 14  1  0
 17 15  1  0
 18 16  1  0
 19 17  2  0
 20 19  1  0
 20 18  2  0
 21 23  2  0
 22 24  2  0
 22 21  1  0
 23 25  1  0
 24 26  1  0
 26 25  2  0
M  RAD  8   2   2   3   2   5   2   6   2   8   2  13   2  14   2  17   2
M  RAD  8  18   2  19   2  20   2  22   2  23   2  24   2  25   2  26   2
M  END
>  <REMARK>  (1) 
 SMILES O=C([O-])c1ccc(Nc2nc(-c3ccccc3)c3ccccc3n2)cc1
 SMILES IDX 4 1 5 2 6 3 7 4 25 5 26 6 2 7 1 8 3 9 8 10 9 12 10 13 24 14
 SMILES IDX 11 15 23 16 18 17 22 18 19 19 21 20 20 21 12 22 13 23 17 24
 SMILES IDX 14 25 16 26 15 27
 H PARENT 8 11

>  <TORSDO>  (1) 
F 4

$$$$
