/home/pchatterjee/Documents/git/vs_workflow/DiffDock/diffdock_run/pdbqt_scrubbed/Z57110395.pdbqt
     RDKit          3D

 26 29  0  0  1  0  0  0  0  0999 V2000
    4.9019   66.6769   84.8554 C   0  0  0  0  0  0  0  0  0  0  0  0
    4.6935   65.3077   84.7865 C   0  0  0  0  0  3  0  0  0  0  0  0
    5.7498   64.4538   84.4602 C   0  0  0  0  0  3  0  0  0  0  0  0
    7.0188   64.9535   84.2003 C   0  0  0  0  0  0  0  0  0  0  0  0
    7.2102   66.3270   84.2735 C   0  0  0  0  0  3  0  0  0  0  0  0
    6.1632   67.1792   84.5976 C   0  0  0  0  0  3  0  0  0  0  0  0
    3.7851   67.5552   85.1983 C   0  0  0  0  0  0  0  0  0  0  0  0
    2.4837   67.0794   85.3535 O   0  0  0  0  0  1  0  0  0  0  0  0
    4.0371   68.7968   85.3558 O   0  0  0  0  0  0  0  0  0  0  0  0
    8.0855   64.0703   83.8689 N   0  0  0  0  0  0  0  0  0  0  0  0
    9.4047   64.5297   83.6139 C   0  0  0  0  0  0  0  0  0  0  0  0
    9.6196   65.7903   83.5079 N   0  0  0  0  0  0  0  0  0  0  0  0
   10.4367   63.5575   83.4869 N   0  0  0  0  0  2  0  0  0  0  0  0
   10.8987   66.4123   83.2511 C   0  0  0  0  0  3  0  0  0  0  0  0
   11.7513   64.0377   83.2316 C   0  0  0  0  0  0  0  0  0  0  0  0
   11.9684   65.3947   83.1200 C   0  0  0  0  0  0  0  0  0  0  0  0
   12.7817   63.1397   83.1008 C   0  0  0  0  0  3  0  0  0  0  0  0
   13.2524   65.8638   82.8706 C   0  0  0  0  0  3  0  0  0  0  0  0
   14.0725   63.5644   82.8527 C   0  0  0  0  0  3  0  0  0  0  0  0
   14.2628   64.9268   82.7455 C   0  0  0  0  0  3  0  0  0  0  0  0
   10.8724   67.3629   82.1249 C   0  0  0  0  0  0  0  0  0  0  0  0
   12.0303   68.1143   81.9056 C   0  0  0  0  0  3  0  0  0  0  0  0
    9.7882   67.5472   81.2922 C   0  0  0  0  0  3  0  0  0  0  0  0
   12.1047   69.0310   80.8763 C   0  0  0  0  0  3  0  0  0  0  0  0
    9.8876   68.4592   80.2827 C   0  0  0  0  0  3  0  0  0  0  0  0
   11.0141   69.2097   80.0466 C   0  0  0  0  0  3  0  0  0  0  0  0
  1  7  1  0
  1  6  2  0
  2  1  1  0
  3  2  2  0
  3  4  1  0
  4  5  2  0
  5  6  1  0
  7  8  1  0
  9  7  2  0
 10  4  1  0
 11 10  1  0
 12 11  2  0
 13 11  1  0
 14 21  1  0
 14 12  1  0
 15 13  1  0
 16 15  2  0
 16 14  1  0
 17 15  1  0
 18 16  1  0
 19 17  2  0
 20 19  1  0
 20 18  2  0
 21 23  2  0
 22 24  2  0
 22 21  1  0
 23 25  1  0
 24 26  1  0
 26 25  2  0
M  RAD  8   2   2   3   2   5   2   6   2   8   2  13   2  14   2  17   2
M  RAD  8  18   2  19   2  20   2  22   2  23   2  24   2  25   2  26   2
M  END
>  <REMARK>  (1) 
 SMILES O=C([O-])c1ccc(Nc2nc(-c3ccccc3)c3ccccc3n2)cc1
 SMILES IDX 4 1 5 2 6 3 7 4 25 5 26 6 2 7 1 8 3 9 8 10 9 12 10 13 24 14
 SMILES IDX 11 15 23 16 18 17 22 18 19 19 21 20 20 21 12 22 13 23 17 24
 SMILES IDX 14 25 16 26 15 27
 H PARENT 8 11

>  <TORSDO>  (1) 
F 4

$$$$
