/home/pchatterjee/Documents/git/vs_workflow/DiffDock/diffdock_run/pdbqt_scrubbed/Z57110395.pdbqt
     RDKit          3D

 26 29  0  0  1  0  0  0  0  0999 V2000
    6.8830   64.6495   84.6115 C   0  0  0  0  0  0  0  0  0  0  0  0
    7.7007   65.6376   84.0843 C   0  0  0  0  0  3  0  0  0  0  0  0
    9.0356   65.3559   83.7838 C   0  0  0  0  0  3  0  0  0  0  0  0
    9.5667   64.0923   84.0047 C   0  0  0  0  0  0  0  0  0  0  0  0
    8.7341   63.1144   84.5332 C   0  0  0  0  0  3  0  0  0  0  0  0
    7.4069   63.3902   84.8332 C   0  0  0  0  0  3  0  0  0  0  0  0
    5.4890   64.9623   84.9197 C   0  0  0  0  0  0  0  0  0  0  0  0
    4.9444   66.2278   84.7051 O   0  0  0  0  0  1  0  0  0  0  0  0
    4.7664   64.0265   85.4013 O   0  0  0  0  0  0  0  0  0  0  0  0
   10.9293   63.8204   83.6934 N   0  0  0  0  0  0  0  0  0  0  0  0
   11.8581   64.8460   83.3746 C   0  0  0  0  0  0  0  0  0  0  0  0
   11.4473   66.0587   83.2888 N   0  0  0  0  0  0  0  0  0  0  0  0
   13.2159   64.4744   83.1633 N   0  0  0  0  0  2  0  0  0  0  0  0
   12.2641   67.2090   82.9747 C   0  0  0  0  0  3  0  0  0  0  0  0
   14.1308   65.5163   82.8450 C   0  0  0  0  0  0  0  0  0  0  0  0
   13.6762   66.8150   82.7559 C   0  0  0  0  0  0  0  0  0  0  0  0
   15.4520   65.2093   82.6319 C   0  0  0  0  0  3  0  0  0  0  0  0
   14.5697   67.8326   82.4450 C   0  0  0  0  0  3  0  0  0  0  0  0
   16.3725   66.1911   82.3206 C   0  0  0  0  0  3  0  0  0  0  0  0
   15.8921   67.4818   82.2376 C   0  0  0  0  0  3  0  0  0  0  0  0
   11.7227   68.0299   81.8767 C   0  0  0  0  0  0  0  0  0  0  0  0
   12.6191   68.8787   81.2216 C   0  0  0  0  0  3  0  0  0  0  0  0
   10.4051   68.0059   81.4689 C   0  0  0  0  0  3  0  0  0  0  0  0
   12.2090   69.6873   80.1807 C   0  0  0  0  0  3  0  0  0  0  0  0
   10.0257   68.8146   80.4380 C   0  0  0  0  0  3  0  0  0  0  0  0
   10.8873   69.6575   79.7783 C   0  0  0  0  0  3  0  0  0  0  0  0
  1  7  1  0
  1  6  2  0
  2  1  1  0
  3  2  2  0
  3  4  1  0
  4  5  2  0
  5  6  1  0
  7  8  1  0
  9  7  2  0
 10  4  1  0
 11 10  1  0
 12 11  2  0
 13 11  1  0
 14 21  1  0
 14 12  1  0
 15 13  1  0
 16 15  2  0
 16 14  1  0
 17 15  1  0
 18 16  1  0
 19 17  2  0
 20 19  1  0
 20 18  2  0
 21 23  2  0
 22 24  2  0
 22 21  1  0
 23 25  1  0
 24 26  1  0
 26 25  2  0
M  RAD  8   2   2   3   2   5   2   6   2   8   2  13   2  14   2  17   2
M  RAD  8  18   2  19   2  20   2  22   2  23   2  24   2  25   2  26   2
M  END
>  <REMARK>  (1) 
 SMILES O=C([O-])c1ccc(Nc2nc(-c3ccccc3)c3ccccc3n2)cc1
 SMILES IDX 4 1 5 2 6 3 7 4 25 5 26 6 2 7 1 8 3 9 8 10 9 12 10 13 24 14
 SMILES IDX 11 15 23 16 18 17 22 18 19 19 21 20 20 21 12 22 13 23 17 24
 SMILES IDX 14 25 16 26 15 27
 H PARENT 8 11

>  <TORSDO>  (1) 
F 4

$$$$
