/home/pchatterjee/Documents/git/vs_workflow/DiffDock/diffdock_run/pdbqt_scrubbed/Z57110395.pdbqt
     RDKit          3D

 26 29  0  0  1  0  0  0  0  0999 V2000
    5.9240   62.5498   83.2893 C   0  0  0  0  0  0  0  0  0  0  0  0
    7.2187   62.7039   82.8172 C   0  0  0  0  0  3  0  0  0  0  0  0
    7.7064   63.9769   82.5123 C   0  0  0  0  0  3  0  0  0  0  0  0
    6.9125   65.1043   82.6741 C   0  0  0  0  0  0  0  0  0  0  0  0
    5.6184   64.9323   83.1479 C   0  0  0  0  0  3  0  0  0  0  0  0
    5.1297   63.6689   83.4521 C   0  0  0  0  0  3  0  0  0  0  0  0
    5.4305   61.2103   83.6031 C   0  0  0  0  0  0  0  0  0  0  0  0
    6.2265   60.0733   83.4711 O   0  0  0  0  0  1  0  0  0  0  0  0
    4.2250   61.1056   84.0104 O   0  0  0  0  0  0  0  0  0  0  0  0
    7.4239   66.3953   82.3591 N   0  0  0  0  0  0  0  0  0  0  0  0
    8.7766   66.6091   81.9840 C   0  0  0  0  0  0  0  0  0  0  0  0
    9.5730   65.6054   81.9122 N   0  0  0  0  0  0  0  0  0  0  0  0
    9.1882   67.9425   81.7025 N   0  0  0  0  0  2  0  0  0  0  0  0
   10.9704   65.6580   81.5469 C   0  0  0  0  0  3  0  0  0  0  0  0
   10.5471   68.1358   81.3286 C   0  0  0  0  0  0  0  0  0  0  0  0
   11.3921   67.0487   81.2553 C   0  0  0  0  0  0  0  0  0  0  0  0
   10.9933   69.4034   81.0469 C   0  0  0  0  0  3  0  0  0  0  0  0
   12.7194   67.2375   80.8900 C   0  0  0  0  0  3  0  0  0  0  0  0
   12.3048   69.6342   80.6802 C   0  0  0  0  0  3  0  0  0  0  0  0
   13.1295   68.5300   80.6144 C   0  0  0  0  0  3  0  0  0  0  0  0
   11.8546   64.9831   82.5140 C   0  0  0  0  0  0  0  0  0  0  0  0
   13.0875   65.5886   82.7718 C   0  0  0  0  0  3  0  0  0  0  0  0
   11.5371   63.8093   83.1653 C   0  0  0  0  0  3  0  0  0  0  0  0
   13.9854   65.0341   83.6616 C   0  0  0  0  0  3  0  0  0  0  0  0
   12.4419   63.2822   84.0396 C   0  0  0  0  0  3  0  0  0  0  0  0
   13.6598   63.8580   84.3100 C   0  0  0  0  0  3  0  0  0  0  0  0
  1  7  1  0
  1  6  2  0
  2  1  1  0
  3  2  2  0
  3  4  1  0
  4  5  2  0
  5  6  1  0
  7  8  1  0
  9  7  2  0
 10  4  1  0
 11 10  1  0
 12 11  2  0
 13 11  1  0
 14 21  1  0
 14 12  1  0
 15 13  1  0
 16 15  2  0
 16 14  1  0
 17 15  1  0
 18 16  1  0
 19 17  2  0
 20 19  1  0
 20 18  2  0
 21 23  2  0
 22 24  2  0
 22 21  1  0
 23 25  1  0
 24 26  1  0
 26 25  2  0
M  RAD  8   2   2   3   2   5   2   6   2   8   2  13   2  14   2  17   2
M  RAD  8  18   2  19   2  20   2  22   2  23   2  24   2  25   2  26   2
M  END
>  <REMARK>  (1) 
 SMILES O=C([O-])c1ccc(Nc2nc(-c3ccccc3)c3ccccc3n2)cc1
 SMILES IDX 4 1 5 2 6 3 7 4 25 5 26 6 2 7 1 8 3 9 8 10 9 12 10 13 24 14
 SMILES IDX 11 15 23 16 18 17 22 18 19 19 21 20 20 21 12 22 13 23 17 24
 SMILES IDX 14 25 16 26 15 27
 H PARENT 8 11

>  <TORSDO>  (1) 
F 4

$$$$
