/home/pchatterjee/Documents/git/vs_workflow/DiffDock/diffdock_run/pdbqt_scrubbed/Z57110395.pdbqt
     RDKit          3D

 26 29  0  0  1  0  0  0  0  0999 V2000
    5.9369   62.3731   83.0557 C   0  0  0  0  0  0  0  0  0  0  0  0
    5.0939   63.4686   83.1662 C   0  0  0  0  0  3  0  0  0  0  0  0
    5.5976   64.7603   82.9952 C   0  0  0  0  0  3  0  0  0  0  0  0
    6.9404   64.9725   82.7135 C   0  0  0  0  0  0  0  0  0  0  0  0
    7.7708   63.8645   82.6061 C   0  0  0  0  0  3  0  0  0  0  0  0
    7.2743   62.5791   82.7754 C   0  0  0  0  0  3  0  0  0  0  0  0
    5.3925   61.0290   83.2377 C   0  0  0  0  0  0  0  0  0  0  0  0
    4.0605   60.8053   83.5836 O   0  0  0  0  0  1  0  0  0  0  0  0
    6.1854   60.0428   83.0682 O   0  0  0  0  0  0  0  0  0  0  0  0
    7.4389   66.2953   82.5418 N   0  0  0  0  0  0  0  0  0  0  0  0
    8.7865   66.5617   82.1826 C   0  0  0  0  0  0  0  0  0  0  0  0
    9.6137   65.5855   82.0850 N   0  0  0  0  0  0  0  0  0  0  0  0
    9.1586   67.9151   81.9455 N   0  0  0  0  0  2  0  0  0  0  0  0
   11.0109   65.6920   81.7309 C   0  0  0  0  0  3  0  0  0  0  0  0
   10.5131   68.1613   81.5867 C   0  0  0  0  0  0  0  0  0  0  0  0
   11.3915   67.1033   81.4854 C   0  0  0  0  0  0  0  0  0  0  0  0
   10.9219   69.4501   81.3476 C   0  0  0  0  0  3  0  0  0  0  0  0
   12.7144   67.3438   81.1351 C   0  0  0  0  0  3  0  0  0  0  0  0
   12.2278   69.7321   80.9969 C   0  0  0  0  0  3  0  0  0  0  0  0
   13.0863   68.6562   80.9024 C   0  0  0  0  0  3  0  0  0  0  0  0
   11.9098   65.0144   82.6824 C   0  0  0  0  0  0  0  0  0  0  0  0
   12.9846   64.3047   82.1399 C   0  0  0  0  0  3  0  0  0  0  0  0
   11.7507   65.0426   84.0524 C   0  0  0  0  0  3  0  0  0  0  0  0
   13.8824   63.6365   82.9480 C   0  0  0  0  0  3  0  0  0  0  0  0
   12.6516   64.3741   84.8284 C   0  0  0  0  0  3  0  0  0  0  0  0
   13.7159   63.6696   84.3195 C   0  0  0  0  0  3  0  0  0  0  0  0
  1  7  1  0
  1  6  2  0
  2  1  1  0
  3  2  2  0
  3  4  1  0
  4  5  2  0
  5  6  1  0
  7  8  1  0
  9  7  2  0
 10  4  1  0
 11 10  1  0
 12 11  2  0
 13 11  1  0
 14 21  1  0
 14 12  1  0
 15 13  1  0
 16 15  2  0
 16 14  1  0
 17 15  1  0
 18 16  1  0
 19 17  2  0
 20 19  1  0
 20 18  2  0
 21 23  2  0
 22 24  2  0
 22 21  1  0
 23 25  1  0
 24 26  1  0
 26 25  2  0
M  RAD  8   2   2   3   2   5   2   6   2   8   2  13   2  14   2  17   2
M  RAD  8  18   2  19   2  20   2  22   2  23   2  24   2  25   2  26   2
M  END
>  <REMARK>  (1) 
 SMILES O=C([O-])c1ccc(Nc2nc(-c3ccccc3)c3ccccc3n2)cc1
 SMILES IDX 4 1 5 2 6 3 7 4 25 5 26 6 2 7 1 8 3 9 8 10 9 12 10 13 24 14
 SMILES IDX 11 15 23 16 18 17 22 18 19 19 21 20 20 21 12 22 13 23 17 24
 SMILES IDX 14 25 16 26 15 27
 H PARENT 8 11

>  <TORSDO>  (1) 
F 4

$$$$
