/home/pchatterjee/Documents/git/vs_workflow/DiffDock/diffdock_run/pdbqt_scrubbed/Z57110395.pdbqt
     RDKit          3D

 26 29  0  0  1  0  0  0  0  0999 V2000
    5.8571   62.6340   83.4380 C   0  0  0  0  0  0  0  0  0  0  0  0
    5.1985   63.7855   83.8421 C   0  0  0  0  0  3  0  0  0  0  0  0
    5.7770   65.0376   83.6210 C   0  0  0  0  0  3  0  0  0  0  0  0
    7.0122   65.1545   82.9979 C   0  0  0  0  0  0  0  0  0  0  0  0
    7.6581   63.9914   82.5995 C   0  0  0  0  0  3  0  0  0  0  0  0
    7.0867   62.7450   82.8173 C   0  0  0  0  0  3  0  0  0  0  0  0
    5.2367   61.3324   83.6775 C   0  0  0  0  0  0  0  0  0  0  0  0
    5.8329   60.1378   83.2757 O   0  0  0  0  0  1  0  0  0  0  0  0
    4.1099   61.3169   84.2774 O   0  0  0  0  0  0  0  0  0  0  0  0
    7.5890   66.4379   82.7795 N   0  0  0  0  0  0  0  0  0  0  0  0
    8.9185   66.6067   82.3103 C   0  0  0  0  0  0  0  0  0  0  0  0
    9.6654   65.5743   82.1594 N   0  0  0  0  0  0  0  0  0  0  0  0
    9.3631   67.9290   82.0269 N   0  0  0  0  0  2  0  0  0  0  0  0
   11.0335   65.5800   81.6934 C   0  0  0  0  0  3  0  0  0  0  0  0
   10.6980   68.0771   81.5580 C   0  0  0  0  0  0  0  0  0  0  0  0
   11.4899   66.9595   81.4003 C   0  0  0  0  0  0  0  0  0  0  0  0
   11.1744   69.3323   81.2704 C   0  0  0  0  0  3  0  0  0  0  0  0
   12.7938   67.1041   80.9423 C   0  0  0  0  0  3  0  0  0  0  0  0
   12.4643   69.5196   80.8129 C   0  0  0  0  0  3  0  0  0  0  0  0
   13.2357   68.3855   80.6639 C   0  0  0  0  0  3  0  0  0  0  0  0
   11.9572   64.8480   82.5787 C   0  0  0  0  0  0  0  0  0  0  0  0
   12.8846   64.0027   81.9634 C   0  0  0  0  0  3  0  0  0  0  0  0
   11.9555   64.9502   83.9543 C   0  0  0  0  0  3  0  0  0  0  0  0
   13.7921   63.2742   82.7059 C   0  0  0  0  0  3  0  0  0  0  0  0
   12.8625   64.2197   84.6646 C   0  0  0  0  0  3  0  0  0  0  0  0
   13.7839   63.3822   84.0835 C   0  0  0  0  0  3  0  0  0  0  0  0
  1  7  1  0
  1  6  2  0
  2  1  1  0
  3  2  2  0
  3  4  1  0
  4  5  2  0
  5  6  1  0
  7  8  1  0
  9  7  2  0
 10  4  1  0
 11 10  1  0
 12 11  2  0
 13 11  1  0
 14 21  1  0
 14 12  1  0
 15 13  1  0
 16 15  2  0
 16 14  1  0
 17 15  1  0
 18 16  1  0
 19 17  2  0
 20 19  1  0
 20 18  2  0
 21 23  2  0
 22 24  2  0
 22 21  1  0
 23 25  1  0
 24 26  1  0
 26 25  2  0
M  RAD  8   2   2   3   2   5   2   6   2   8   2  13   2  14   2  17   2
M  RAD  8  18   2  19   2  20   2  22   2  23   2  24   2  25   2  26   2
M  END
>  <REMARK>  (1) 
 SMILES O=C([O-])c1ccc(Nc2nc(-c3ccccc3)c3ccccc3n2)cc1
 SMILES IDX 4 1 5 2 6 3 7 4 25 5 26 6 2 7 1 8 3 9 8 10 9 12 10 13 24 14
 SMILES IDX 11 15 23 16 18 17 22 18 19 19 21 20 20 21 12 22 13 23 17 24
 SMILES IDX 14 25 16 26 15 27
 H PARENT 8 11

>  <TORSDO>  (1) 
F 4

$$$$
