/home/pchatterjee/Documents/git/vs_workflow/DiffDock/diffdock_run/pdbqt_scrubbed/Z57110395.pdbqt
     RDKit          3D

 26 29  0  0  1  0  0  0  0  0999 V2000
    5.8078   62.5592   83.6209 C   0  0  0  0  0  0  0  0  0  0  0  0
    5.1402   63.6976   84.0462 C   0  0  0  0  0  3  0  0  0  0  0  0
    5.7227   64.9560   83.8766 C   0  0  0  0  0  3  0  0  0  0  0  0
    6.9708   65.0919   83.2841 C   0  0  0  0  0  0  0  0  0  0  0  0
    7.6258   63.9417   82.8638 C   0  0  0  0  0  3  0  0  0  0  0  0
    7.0505   62.6892   83.0305 C   0  0  0  0  0  3  0  0  0  0  0  0
    5.1831   61.2509   83.8064 C   0  0  0  0  0  0  0  0  0  0  0  0
    3.9625   61.0945   84.4619 O   0  0  0  0  0  1  0  0  0  0  0  0
    5.7973   60.2322   83.3428 O   0  0  0  0  0  0  0  0  0  0  0  0
    7.5516   66.3814   83.1181 N   0  0  0  0  0  0  0  0  0  0  0  0
    8.8543   66.5683   82.5851 C   0  0  0  0  0  0  0  0  0  0  0  0
    9.6033   65.5451   82.3879 N   0  0  0  0  0  0  0  0  0  0  0  0
    9.2709   67.8976   82.2920 N   0  0  0  0  0  2  0  0  0  0  0  0
   10.9464   65.5693   81.8547 C   0  0  0  0  0  3  0  0  0  0  0  0
   10.5793   68.0638   81.7588 C   0  0  0  0  0  0  0  0  0  0  0  0
   11.3737   66.9560   81.5518 C   0  0  0  0  0  0  0  0  0  0  0  0
   11.0281   69.3264   81.4594 C   0  0  0  0  0  3  0  0  0  0  0  0
   12.6516   67.1183   81.0310 C   0  0  0  0  0  3  0  0  0  0  0  0
   12.2917   69.5312   80.9402 C   0  0  0  0  0  3  0  0  0  0  0  0
   13.0662   68.4066   80.7427 C   0  0  0  0  0  3  0  0  0  0  0  0
   11.9203   64.8395   82.6863 C   0  0  0  0  0  0  0  0  0  0  0  0
   13.2456   64.8276   82.2430 C   0  0  0  0  0  3  0  0  0  0  0  0
   11.6004   64.1807   83.8552 C   0  0  0  0  0  3  0  0  0  0  0  0
   14.2318   64.1715   82.9518 C   0  0  0  0  0  3  0  0  0  0  0  0
   12.5934   63.5402   84.5367 C   0  0  0  0  0  3  0  0  0  0  0  0
   13.9032   63.5139   84.1220 C   0  0  0  0  0  3  0  0  0  0  0  0
  1  7  1  0
  1  6  2  0
  2  1  1  0
  3  2  2  0
  3  4  1  0
  4  5  2  0
  5  6  1  0
  7  8  1  0
  9  7  2  0
 10  4  1  0
 11 10  1  0
 12 11  2  0
 13 11  1  0
 14 21  1  0
 14 12  1  0
 15 13  1  0
 16 15  2  0
 16 14  1  0
 17 15  1  0
 18 16  1  0
 19 17  2  0
 20 19  1  0
 20 18  2  0
 21 23  2  0
 22 24  2  0
 22 21  1  0
 23 25  1  0
 24 26  1  0
 26 25  2  0
M  RAD  8   2   2   3   2   5   2   6   2   8   2  13   2  14   2  17   2
M  RAD  8  18   2  19   2  20   2  22   2  23   2  24   2  25   2  26   2
M  END
>  <REMARK>  (1) 
 SMILES O=C([O-])c1ccc(Nc2nc(-c3ccccc3)c3ccccc3n2)cc1
 SMILES IDX 4 1 5 2 6 3 7 4 25 5 26 6 2 7 1 8 3 9 8 10 9 12 10 13 24 14
 SMILES IDX 11 15 23 16 18 17 22 18 19 19 21 20 20 21 12 22 13 23 17 24
 SMILES IDX 14 25 16 26 15 27
 H PARENT 8 11

>  <TORSDO>  (1) 
F 4

$$$$
