/home/pchatterjee/Documents/git/vs_workflow/DiffDock/diffdock_run/pdbqt_scrubbed/Z57110395.pdbqt
     RDKit          3D

 26 29  0  0  1  0  0  0  0  0999 V2000
    6.7162   61.4484   55.5960 C   0  0  0  0  0  0  0  0  0  0  0  0
    7.6527   62.4163   55.2659 C   0  0  0  0  0  3  0  0  0  0  0  0
    9.0172   62.1304   55.3555 C   0  0  0  0  0  3  0  0  0  0  0  0
    9.4602   60.8827   55.7730 C   0  0  0  0  0  0  0  0  0  0  0  0
    8.5092   59.9249   56.0997 C   0  0  0  0  0  3  0  0  0  0  0  0
    7.1522   60.2048   56.0121 C   0  0  0  0  0  3  0  0  0  0  0  0
    5.2929   61.7652   55.4963 C   0  0  0  0  0  0  0  0  0  0  0  0
    4.8344   62.9900   55.0129 O   0  0  0  0  0  1  0  0  0  0  0  0
    4.4615   60.8719   55.8715 O   0  0  0  0  0  0  0  0  0  0  0  0
   10.8545   60.6064   55.8592 N   0  0  0  0  0  0  0  0  0  0  0  0
   11.8438   61.5456   55.4654 C   0  0  0  0  0  0  0  0  0  0  0  0
   11.5642   62.7977   55.4902 N   0  0  0  0  0  0  0  0  0  0  0  0
   13.1129   61.0462   55.0572 N   0  0  0  0  0  2  0  0  0  0  0  0
   12.4579   63.8722   55.1216 C   0  0  0  0  0  3  0  0  0  0  0  0
   14.0905   62.0030   54.6664 C   0  0  0  0  0  0  0  0  0  0  0  0
   13.7769   63.3453   54.6978 C   0  0  0  0  0  0  0  0  0  0  0  0
   15.3305   61.5718   54.2643 C   0  0  0  0  0  3  0  0  0  0  0  0
   14.7317   64.2799   54.3161 C   0  0  0  0  0  3  0  0  0  0  0  0
   16.3078   62.4679   53.8771 C   0  0  0  0  0  3  0  0  0  0  0  0
   15.9687   63.8047   53.9176 C   0  0  0  0  0  3  0  0  0  0  0  0
   11.8756   64.8095   54.1443 C   0  0  0  0  0  0  0  0  0  0  0  0
   12.7565   65.6926   53.5141 C   0  0  0  0  0  3  0  0  0  0  0  0
   10.5347   64.8609   53.8247 C   0  0  0  0  0  3  0  0  0  0  0  0
   12.3084   66.6086   52.5836 C   0  0  0  0  0  3  0  0  0  0  0  0
   10.1178   65.7752   52.9022 C   0  0  0  0  0  3  0  0  0  0  0  0
   10.9635   66.6537   52.2689 C   0  0  0  0  0  3  0  0  0  0  0  0
  1  7  1  0
  1  6  2  0
  2  1  1  0
  3  2  2  0
  3  4  1  0
  4  5  2  0
  5  6  1  0
  7  8  1  0
  9  7  2  0
 10  4  1  0
 11 10  1  0
 12 11  2  0
 13 11  1  0
 14 21  1  0
 14 12  1  0
 15 13  1  0
 16 15  2  0
 16 14  1  0
 17 15  1  0
 18 16  1  0
 19 17  2  0
 20 19  1  0
 20 18  2  0
 21 23  2  0
 22 24  2  0
 22 21  1  0
 23 25  1  0
 24 26  1  0
 26 25  2  0
M  RAD  8   2   2   3   2   5   2   6   2   8   2  13   2  14   2  17   2
M  RAD  8  18   2  19   2  20   2  22   2  23   2  24   2  25   2  26   2
M  END
>  <REMARK>  (1) 
 SMILES O=C([O-])c1ccc(Nc2nc(-c3ccccc3)c3ccccc3n2)cc1
 SMILES IDX 4 1 5 2 6 3 7 4 25 5 26 6 2 7 1 8 3 9 8 10 9 12 10 13 24 14
 SMILES IDX 11 15 23 16 18 17 22 18 19 19 21 20 20 21 12 22 13 23 17 24
 SMILES IDX 14 25 16 26 15 27
 H PARENT 8 11

>  <TORSDO>  (1) 
F 4

$$$$
