/home/pchatterjee/Documents/git/vs_workflow/DiffDock/diffdock_run/pdbqt_scrubbed/Z57110395.pdbqt
     RDKit          3D

 26 29  0  0  1  0  0  0  0  0999 V2000
    6.0740   63.1918   84.7809 C   0  0  0  0  0  0  0  0  0  0  0  0
    7.1406   63.1992   83.8948 C   0  0  0  0  0  3  0  0  0  0  0  0
    7.6291   64.4094   83.3966 C   0  0  0  0  0  3  0  0  0  0  0  0
    7.0622   65.6190   83.7747 C   0  0  0  0  0  0  0  0  0  0  0  0
    5.9949   65.5937   84.6629 C   0  0  0  0  0  3  0  0  0  0  0  0
    5.5063   64.3932   85.1604 C   0  0  0  0  0  3  0  0  0  0  0  0
    5.5761   61.9161   85.2919 C   0  0  0  0  0  0  0  0  0  0  0  0
    6.1150   60.6931   84.8947 O   0  0  0  0  0  1  0  0  0  0  0  0
    4.6136   61.9510   86.1299 O   0  0  0  0  0  0  0  0  0  0  0  0
    7.5713   66.8445   83.2583 N   0  0  0  0  0  0  0  0  0  0  0  0
    8.8347   66.9354   82.6166 C   0  0  0  0  0  0  0  0  0  0  0  0
    9.5369   65.8725   82.4621 N   0  0  0  0  0  0  0  0  0  0  0  0
    9.2658   68.2167   82.1705 N   0  0  0  0  0  2  0  0  0  0  0  0
   10.8358   65.8001   81.8325 C   0  0  0  0  0  3  0  0  0  0  0  0
   10.5342   68.2868   81.5301 C   0  0  0  0  0  0  0  0  0  0  0  0
   11.2784   67.1372   81.3706 C   0  0  0  0  0  0  0  0  0  0  0  0
   10.9950   69.5000   81.0817 C   0  0  0  0  0  3  0  0  0  0  0  0
   12.5173   67.2056   80.7451 C   0  0  0  0  0  3  0  0  0  0  0  0
   12.2208   69.6114   80.4549 C   0  0  0  0  0  3  0  0  0  0  0  0
   12.9455   68.4466   80.3078 C   0  0  0  0  0  3  0  0  0  0  0  0
   11.8487   65.1151   82.6556 C   0  0  0  0  0  0  0  0  0  0  0  0
   11.5615   63.8054   83.0498 C   0  0  0  0  0  3  0  0  0  0  0  0
   13.0410   65.6857   83.0500 C   0  0  0  0  0  3  0  0  0  0  0  0
   12.4462   63.0798   83.8220 C   0  0  0  0  0  3  0  0  0  0  0  0
   13.8977   64.9474   83.8126 C   0  0  0  0  0  3  0  0  0  0  0  0
   13.6386   63.6587   84.2129 C   0  0  0  0  0  3  0  0  0  0  0  0
  1  7  1  0
  1  6  2  0
  2  1  1  0
  3  2  2  0
  3  4  1  0
  4  5  2  0
  5  6  1  0
  7  8  1  0
  9  7  2  0
 10  4  1  0
 11 10  1  0
 12 11  2  0
 13 11  1  0
 14 21  1  0
 14 12  1  0
 15 13  1  0
 16 15  2  0
 16 14  1  0
 17 15  1  0
 18 16  1  0
 19 17  2  0
 20 19  1  0
 20 18  2  0
 21 23  2  0
 22 24  2  0
 22 21  1  0
 23 25  1  0
 24 26  1  0
 26 25  2  0
M  RAD  8   2   2   3   2   5   2   6   2   8   2  13   2  14   2  17   2
M  RAD  8  18   2  19   2  20   2  22   2  23   2  24   2  25   2  26   2
M  END
>  <REMARK>  (1) 
 SMILES O=C([O-])c1ccc(Nc2nc(-c3ccccc3)c3ccccc3n2)cc1
 SMILES IDX 4 1 5 2 6 3 7 4 25 5 26 6 2 7 1 8 3 9 8 10 9 12 10 13 24 14
 SMILES IDX 11 15 23 16 18 17 22 18 19 19 21 20 20 21 12 22 13 23 17 24
 SMILES IDX 14 25 16 26 15 27
 H PARENT 8 11

>  <TORSDO>  (1) 
F 4

$$$$
