/home/pchatterjee/Documents/git/vs_workflow/DiffDock/diffdock_run/pdbqt_scrubbed/5329561.pdbqt
     RDKit          3D

 26 29  0  0  1  0  0  0  0  0999 V2000
    7.7529   43.4791   49.2543 C   0  0  0  0  0  0  0  0  0  0  0  0
    6.7401   44.0397   50.0781 N   0  0  0  0  0  0  0  0  0  0  0  0
    7.0152   45.0110   50.9095 C   0  0  0  0  0  0  0  0  0  0  0  0
    8.3164   45.5382   50.9895 C   0  0  0  0  0  3  0  0  0  0  0  0
    8.9301   46.0437   52.1435 N   0  0  0  0  0  0  0  0  0  0  0  0
   10.2496   46.4638   51.5960 C   0  0  0  0  0  2  0  0  0  0  0  0
   10.4808   45.4576   50.5509 N   0  0  0  0  0  0  0  0  0  0  0  0
    9.3447   44.9123   50.1968 C   0  0  0  0  0  0  0  0  0  0  0  0
    8.9889   43.8731   49.2829 N   0  0  0  0  0  0  0  0  0  0  0  0
    7.4206   42.4220   48.3343 N   0  0  0  0  0  0  0  0  0  0  0  0
    6.1214   41.8258   48.4246 C   0  0  0  0  0  0  0  0  0  0  0  0
    3.6100   40.6669   48.5793 C   0  0  0  0  0  0  0  0  0  0  0  0
    4.1244   41.2854   49.6944 C   0  0  0  0  0  3  0  0  0  0  0  0
    4.3585   40.6432   47.4228 C   0  0  0  0  0  3  0  0  0  0  0  0
    5.3842   41.8627   49.6046 C   0  0  0  0  0  3  0  0  0  0  0  0
    5.6077   41.1993   47.2843 C   0  0  0  0  0  3  0  0  0  0  0  0
    2.0118   39.8852   48.5448 S   0  0  0  0  0  0  0  0  0  0  0  0
    0.9954   40.5875   47.2185 C   0  0  0  0  0  1  0  0  0  0  0  0
    5.9758   45.5110   51.7008 O   0  0  0  0  0  0  0  0  0  0  0  0
    4.8128   44.7135   51.8036 C   0  0  0  0  0  2  0  0  0  0  0  0
    3.7474   45.2499   52.6766 C   0  0  0  0  0  3  0  0  0  0  0  0
    3.1357   46.5446   52.2782 C   0  0  0  0  0  2  0  0  0  0  0  0
    3.8974   45.0257   54.1393 C   0  0  0  0  0  2  0  0  0  0  0  0
    1.8276   46.7216   53.0077 C   0  0  0  0  0  2  0  0  0  0  0  0
    2.4876   45.0868   54.7438 C   0  0  0  0  0  2  0  0  0  0  0  0
    1.9979   46.5179   54.5021 C   0  0  0  0  0  2  0  0  0  0  0  0
  1  2  1  0
  2  3  2  0
  3 19  1  0
  4  8  1  0
  4  3  1  0
  4  5  1  0
  6  5  1  0
  7  8  2  0
  7  6  1  0
  9  1  2  0
  9  8  1  0
 10  1  1  0
 11 10  1  0
 11 15  2  0
 12 13  2  0
 13 15  1  0
 14 16  2  0
 14 12  1  0
 16 11  1  0
 17 12  1  0
 17 18  1  0
 19 20  1  0
 20 21  1  0
 21 23  1  0
 21 22  1  0
 24 26  1  0
 24 22  1  0
 25 26  1  0
 25 23  1  0
M  RAD  8   4   2   6   3  13   2  14   2  15   2  16   2  18   2  20   3
M  RAD  6  21   2  22   3  23   3  24   3  25   3  26   3
M  END
>  <REMARK>  (1) 
 SMILES CSc1ccc(Nc2nc(OCC3CCCCC3)c3[nH]cnc3n2)cc1
 SMILES IDX 8 1 9 2 10 3 19 4 20 5 21 6 22 7 23 8 24 9 7 11 6 13 3 14
 SMILES IDX 4 15 26 16 5 17 25 18 2 19 1 20 11 21 12 22 13 23 14 24
 SMILES IDX 18 25 15 26 17 27 16 28
 H PARENT 20 10 7 12

>  <TORSDO>  (1) 
F 6

$$$$
