/home/pchatterjee/Documents/git/vs_workflow/DiffDock/diffdock_run/pdbqt_scrubbed/5329561.pdbqt
     RDKit          3D

 26 29  0  0  1  0  0  0  0  0999 V2000
    7.7757   43.4979   49.4584 C   0  0  0  0  0  0  0  0  0  0  0  0
    6.7378   44.0497   50.2566 N   0  0  0  0  0  0  0  0  0  0  0  0
    6.9848   45.0193   51.0987 C   0  0  0  0  0  0  0  0  0  0  0  0
    8.2804   45.5534   51.2158 C   0  0  0  0  0  3  0  0  0  0  0  0
    8.8598   46.0578   52.3879 N   0  0  0  0  0  0  0  0  0  0  0  0
   10.1912   46.4874   51.8779 C   0  0  0  0  0  2  0  0  0  0  0  0
   10.4563   45.4866   50.8356 N   0  0  0  0  0  0  0  0  0  0  0  0
    9.3333   44.9363   50.4490 C   0  0  0  0  0  0  0  0  0  0  0  0
    9.0083   43.8987   49.5219 N   0  0  0  0  0  0  0  0  0  0  0  0
    7.4744   42.4426   48.5258 N   0  0  0  0  0  0  0  0  0  0  0  0
    6.1605   41.8727   48.5456 C   0  0  0  0  0  0  0  0  0  0  0  0
    3.6172   40.7762   48.6038 C   0  0  0  0  0  0  0  0  0  0  0  0
    4.3434   40.7045   47.4385 C   0  0  0  0  0  3  0  0  0  0  0  0
    4.1764   41.3898   49.7033 C   0  0  0  0  0  3  0  0  0  0  0  0
    5.6170   41.2577   47.4215 C   0  0  0  0  0  3  0  0  0  0  0  0
    5.4305   41.9512   49.7363 C   0  0  0  0  0  3  0  0  0  0  0  0
    1.9749   40.1127   48.7746 S   0  0  0  0  0  0  0  0  0  0  0  0
    1.1401   40.8566   50.2011 C   0  0  0  0  0  1  0  0  0  0  0  0
    5.9217   45.5104   51.8634 O   0  0  0  0  0  0  0  0  0  0  0  0
    4.7617   44.7049   51.9338 C   0  0  0  0  0  2  0  0  0  0  0  0
    3.6585   45.2467   52.7549 C   0  0  0  0  0  3  0  0  0  0  0  0
    3.0119   46.4968   52.2773 C   0  0  0  0  0  2  0  0  0  0  0  0
    3.7822   45.1026   54.2301 C   0  0  0  0  0  2  0  0  0  0  0  0
    1.6819   46.6639   52.9686 C   0  0  0  0  0  2  0  0  0  0  0  0
    2.3575   45.1440   54.8004 C   0  0  0  0  0  2  0  0  0  0  0  0
    1.8245   46.5426   54.4748 C   0  0  0  0  0  2  0  0  0  0  0  0
  1  2  1  0
  2  3  2  0
  3 19  1  0
  4  8  1  0
  4  3  1  0
  4  5  1  0
  6  5  1  0
  7  8  2  0
  7  6  1  0
  9  1  2  0
  9  8  1  0
 10  1  1  0
 11 10  1  0
 11 15  2  0
 12 13  2  0
 13 15  1  0
 14 16  2  0
 14 12  1  0
 16 11  1  0
 17 12  1  0
 17 18  1  0
 19 20  1  0
 20 21  1  0
 21 23  1  0
 21 22  1  0
 24 26  1  0
 24 22  1  0
 25 26  1  0
 25 23  1  0
M  RAD  8   4   2   6   3  13   2  14   2  15   2  16   2  18   2  20   3
M  RAD  6  21   2  22   3  23   3  24   3  25   3  26   3
M  END
>  <REMARK>  (1) 
 SMILES CSc1ccc(Nc2nc(OCC3CCCCC3)c3[nH]cnc3n2)cc1
 SMILES IDX 8 1 9 2 10 3 19 4 20 5 21 6 22 7 23 8 24 9 7 11 6 13 3 14
 SMILES IDX 4 15 26 16 5 17 25 18 2 19 1 20 11 21 12 22 13 23 14 24
 SMILES IDX 18 25 15 26 17 27 16 28
 H PARENT 20 10 7 12

>  <TORSDO>  (1) 
F 6

$$$$
