/home/pchatterjee/Documents/git/vs_workflow/DiffDock/diffdock_run/pdbqt_scrubbed/5329561.pdbqt
     RDKit          3D

 26 29  0  0  1  0  0  0  0  0999 V2000
    7.9236   43.3765   49.6457 C   0  0  0  0  0  0  0  0  0  0  0  0
    6.8337   43.9690   50.3385 N   0  0  0  0  0  0  0  0  0  0  0  0
    7.0175   45.0074   51.1120 C   0  0  0  0  0  0  0  0  0  0  0  0
    8.2959   45.5752   51.2568 C   0  0  0  0  0  3  0  0  0  0  0  0
    8.8001   46.1829   52.4145 N   0  0  0  0  0  0  0  0  0  0  0  0
   10.1513   46.5973   51.9456 C   0  0  0  0  0  2  0  0  0  0  0  0
   10.4905   45.5223   51.0035 N   0  0  0  0  0  0  0  0  0  0  0  0
    9.3999   44.9204   50.6013 C   0  0  0  0  0  0  0  0  0  0  0  0
    9.1441   43.8059   49.7444 N   0  0  0  0  0  0  0  0  0  0  0  0
    7.6921   42.2444   48.7861 N   0  0  0  0  0  0  0  0  0  0  0  0
    6.3599   41.7274   48.6870 C   0  0  0  0  0  0  0  0  0  0  0  0
    3.7790   40.7363   48.5137 C   0  0  0  0  0  0  0  0  0  0  0  0
    4.6606   40.4713   47.4925 C   0  0  0  0  0  3  0  0  0  0  0  0
    4.2063   41.4848   49.5886 C   0  0  0  0  0  3  0  0  0  0  0  0
    5.9516   40.9735   47.5907 C   0  0  0  0  0  3  0  0  0  0  0  0
    5.4712   42.0029   49.7315 C   0  0  0  0  0  3  0  0  0  0  0  0
    2.0955   40.1597   48.5260 S   0  0  0  0  0  0  0  0  0  0  0  0
    1.5560   39.8264   50.2240 C   0  0  0  0  0  1  0  0  0  0  0  0
    5.9053   45.5363   51.7750 O   0  0  0  0  0  0  0  0  0  0  0  0
    4.7526   44.7196   51.8373 C   0  0  0  0  0  2  0  0  0  0  0  0
    3.6392   45.2501   52.6520 C   0  0  0  0  0  3  0  0  0  0  0  0
    2.8720   46.3906   52.0865 C   0  0  0  0  0  2  0  0  0  0  0  0
    3.8296   45.2637   54.1271 C   0  0  0  0  0  2  0  0  0  0  0  0
    1.5595   46.5182   52.8183 C   0  0  0  0  0  2  0  0  0  0  0  0
    2.4288   45.2471   54.7549 C   0  0  0  0  0  2  0  0  0  0  0  0
    1.7680   46.5591   54.3212 C   0  0  0  0  0  2  0  0  0  0  0  0
  1  2  1  0
  2  3  2  0
  3 19  1  0
  4  8  1  0
  4  3  1  0
  4  5  1  0
  6  5  1  0
  7  8  2  0
  7  6  1  0
  9  1  2  0
  9  8  1  0
 10  1  1  0
 11 10  1  0
 11 15  2  0
 12 13  2  0
 13 15  1  0
 14 16  2  0
 14 12  1  0
 16 11  1  0
 17 12  1  0
 17 18  1  0
 19 20  1  0
 20 21  1  0
 21 23  1  0
 21 22  1  0
 24 26  1  0
 24 22  1  0
 25 26  1  0
 25 23  1  0
M  RAD  8   4   2   6   3  13   2  14   2  15   2  16   2  18   2  20   3
M  RAD  6  21   2  22   3  23   3  24   3  25   3  26   3
M  END
>  <REMARK>  (1) 
 SMILES CSc1ccc(Nc2nc(OCC3CCCCC3)c3[nH]cnc3n2)cc1
 SMILES IDX 8 1 9 2 10 3 19 4 20 5 21 6 22 7 23 8 24 9 7 11 6 13 3 14
 SMILES IDX 4 15 26 16 5 17 25 18 2 19 1 20 11 21 12 22 13 23 14 24
 SMILES IDX 18 25 15 26 17 27 16 28
 H PARENT 20 10 7 12

>  <TORSDO>  (1) 
F 6

$$$$
