/home/pchatterjee/Documents/git/vs_workflow/DiffDock/diffdock_run/pdbqt_scrubbed/5329561.pdbqt
     RDKit          3D

 26 29  0  0  1  0  0  0  0  0999 V2000
    7.8946   43.4245   49.5039 C   0  0  0  0  0  0  0  0  0  0  0  0
    6.8266   44.0039   50.2403 N   0  0  0  0  0  0  0  0  0  0  0  0
    7.0247   45.0567   50.9905 C   0  0  0  0  0  0  0  0  0  0  0  0
    8.2960   45.6530   51.0663 C   0  0  0  0  0  3  0  0  0  0  0  0
    8.8417   46.2874   52.1904 N   0  0  0  0  0  0  0  0  0  0  0  0
   10.1598   46.7232   51.6518 C   0  0  0  0  0  2  0  0  0  0  0  0
   10.4767   45.6422   50.7088 N   0  0  0  0  0  0  0  0  0  0  0  0
    9.3814   45.0121   50.3673 C   0  0  0  0  0  0  0  0  0  0  0  0
    9.1090   43.8806   49.5383 N   0  0  0  0  0  0  0  0  0  0  0  0
    7.6468   42.2758   48.6713 N   0  0  0  0  0  0  0  0  0  0  0  0
    6.3266   41.7203   48.6550 C   0  0  0  0  0  0  0  0  0  0  0  0
    3.7698   40.6544   48.6422 C   0  0  0  0  0  0  0  0  0  0  0  0
    4.5896   40.4232   47.5630 C   0  0  0  0  0  3  0  0  0  0  0  0
    4.2450   41.4074   49.6936 C   0  0  0  0  0  3  0  0  0  0  0  0
    5.8691   40.9626   47.5809 C   0  0  0  0  0  3  0  0  0  0  0  0
    5.5009   41.9617   49.7580 C   0  0  0  0  0  3  0  0  0  0  0  0
    2.1082   40.0282   48.7595 S   0  0  0  0  0  0  0  0  0  0  0  0
    1.5450   40.0551   50.4821 C   0  0  0  0  0  1  0  0  0  0  0  0
    5.9342   45.5717   51.6990 O   0  0  0  0  0  0  0  0  0  0  0  0
    4.8190   44.7176   51.8614 C   0  0  0  0  0  2  0  0  0  0  0  0
    3.5489   45.3877   52.2115 C   0  0  0  0  0  3  0  0  0  0  0  0
    3.6318   46.8048   52.6518 C   0  0  0  0  0  2  0  0  0  0  0  0
    2.5118   44.5591   52.8826 C   0  0  0  0  0  2  0  0  0  0  0  0
    2.2651   47.4355   52.5571 C   0  0  0  0  0  2  0  0  0  0  0  0
    1.1583   45.2228   52.5926 C   0  0  0  0  0  2  0  0  0  0  0  0
    1.2200   46.5958   53.2688 C   0  0  0  0  0  2  0  0  0  0  0  0
  1  2  1  0
  2  3  2  0
  3 19  1  0
  4  8  1  0
  4  3  1  0
  4  5  1  0
  6  5  1  0
  7  8  2  0
  7  6  1  0
  9  1  2  0
  9  8  1  0
 10  1  1  0
 11 10  1  0
 11 15  2  0
 12 13  2  0
 13 15  1  0
 14 16  2  0
 14 12  1  0
 16 11  1  0
 17 12  1  0
 17 18  1  0
 19 20  1  0
 20 21  1  0
 21 23  1  0
 21 22  1  0
 24 26  1  0
 24 22  1  0
 25 26  1  0
 25 23  1  0
M  RAD  8   4   2   6   3  13   2  14   2  15   2  16   2  18   2  20   3
M  RAD  6  21   2  22   3  23   3  24   3  25   3  26   3
M  END
>  <REMARK>  (1) 
 SMILES CSc1ccc(Nc2nc(OCC3CCCCC3)c3[nH]cnc3n2)cc1
 SMILES IDX 8 1 9 2 10 3 19 4 20 5 21 6 22 7 23 8 24 9 7 11 6 13 3 14
 SMILES IDX 4 15 26 16 5 17 25 18 2 19 1 20 11 21 12 22 13 23 14 24
 SMILES IDX 18 25 15 26 17 27 16 28
 H PARENT 20 10 7 12

>  <TORSDO>  (1) 
F 6

$$$$
