/home/pchatterjee/Documents/git/vs_workflow/DiffDock/diffdock_run/pdbqt_scrubbed/5329561.pdbqt
     RDKit          3D

 26 29  0  0  1  0  0  0  0  0999 V2000
   15.6915   87.8575   67.2833 C   0  0  0  0  0  0  0  0  0  0  0  0
   14.7971   87.0490   68.0351 N   0  0  0  0  0  0  0  0  0  0  0  0
   13.5066   87.2553   67.9865 C   0  0  0  0  0  0  0  0  0  0  0  0
   12.9737   88.2684   67.1697 C   0  0  0  0  0  3  0  0  0  0  0  0
   11.8305   89.0309   67.4446 N   0  0  0  0  0  0  0  0  0  0  0  0
   11.7685   89.8882   66.2286 C   0  0  0  0  0  2  0  0  0  0  0  0
   13.1913   90.0726   65.9123 N   0  0  0  0  0  0  0  0  0  0  0  0
   13.8991   89.1218   66.4678 C   0  0  0  0  0  0  0  0  0  0  0  0
   15.2982   88.8385   66.5304 N   0  0  0  0  0  0  0  0  0  0  0  0
   17.1071   87.5988   67.3404 N   0  0  0  0  0  0  0  0  0  0  0  0
   17.5587   86.4443   68.0580 C   0  0  0  0  0  0  0  0  0  0  0  0
   18.4516   84.2182   69.4440 C   0  0  0  0  0  0  0  0  0  0  0  0
   17.1022   84.3653   69.2249 C   0  0  0  0  0  3  0  0  0  0  0  0
   19.3150   85.1806   68.9682 C   0  0  0  0  0  3  0  0  0  0  0  0
   16.6667   85.4853   68.5289 C   0  0  0  0  0  3  0  0  0  0  0  0
   18.9334   86.3046   68.2753 C   0  0  0  0  0  3  0  0  0  0  0  0
   19.1551   82.8372   70.3185 S   0  0  0  0  0  0  0  0  0  0  0  0
   18.4940   81.2786   69.6713 C   0  0  0  0  0  1  0  0  0  0  0  0
   12.6813   86.4320   68.7594 O   0  0  0  0  0  0  0  0  0  0  0  0
   13.3192   85.4291   69.5255 C   0  0  0  0  0  2  0  0  0  0  0  0
   12.4182   84.5465   70.2963 C   0  0  0  0  0  3  0  0  0  0  0  0
   13.0560   83.5351   71.1791 C   0  0  0  0  0  2  0  0  0  0  0  0
   11.1564   84.1244   69.6315 C   0  0  0  0  0  2  0  0  0  0  0  0
   12.0405   83.0334   72.1748 C   0  0  0  0  0  2  0  0  0  0  0  0
   10.1613   83.7788   70.7482 C   0  0  0  0  0  2  0  0  0  0  0  0
   10.7679   82.5796   71.4831 C   0  0  0  0  0  2  0  0  0  0  0  0
  1  2  1  0
  2  3  2  0
  3 19  1  0
  4  8  1  0
  4  3  1  0
  4  5  1  0
  6  5  1  0
  7  8  2  0
  7  6  1  0
  9  1  2  0
  9  8  1  0
 10  1  1  0
 11 10  1  0
 11 15  2  0
 12 13  2  0
 13 15  1  0
 14 16  2  0
 14 12  1  0
 16 11  1  0
 17 12  1  0
 17 18  1  0
 19 20  1  0
 20 21  1  0
 21 23  1  0
 21 22  1  0
 24 26  1  0
 24 22  1  0
 25 26  1  0
 25 23  1  0
M  RAD  8   4   2   6   3  13   2  14   2  15   2  16   2  18   2  20   3
M  RAD  6  21   2  22   3  23   3  24   3  25   3  26   3
M  END
>  <REMARK>  (1) 
 SMILES CSc1ccc(Nc2nc(OCC3CCCCC3)c3[nH]cnc3n2)cc1
 SMILES IDX 8 1 9 2 10 3 19 4 20 5 21 6 22 7 23 8 24 9 7 11 6 13 3 14
 SMILES IDX 4 15 26 16 5 17 25 18 2 19 1 20 11 21 12 22 13 23 14 24
 SMILES IDX 18 25 15 26 17 27 16 28
 H PARENT 20 10 7 12

>  <TORSDO>  (1) 
F 6

$$$$
