/home/pchatterjee/Documents/git/vs_workflow/DiffDock/diffdock_run/pdbqt_scrubbed/5329561.pdbqt
     RDKit          3D

 26 29  0  0  1  0  0  0  0  0999 V2000
    7.8439   43.3895   49.4685 C   0  0  0  0  0  0  0  0  0  0  0  0
    6.8075   43.9767   50.2432 N   0  0  0  0  0  0  0  0  0  0  0  0
    7.0474   45.0095   51.0087 C   0  0  0  0  0  0  0  0  0  0  0  0
    8.3330   45.5768   51.0639 C   0  0  0  0  0  3  0  0  0  0  0  0
    8.9204   46.1764   52.1861 N   0  0  0  0  0  0  0  0  0  0  0  0
   10.2339   46.5947   51.6228 C   0  0  0  0  0  2  0  0  0  0  0  0
   10.5034   45.5265   50.6509 N   0  0  0  0  0  0  0  0  0  0  0  0
    9.3862   44.9270   50.3249 C   0  0  0  0  0  0  0  0  0  0  0  0
    9.0684   43.8186   49.4810 N   0  0  0  0  0  0  0  0  0  0  0  0
    7.5501   42.2635   48.6200 N   0  0  0  0  0  0  0  0  0  0  0  0
    6.2369   41.6943   48.6764 C   0  0  0  0  0  0  0  0  0  0  0  0
    3.6999   40.5856   48.7663 C   0  0  0  0  0  0  0  0  0  0  0  0
    4.1463   41.3077   49.8478 C   0  0  0  0  0  3  0  0  0  0  0  0
    4.5268   40.4368   47.6744 C   0  0  0  0  0  3  0  0  0  0  0  0
    5.4198   41.8586   49.7910 C   0  0  0  0  0  3  0  0  0  0  0  0
    5.7927   40.9617   47.5706 C   0  0  0  0  0  3  0  0  0  0  0  0
    2.0938   39.8226   48.6960 S   0  0  0  0  0  0  0  0  0  0  0  0
    1.2087   40.0722   50.2579 C   0  0  0  0  0  1  0  0  0  0  0  0
    5.9866   45.5333   51.7548 O   0  0  0  0  0  0  0  0  0  0  0  0
    5.0116   44.6148   52.2080 C   0  0  0  0  0  2  0  0  0  0  0  0
    3.7495   45.2126   52.6923 C   0  0  0  0  0  3  0  0  0  0  0  0
    2.9310   44.3973   53.6274 C   0  0  0  0  0  2  0  0  0  0  0  0
    2.9899   46.0555   51.7307 C   0  0  0  0  0  2  0  0  0  0  0  0
    1.9400   45.2914   54.3296 C   0  0  0  0  0  2  0  0  0  0  0  0
    2.1309   47.0158   52.5654 C   0  0  0  0  0  2  0  0  0  0  0  0
    1.1514   46.1264   53.3372 C   0  0  0  0  0  2  0  0  0  0  0  0
  1  2  1  0
  2  3  2  0
  3 19  1  0
  4  8  1  0
  4  3  1  0
  4  5  1  0
  6  5  1  0
  7  8  2  0
  7  6  1  0
  9  1  2  0
  9  8  1  0
 10  1  1  0
 11 10  1  0
 11 15  2  0
 12 13  2  0
 13 15  1  0
 14 16  2  0
 14 12  1  0
 16 11  1  0
 17 12  1  0
 17 18  1  0
 19 20  1  0
 20 21  1  0
 21 23  1  0
 21 22  1  0
 24 26  1  0
 24 22  1  0
 25 26  1  0
 25 23  1  0
M  RAD  8   4   2   6   3  13   2  14   2  15   2  16   2  18   2  20   3
M  RAD  6  21   2  22   3  23   3  24   3  25   3  26   3
M  END
>  <REMARK>  (1) 
 SMILES CSc1ccc(Nc2nc(OCC3CCCCC3)c3[nH]cnc3n2)cc1
 SMILES IDX 8 1 9 2 10 3 19 4 20 5 21 6 22 7 23 8 24 9 7 11 6 13 3 14
 SMILES IDX 4 15 26 16 5 17 25 18 2 19 1 20 11 21 12 22 13 23 14 24
 SMILES IDX 18 25 15 26 17 27 16 28
 H PARENT 20 10 7 12

>  <TORSDO>  (1) 
F 6

$$$$
