/home/pchatterjee/Documents/git/vs_workflow/DiffDock/diffdock_run/pdbqt_scrubbed/5329561.pdbqt
     RDKit          3D

 26 29  0  0  1  0  0  0  0  0999 V2000
    7.8331   43.4690   49.4458 C   0  0  0  0  0  0  0  0  0  0  0  0
    6.8235   44.0624   50.2505 N   0  0  0  0  0  0  0  0  0  0  0  0
    7.1125   45.0307   51.0806 C   0  0  0  0  0  0  0  0  0  0  0  0
    8.4265   45.5221   51.1781 C   0  0  0  0  0  3  0  0  0  0  0  0
    9.0359   46.0173   52.3389 N   0  0  0  0  0  0  0  0  0  0  0  0
   10.3750   46.3975   51.8099 C   0  0  0  0  0  2  0  0  0  0  0  0
   10.5944   45.3790   50.7741 N   0  0  0  0  0  0  0  0  0  0  0  0
    9.4492   44.8632   50.4053 C   0  0  0  0  0  0  0  0  0  0  0  0
    9.0790   43.8287   49.4917 N   0  0  0  0  0  0  0  0  0  0  0  0
    7.4860   42.4160   48.5267 N   0  0  0  0  0  0  0  0  0  0  0  0
    6.1422   41.9203   48.5371 C   0  0  0  0  0  0  0  0  0  0  0  0
    3.5459   40.9542   48.5381 C   0  0  0  0  0  0  0  0  0  0  0  0
    4.0086   41.6123   49.6531 C   0  0  0  0  0  3  0  0  0  0  0  0
    4.3865   40.7964   47.4579 C   0  0  0  0  0  3  0  0  0  0  0  0
    5.3117   42.0920   49.6408 C   0  0  0  0  0  3  0  0  0  0  0  0
    5.6817   41.2523   47.3976 C   0  0  0  0  0  3  0  0  0  0  0  0
    1.9016   40.2860   48.4094 S   0  0  0  0  0  0  0  0  0  0  0  0
    1.6600   38.9676   49.6295 C   0  0  0  0  0  1  0  0  0  0  0  0
    6.0752   45.5641   51.8526 O   0  0  0  0  0  0  0  0  0  0  0  0
    4.8166   44.9270   51.7562 C   0  0  0  0  0  2  0  0  0  0  0  0
    3.8265   45.3136   52.7835 C   0  0  0  0  0  3  0  0  0  0  0  0
    3.1127   46.6017   52.5828 C   0  0  0  0  0  2  0  0  0  0  0  0
    4.1440   44.9603   54.1930 C   0  0  0  0  0  2  0  0  0  0  0  0
    1.8837   46.6303   53.4565 C   0  0  0  0  0  2  0  0  0  0  0  0
    2.8063   44.8796   54.9417 C   0  0  0  0  0  2  0  0  0  0  0  0
    2.2239   46.2955   54.8973 C   0  0  0  0  0  2  0  0  0  0  0  0
  1  2  1  0
  2  3  2  0
  3 19  1  0
  4  8  1  0
  4  3  1  0
  4  5  1  0
  6  5  1  0
  7  8  2  0
  7  6  1  0
  9  1  2  0
  9  8  1  0
 10  1  1  0
 11 10  1  0
 11 15  2  0
 12 13  2  0
 13 15  1  0
 14 16  2  0
 14 12  1  0
 16 11  1  0
 17 12  1  0
 17 18  1  0
 19 20  1  0
 20 21  1  0
 21 23  1  0
 21 22  1  0
 24 26  1  0
 24 22  1  0
 25 26  1  0
 25 23  1  0
M  RAD  8   4   2   6   3  13   2  14   2  15   2  16   2  18   2  20   3
M  RAD  6  21   2  22   3  23   3  24   3  25   3  26   3
M  END
>  <REMARK>  (1) 
 SMILES CSc1ccc(Nc2nc(OCC3CCCCC3)c3[nH]cnc3n2)cc1
 SMILES IDX 8 1 9 2 10 3 19 4 20 5 21 6 22 7 23 8 24 9 7 11 6 13 3 14
 SMILES IDX 4 15 26 16 5 17 25 18 2 19 1 20 11 21 12 22 13 23 14 24
 SMILES IDX 18 25 15 26 17 27 16 28
 H PARENT 20 10 7 12

>  <TORSDO>  (1) 
F 6

$$$$
