/home/pchatterjee/Documents/git/vs_workflow/DiffDock/diffdock_run/pdbqt_scrubbed/5329561.pdbqt
     RDKit          3D

 26 29  0  0  1  0  0  0  0  0999 V2000
   11.3245   62.8050   83.8352 C   0  0  0  0  0  0  0  0  0  0  0  0
   11.2154   64.0750   83.2075 N   0  0  0  0  0  0  0  0  0  0  0  0
   10.0444   64.6138   82.9864 C   0  0  0  0  0  0  0  0  0  0  0  0
    8.8670   63.9574   83.3868 C   0  0  0  0  0  3  0  0  0  0  0  0
    7.6318   64.0074   82.7267 N   0  0  0  0  0  0  0  0  0  0  0  0
    6.8016   63.1579   83.6248 C   0  0  0  0  0  2  0  0  0  0  0  0
    7.7799   62.1714   84.1022 N   0  0  0  0  0  0  0  0  0  0  0  0
    8.9935   62.6408   83.9596 C   0  0  0  0  0  0  0  0  0  0  0  0
   10.2957   62.1070   84.2068 N   0  0  0  0  0  0  0  0  0  0  0  0
   12.6263   62.2411   84.0833 N   0  0  0  0  0  0  0  0  0  0  0  0
   13.7789   62.9837   83.6690 C   0  0  0  0  0  0  0  0  0  0  0  0
   16.0181   64.4021   82.8640 C   0  0  0  0  0  0  0  0  0  0  0  0
   14.9044   65.0975   83.2720 C   0  0  0  0  0  3  0  0  0  0  0  0
   15.9851   63.0247   82.8685 C   0  0  0  0  0  3  0  0  0  0  0  0
   13.7881   64.3755   83.6732 C   0  0  0  0  0  3  0  0  0  0  0  0
   14.9064   62.2663   83.2559 C   0  0  0  0  0  3  0  0  0  0  0  0
   17.5191   65.1905   82.3235 S   0  0  0  0  0  0  0  0  0  0  0  0
   18.2920   64.2301   80.9947 C   0  0  0  0  0  1  0  0  0  0  0  0
   10.0052   65.8609   82.3542 O   0  0  0  0  0  0  0  0  0  0  0  0
   11.2457   66.5024   82.1328 C   0  0  0  0  0  2  0  0  0  0  0  0
   11.1933   67.7188   81.2946 C   0  0  0  0  0  3  0  0  0  0  0  0
   12.4663   68.4612   81.1011 C   0  0  0  0  0  2  0  0  0  0  0  0
    9.9645   68.5513   81.3901 C   0  0  0  0  0  2  0  0  0  0  0  0
   12.3262   69.3885   79.9199 C   0  0  0  0  0  2  0  0  0  0  0  0
    9.8574   69.3360   80.0751 C   0  0  0  0  0  2  0  0  0  0  0  0
   11.0842   70.2524   80.0417 C   0  0  0  0  0  2  0  0  0  0  0  0
  1  2  1  0
  2  3  2  0
  3 19  1  0
  4  8  1  0
  4  3  1  0
  4  5  1  0
  6  5  1  0
  7  8  2  0
  7  6  1  0
  9  1  2  0
  9  8  1  0
 10  1  1  0
 11 10  1  0
 11 15  2  0
 12 13  2  0
 13 15  1  0
 14 16  2  0
 14 12  1  0
 16 11  1  0
 17 12  1  0
 17 18  1  0
 19 20  1  0
 20 21  1  0
 21 23  1  0
 21 22  1  0
 24 26  1  0
 24 22  1  0
 25 26  1  0
 25 23  1  0
M  RAD  8   4   2   6   3  13   2  14   2  15   2  16   2  18   2  20   3
M  RAD  6  21   2  22   3  23   3  24   3  25   3  26   3
M  END
>  <REMARK>  (1) 
 SMILES CSc1ccc(Nc2nc(OCC3CCCCC3)c3[nH]cnc3n2)cc1
 SMILES IDX 8 1 9 2 10 3 19 4 20 5 21 6 22 7 23 8 24 9 7 11 6 13 3 14
 SMILES IDX 4 15 26 16 5 17 25 18 2 19 1 20 11 21 12 22 13 23 14 24
 SMILES IDX 18 25 15 26 17 27 16 28
 H PARENT 20 10 7 12

>  <TORSDO>  (1) 
F 6

$$$$
