/home/pchatterjee/Documents/git/vs_workflow/DiffDock/diffdock_run/pdbqt_scrubbed/5329561.pdbqt
     RDKit          3D

 26 29  0  0  1  0  0  0  0  0999 V2000
   10.0185   60.9457   82.3323 C   0  0  0  0  0  0  0  0  0  0  0  0
   10.4707   62.2918   82.2850 N   0  0  0  0  0  0  0  0  0  0  0  0
    9.6187   63.2825   82.2314 C   0  0  0  0  0  0  0  0  0  0  0  0
    8.2340   63.0376   82.2430 C   0  0  0  0  0  3  0  0  0  0  0  0
    7.2583   63.7973   81.5835 N   0  0  0  0  0  0  0  0  0  0  0  0
    6.0213   63.0742   81.9888 C   0  0  0  0  0  2  0  0  0  0  0  0
    6.4937   61.6859   82.0756 N   0  0  0  0  0  0  0  0  0  0  0  0
    7.7944   61.6651   82.2222 C   0  0  0  0  0  0  0  0  0  0  0  0
    8.7630   60.6183   82.3102 N   0  0  0  0  0  0  0  0  0  0  0  0
   10.9766   59.8732   82.4086 N   0  0  0  0  0  0  0  0  0  0  0  0
   12.3244   60.1907   82.7750 C   0  0  0  0  0  0  0  0  0  0  0  0
   14.9343   60.8127   83.4648 C   0  0  0  0  0  0  0  0  0  0  0  0
   14.1277   60.2081   84.3999 C   0  0  0  0  0  3  0  0  0  0  0  0
   14.4199   61.0894   82.2170 C   0  0  0  0  0  3  0  0  0  0  0  0
   12.8214   59.9011   84.0424 C   0  0  0  0  0  3  0  0  0  0  0  0
   13.1362   60.8056   81.8161 C   0  0  0  0  0  3  0  0  0  0  0  0
   16.6267   61.2639   83.7790 S   0  0  0  0  0  0  0  0  0  0  0  0
   17.4263   60.0199   84.8270 C   0  0  0  0  0  1  0  0  0  0  0  0
   10.1287   64.5837   82.1750 O   0  0  0  0  0  0  0  0  0  0  0  0
   11.5314   64.7238   82.2853 C   0  0  0  0  0  2  0  0  0  0  0  0
   12.0754   66.0341   81.8708 C   0  0  0  0  0  3  0  0  0  0  0  0
   13.5151   66.2844   82.1426 C   0  0  0  0  0  2  0  0  0  0  0  0
   11.1755   67.2108   82.0046 C   0  0  0  0  0  2  0  0  0  0  0  0
   13.9849   67.4455   81.3026 C   0  0  0  0  0  2  0  0  0  0  0  0
   11.6689   68.2624   81.0008 C   0  0  0  0  0  2  0  0  0  0  0  0
   13.0753   68.6493   81.4682 C   0  0  0  0  0  2  0  0  0  0  0  0
  1  2  1  0
  2  3  2  0
  3 19  1  0
  4  8  1  0
  4  3  1  0
  4  5  1  0
  6  5  1  0
  7  8  2  0
  7  6  1  0
  9  1  2  0
  9  8  1  0
 10  1  1  0
 11 10  1  0
 11 15  2  0
 12 13  2  0
 13 15  1  0
 14 16  2  0
 14 12  1  0
 16 11  1  0
 17 12  1  0
 17 18  1  0
 19 20  1  0
 20 21  1  0
 21 23  1  0
 21 22  1  0
 24 26  1  0
 24 22  1  0
 25 26  1  0
 25 23  1  0
M  RAD  8   4   2   6   3  13   2  14   2  15   2  16   2  18   2  20   3
M  RAD  6  21   2  22   3  23   3  24   3  25   3  26   3
M  END
>  <REMARK>  (1) 
 SMILES CSc1ccc(Nc2nc(OCC3CCCCC3)c3[nH]cnc3n2)cc1
 SMILES IDX 8 1 9 2 10 3 19 4 20 5 21 6 22 7 23 8 24 9 7 11 6 13 3 14
 SMILES IDX 4 15 26 16 5 17 25 18 2 19 1 20 11 21 12 22 13 23 14 24
 SMILES IDX 18 25 15 26 17 27 16 28
 H PARENT 20 10 7 12

>  <TORSDO>  (1) 
F 6

$$$$
