/home/pchatterjee/Documents/git/vs_workflow/DiffDock/diffdock_run/pdbqt_scrubbed/5329561.pdbqt
     RDKit          3D

 26 29  0  0  1  0  0  0  0  0999 V2000
    7.7159   43.3100   49.4691 C   0  0  0  0  0  0  0  0  0  0  0  0
    6.6652   43.8867   50.2321 N   0  0  0  0  0  0  0  0  0  0  0  0
    6.8932   44.9012   51.0254 C   0  0  0  0  0  0  0  0  0  0  0  0
    8.1804   45.4588   51.1229 C   0  0  0  0  0  3  0  0  0  0  0  0
    8.7449   46.0301   52.2713 N   0  0  0  0  0  0  0  0  0  0  0  0
   10.0737   46.4522   51.7480 C   0  0  0  0  0  2  0  0  0  0  0  0
   10.3595   45.4037   50.7595 N   0  0  0  0  0  0  0  0  0  0  0  0
    9.2468   44.8186   50.3946 C   0  0  0  0  0  0  0  0  0  0  0  0
    8.9424   43.7309   49.5195 N   0  0  0  0  0  0  0  0  0  0  0  0
    7.4355   42.2045   48.5896 N   0  0  0  0  0  0  0  0  0  0  0  0
    6.1089   41.6645   48.5783 C   0  0  0  0  0  0  0  0  0  0  0  0
    3.5400   40.6279   48.5755 C   0  0  0  0  0  0  0  0  0  0  0  0
    4.3358   40.4299   47.4719 C   0  0  0  0  0  3  0  0  0  0  0  0
    4.0445   41.3342   49.6456 C   0  0  0  0  0  3  0  0  0  0  0  0
    5.6216   40.9543   47.4850 C   0  0  0  0  0  3  0  0  0  0  0  0
    5.3079   41.8718   49.7062 C   0  0  0  0  0  3  0  0  0  0  0  0
    1.8739   40.0157   48.7018 S   0  0  0  0  0  0  0  0  0  0  0  0
    0.8922   41.0809   49.7913 C   0  0  0  0  0  1  0  0  0  0  0  0
    5.8182   45.4153   51.7578 O   0  0  0  0  0  0  0  0  0  0  0  0
    4.6927   44.5737   51.9138 C   0  0  0  0  0  2  0  0  0  0  0  0
    3.5427   45.1726   52.6236 C   0  0  0  0  0  3  0  0  0  0  0  0
    2.8938   46.3483   51.9867 C   0  0  0  0  0  2  0  0  0  0  0  0
    3.6020   45.1897   54.1097 C   0  0  0  0  0  2  0  0  0  0  0  0
    1.5306   46.5553   52.5980 C   0  0  0  0  0  2  0  0  0  0  0  0
    2.1523   45.2565   54.6102 C   0  0  0  0  0  2  0  0  0  0  0  0
    1.6069   46.5989   54.1133 C   0  0  0  0  0  2  0  0  0  0  0  0
  1  2  1  0
  2  3  2  0
  3 19  1  0
  4  8  1  0
  4  3  1  0
  4  5  1  0
  6  5  1  0
  7  8  2  0
  7  6  1  0
  9  1  2  0
  9  8  1  0
 10  1  1  0
 11 10  1  0
 11 15  2  0
 12 13  2  0
 13 15  1  0
 14 16  2  0
 14 12  1  0
 16 11  1  0
 17 12  1  0
 17 18  1  0
 19 20  1  0
 20 21  1  0
 21 23  1  0
 21 22  1  0
 24 26  1  0
 24 22  1  0
 25 26  1  0
 25 23  1  0
M  RAD  8   4   2   6   3  13   2  14   2  15   2  16   2  18   2  20   3
M  RAD  6  21   2  22   3  23   3  24   3  25   3  26   3
M  END
>  <REMARK>  (1) 
 SMILES CSc1ccc(Nc2nc(OCC3CCCCC3)c3[nH]cnc3n2)cc1
 SMILES IDX 8 1 9 2 10 3 19 4 20 5 21 6 22 7 23 8 24 9 7 11 6 13 3 14
 SMILES IDX 4 15 26 16 5 17 25 18 2 19 1 20 11 21 12 22 13 23 14 24
 SMILES IDX 18 25 15 26 17 27 16 28
 H PARENT 20 10 7 12

>  <TORSDO>  (1) 
F 6

$$$$
