/home/pchatterjee/Documents/git/vs_workflow/DiffDock/diffdock_run/pdbqt_scrubbed/5329554.pdbqt
     RDKit          3D

 26 29  0  0  1  0  0  0  0  0999 V2000
    7.6898   43.3242   49.6883 C   0  0  0  0  0  0  0  0  0  0  0  0
    6.6824   44.0493   50.3928 N   0  0  0  0  0  0  0  0  0  0  0  0
    6.9738   45.0480   51.2021 C   0  0  0  0  0  0  0  0  0  0  0  0
    8.3339   45.4066   51.3944 C   0  0  0  0  0  3  0  0  0  0  0  0
    8.8084   46.6990   51.5803 N   0  0  0  0  0  0  0  0  0  0  0  0
   10.2406   46.4095   51.8687 C   0  0  0  0  0  2  0  0  0  0  0  0
   10.4838   45.2953   50.9278 N   0  0  0  0  0  0  0  0  0  0  0  0
    9.3737   44.7081   50.6465 C   0  0  0  0  0  0  0  0  0  0  0  0
    8.9598   43.6229   49.8029 N   0  0  0  0  0  0  0  0  0  0  0  0
    7.3344   42.2590   48.8446 N   0  0  0  0  0  0  0  0  0  0  0  0
    5.9841   41.9218   48.6696 C   0  0  0  0  0  0  0  0  0  0  0  0
    3.7638   41.6481   49.5497 C   0  0  0  0  0  0  0  0  0  0  0  0
    3.3151   41.2534   48.3158 C   0  0  0  0  0  3  0  0  0  0  0  0
    5.0882   41.9818   49.7334 C   0  0  0  0  0  3  0  0  0  0  0  0
    4.2244   41.2007   47.2699 C   0  0  0  0  0  3  0  0  0  0  0  0
    5.5616   41.5299   47.4235 C   0  0  0  0  0  3  0  0  0  0  0  0
    2.8799   41.7434   50.7495 C   0  0  0  0  0  2  0  0  0  0  0  0
    2.1274   43.0289   50.6900 C   0  0  0  0  0  1  0  0  0  0  0  0
    5.9500   45.7207   51.8537 O   0  0  0  0  0  0  0  0  0  0  0  0
    4.5953   45.6134   51.4456 C   0  0  0  0  0  2  0  0  0  0  0  0
    3.7072   44.9771   52.4710 C   0  0  0  0  0  3  0  0  0  0  0  0
    4.2933   45.2166   53.8225 C   0  0  0  0  0  2  0  0  0  0  0  0
    2.2567   45.2429   52.3300 C   0  0  0  0  0  2  0  0  0  0  0  0
    3.1752   45.1379   54.8410 C   0  0  0  0  0  2  0  0  0  0  0  0
    1.7096   46.3480   53.1926 C   0  0  0  0  0  2  0  0  0  0  0  0
    2.2957   46.3417   54.5836 C   0  0  0  0  0  2  0  0  0  0  0  0
  1  2  1  0
  1 10  1  0
  3 19  1  0
  3  2  2  0
  4  8  1  0
  4  3  1  0
  5  4  1  0
  6  5  1  0
  6  7  1  0
  7  8  2  0
  8  9  1  0
  9  1  2  0
 10 11  1  0
 11 14  2  0
 11 16  1  0
 12 17  1  0
 12 13  2  0
 14 12  1  0
 15 13  1  0
 16 15  2  0
 17 18  1  0
 19 20  1  0
 21 20  1  0
 22 21  1  0
 23 21  1  0
 24 22  1  0
 25 23  1  0
 26 24  1  0
 26 25  1  0
M  RAD  8   4   2   6   3  13   2  14   2  15   2  16   2  17   3  18   2
M  RAD  7  20   3  21   2  22   3  23   3  24   3  25   3  26   3
M  END
>  <REMARK>  (1) 
 SMILES CCc1cccc(Nc2nc(OCC3CCCCC3)c3[nH]cnc3n2)c1
 SMILES IDX 9 1 10 2 11 3 20 4 21 5 22 6 23 7 24 8 25 9 8 11 7 13 3 14
 SMILES IDX 4 15 26 16 5 17 6 18 2 19 1 20 12 21 13 22 14 23 15 24 19 25
 SMILES IDX 16 26 18 27 17 28
 H PARENT 21 10 8 12

>  <TORSDO>  (1) 
F 6

$$$$
