/home/pchatterjee/Documents/git/vs_workflow/DiffDock/diffdock_run/pdbqt_scrubbed/5329554.pdbqt
     RDKit          3D

 26 29  0  0  1  0  0  0  0  0999 V2000
    7.7402   43.1970   49.4430 C   0  0  0  0  0  0  0  0  0  0  0  0
    6.7118   43.8486   50.1879 N   0  0  0  0  0  0  0  0  0  0  0  0
    6.9611   44.8714   50.9809 C   0  0  0  0  0  0  0  0  0  0  0  0
    8.2973   45.3325   51.1136 C   0  0  0  0  0  3  0  0  0  0  0  0
    8.6804   46.6581   51.2752 N   0  0  0  0  0  0  0  0  0  0  0  0
   10.1413   46.4790   51.5028 C   0  0  0  0  0  2  0  0  0  0  0  0
   10.4276   45.3804   50.5556 N   0  0  0  0  0  0  0  0  0  0  0  0
    9.3541   44.7096   50.3240 C   0  0  0  0  0  0  0  0  0  0  0  0
    8.9877   43.5911   49.5022 N   0  0  0  0  0  0  0  0  0  0  0  0
    7.4305   42.1029   48.6185 N   0  0  0  0  0  0  0  0  0  0  0  0
    6.1221   41.5983   48.5826 C   0  0  0  0  0  0  0  0  0  0  0  0
    4.3054   40.5749   47.3864 C   0  0  0  0  0  0  0  0  0  0  0  0
    3.5338   40.6023   48.5193 C   0  0  0  0  0  3  0  0  0  0  0  0
    5.5921   41.0677   47.4098 C   0  0  0  0  0  3  0  0  0  0  0  0
    4.0815   41.1353   49.6767 C   0  0  0  0  0  3  0  0  0  0  0  0
    5.3715   41.6382   49.7315 C   0  0  0  0  0  3  0  0  0  0  0  0
    3.8255   40.0264   46.0830 C   0  0  0  0  0  2  0  0  0  0  0  0
    3.4179   41.1611   45.2061 C   0  0  0  0  0  1  0  0  0  0  0  0
    5.9182   45.4692   51.6738 O   0  0  0  0  0  0  0  0  0  0  0  0
    4.6578   44.8378   51.8353 C   0  0  0  0  0  2  0  0  0  0  0  0
    3.8000   45.4687   52.8894 C   0  0  0  0  0  3  0  0  0  0  0  0
    3.6528   46.9206   52.5770 C   0  0  0  0  0  2  0  0  0  0  0  0
    2.5550   44.7438   53.2345 C   0  0  0  0  0  2  0  0  0  0  0  0
    2.3741   47.4134   53.2216 C   0  0  0  0  0  2  0  0  0  0  0  0
    1.3050   45.2354   52.5559 C   0  0  0  0  0  2  0  0  0  0  0  0
    1.2462   46.7412   52.4699 C   0  0  0  0  0  2  0  0  0  0  0  0
  1  2  1  0
  1 10  1  0
  3 19  1  0
  3  2  2  0
  4  8  1  0
  4  3  1  0
  5  4  1  0
  6  5  1  0
  6  7  1  0
  7  8  2  0
  8  9  1  0
  9  1  2  0
 10 11  1  0
 11 14  2  0
 11 16  1  0
 12 17  1  0
 12 13  2  0
 14 12  1  0
 15 13  1  0
 16 15  2  0
 17 18  1  0
 19 20  1  0
 21 20  1  0
 22 21  1  0
 23 21  1  0
 24 22  1  0
 25 23  1  0
 26 24  1  0
 26 25  1  0
M  RAD  8   4   2   6   3  13   2  14   2  15   2  16   2  17   3  18   2
M  RAD  7  20   3  21   2  22   3  23   3  24   3  25   3  26   3
M  END
>  <REMARK>  (1) 
 SMILES CCc1cccc(Nc2nc(OCC3CCCCC3)c3[nH]cnc3n2)c1
 SMILES IDX 9 1 10 2 11 3 20 4 21 5 22 6 23 7 24 8 25 9 8 11 7 13 3 14
 SMILES IDX 4 15 26 16 5 17 6 18 2 19 1 20 12 21 13 22 14 23 15 24 19 25
 SMILES IDX 16 26 18 27 17 28
 H PARENT 21 10 8 12

>  <TORSDO>  (1) 
F 6

$$$$
