/home/pchatterjee/Documents/git/vs_workflow/DiffDock/diffdock_run/pdbqt_scrubbed/5329554.pdbqt
     RDKit          3D

 26 29  0  0  1  0  0  0  0  0999 V2000
    7.7115   43.5588   49.5835 C   0  0  0  0  0  0  0  0  0  0  0  0
    6.6930   44.2130   50.3397 N   0  0  0  0  0  0  0  0  0  0  0  0
    6.9665   45.1702   51.2035 C   0  0  0  0  0  0  0  0  0  0  0  0
    8.3185   45.5546   51.4030 C   0  0  0  0  0  3  0  0  0  0  0  0
    8.7598   46.8466   51.6600 N   0  0  0  0  0  0  0  0  0  0  0  0
   10.2026   46.5807   51.9165 C   0  0  0  0  0  2  0  0  0  0  0  0
   10.4650   45.5308   50.9091 N   0  0  0  0  0  0  0  0  0  0  0  0
    9.3681   44.9305   50.6048 C   0  0  0  0  0  0  0  0  0  0  0  0
    8.9741   43.8855   49.7028 N   0  0  0  0  0  0  0  0  0  0  0  0
    7.3753   42.5356   48.6821 N   0  0  0  0  0  0  0  0  0  0  0  0
    6.0386   42.1340   48.5418 C   0  0  0  0  0  0  0  0  0  0  0  0
    3.9177   41.5444   49.5076 C   0  0  0  0  0  0  0  0  0  0  0  0
    3.3961   41.3396   48.2563 C   0  0  0  0  0  3  0  0  0  0  0  0
    5.2294   41.9390   49.6576 C   0  0  0  0  0  3  0  0  0  0  0  0
    4.2197   41.5395   47.1585 C   0  0  0  0  0  3  0  0  0  0  0  0
    5.5420   41.9361   47.2772 C   0  0  0  0  0  3  0  0  0  0  0  0
    3.1292   41.3611   50.7625 C   0  0  0  0  0  2  0  0  0  0  0  0
    2.1551   42.4830   50.8850 C   0  0  0  0  0  1  0  0  0  0  0  0
    5.9324   45.7747   51.9039 O   0  0  0  0  0  0  0  0  0  0  0  0
    4.5886   45.7371   51.4501 C   0  0  0  0  0  2  0  0  0  0  0  0
    3.6787   44.9370   52.3314 C   0  0  0  0  0  3  0  0  0  0  0  0
    4.1882   45.0095   53.7323 C   0  0  0  0  0  2  0  0  0  0  0  0
    2.2270   45.1701   52.1499 C   0  0  0  0  0  2  0  0  0  0  0  0
    3.0262   44.7547   54.6695 C   0  0  0  0  0  2  0  0  0  0  0  0
    1.5940   46.1280   53.1228 C   0  0  0  0  0  2  0  0  0  0  0  0
    2.1118   45.9518   54.5297 C   0  0  0  0  0  2  0  0  0  0  0  0
  1  2  1  0
  1 10  1  0
  3 19  1  0
  3  2  2  0
  4  8  1  0
  4  3  1  0
  5  4  1  0
  6  5  1  0
  6  7  1  0
  7  8  2  0
  8  9  1  0
  9  1  2  0
 10 11  1  0
 11 14  2  0
 11 16  1  0
 12 17  1  0
 12 13  2  0
 14 12  1  0
 15 13  1  0
 16 15  2  0
 17 18  1  0
 19 20  1  0
 21 20  1  0
 22 21  1  0
 23 21  1  0
 24 22  1  0
 25 23  1  0
 26 24  1  0
 26 25  1  0
M  RAD  8   4   2   6   3  13   2  14   2  15   2  16   2  17   3  18   2
M  RAD  7  20   3  21   2  22   3  23   3  24   3  25   3  26   3
M  END
>  <REMARK>  (1) 
 SMILES CCc1cccc(Nc2nc(OCC3CCCCC3)c3[nH]cnc3n2)c1
 SMILES IDX 9 1 10 2 11 3 20 4 21 5 22 6 23 7 24 8 25 9 8 11 7 13 3 14
 SMILES IDX 4 15 26 16 5 17 6 18 2 19 1 20 12 21 13 22 14 23 15 24 19 25
 SMILES IDX 16 26 18 27 17 28
 H PARENT 21 10 8 12

>  <TORSDO>  (1) 
F 6

$$$$
