/home/pchatterjee/Documents/git/vs_workflow/DiffDock/diffdock_run/pdbqt_scrubbed/5329554.pdbqt
     RDKit          3D

 26 29  0  0  1  0  0  0  0  0999 V2000
    7.6140   43.2112   49.2941 C   0  0  0  0  0  0  0  0  0  0  0  0
    6.6023   43.8743   50.0517 N   0  0  0  0  0  0  0  0  0  0  0  0
    6.8752   44.8847   50.8528 C   0  0  0  0  0  0  0  0  0  0  0  0
    8.2203   45.3201   50.9814 C   0  0  0  0  0  3  0  0  0  0  0  0
    8.6286   46.6369   51.1531 N   0  0  0  0  0  0  0  0  0  0  0  0
   10.0873   46.4291   51.3696 C   0  0  0  0  0  2  0  0  0  0  0  0
   10.3477   45.3346   50.4103 N   0  0  0  0  0  0  0  0  0  0  0  0
    9.2607   44.6857   50.1791 C   0  0  0  0  0  0  0  0  0  0  0  0
    8.8688   43.5820   49.3491 N   0  0  0  0  0  0  0  0  0  0  0  0
    7.2793   42.1309   48.4612 N   0  0  0  0  0  0  0  0  0  0  0  0
    5.9336   41.7920   48.2568 C   0  0  0  0  0  0  0  0  0  0  0  0
    3.6777   41.5986   49.0644 C   0  0  0  0  0  0  0  0  0  0  0  0
    3.2740   41.1196   47.8449 C   0  0  0  0  0  3  0  0  0  0  0  0
    4.9971   41.9348   49.2768 C   0  0  0  0  0  3  0  0  0  0  0  0
    4.2232   40.9853   46.8428 C   0  0  0  0  0  3  0  0  0  0  0  0
    5.5566   41.3148   47.0259 C   0  0  0  0  0  3  0  0  0  0  0  0
    2.7481   41.7862   50.2180 C   0  0  0  0  0  2  0  0  0  0  0  0
    1.8585   42.9481   49.9331 C   0  0  0  0  0  1  0  0  0  0  0  0
    5.8476   45.4947   51.5580 O   0  0  0  0  0  0  0  0  0  0  0  0
    4.6254   44.8308   51.8386 C   0  0  0  0  0  2  0  0  0  0  0  0
    3.7317   45.5868   52.7740 C   0  0  0  0  0  3  0  0  0  0  0  0
    3.0627   46.6818   52.0120 C   0  0  0  0  0  2  0  0  0  0  0  0
    2.8577   44.7660   53.6441 C   0  0  0  0  0  2  0  0  0  0  0  0
    1.7762   47.0357   52.7284 C   0  0  0  0  0  2  0  0  0  0  0  0
    1.4455   44.5791   53.1590 C   0  0  0  0  0  2  0  0  0  0  0  0
    0.8666   45.8383   52.5610 C   0  0  0  0  0  2  0  0  0  0  0  0
  1  2  1  0
  1 10  1  0
  3 19  1  0
  3  2  2  0
  4  8  1  0
  4  3  1  0
  5  4  1  0
  6  5  1  0
  6  7  1  0
  7  8  2  0
  8  9  1  0
  9  1  2  0
 10 11  1  0
 11 14  2  0
 11 16  1  0
 12 17  1  0
 12 13  2  0
 14 12  1  0
 15 13  1  0
 16 15  2  0
 17 18  1  0
 19 20  1  0
 21 20  1  0
 22 21  1  0
 23 21  1  0
 24 22  1  0
 25 23  1  0
 26 24  1  0
 26 25  1  0
M  RAD  8   4   2   6   3  13   2  14   2  15   2  16   2  17   3  18   2
M  RAD  7  20   3  21   2  22   3  23   3  24   3  25   3  26   3
M  END
>  <REMARK>  (1) 
 SMILES CCc1cccc(Nc2nc(OCC3CCCCC3)c3[nH]cnc3n2)c1
 SMILES IDX 9 1 10 2 11 3 20 4 21 5 22 6 23 7 24 8 25 9 8 11 7 13 3 14
 SMILES IDX 4 15 26 16 5 17 6 18 2 19 1 20 12 21 13 22 14 23 15 24 19 25
 SMILES IDX 16 26 18 27 17 28
 H PARENT 21 10 8 12

>  <TORSDO>  (1) 
F 6

$$$$
