/home/pchatterjee/Documents/git/vs_workflow/DiffDock/diffdock_run/pdbqt_scrubbed/5329554.pdbqt
     RDKit          3D

 26 29  0  0  1  0  0  0  0  0999 V2000
    7.7442   43.3721   49.4462 C   0  0  0  0  0  0  0  0  0  0  0  0
    6.7902   44.0440   50.2681 N   0  0  0  0  0  0  0  0  0  0  0  0
    7.1416   44.9740   51.1334 C   0  0  0  0  0  0  0  0  0  0  0  0
    8.5145   45.3097   51.2667 C   0  0  0  0  0  3  0  0  0  0  0  0
    9.0125   46.5810   51.5234 N   0  0  0  0  0  0  0  0  0  0  0  0
   10.4571   46.2627   51.6967 C   0  0  0  0  0  2  0  0  0  0  0  0
   10.6297   45.2253   50.6574 N   0  0  0  0  0  0  0  0  0  0  0  0
    9.4985   44.6676   50.4017 C   0  0  0  0  0  0  0  0  0  0  0  0
    9.0217   43.6546   49.5033 N   0  0  0  0  0  0  0  0  0  0  0  0
    7.3259   42.3789   48.5455 N   0  0  0  0  0  0  0  0  0  0  0  0
    5.9839   41.9712   48.5226 C   0  0  0  0  0  0  0  0  0  0  0  0
    3.8178   41.8411   49.5569 C   0  0  0  0  0  0  0  0  0  0  0  0
    3.3312   41.1617   48.4701 C   0  0  0  0  0  3  0  0  0  0  0  0
    5.1344   42.2466   49.5905 C   0  0  0  0  0  3  0  0  0  0  0  0
    4.1946   40.8978   47.4173 C   0  0  0  0  0  3  0  0  0  0  0  0
    5.5229   41.2924   47.4219 C   0  0  0  0  0  3  0  0  0  0  0  0
    2.9848   42.1823   50.7485 C   0  0  0  0  0  2  0  0  0  0  0  0
    2.6831   40.9292   51.4975 C   0  0  0  0  0  1  0  0  0  0  0  0
    6.1675   45.5979   51.8996 O   0  0  0  0  0  0  0  0  0  0  0  0
    4.7916   45.2700   51.7863 C   0  0  0  0  0  2  0  0  0  0  0  0
    3.9171   46.0024   52.7578 C   0  0  0  0  0  3  0  0  0  0  0  0
    2.5301   46.0483   52.2087 C   0  0  0  0  0  2  0  0  0  0  0  0
    4.0459   45.6023   54.1783 C   0  0  0  0  0  2  0  0  0  0  0  0
    1.5702   46.2138   53.3682 C   0  0  0  0  0  2  0  0  0  0  0  0
    3.0164   44.6239   54.6759 C   0  0  0  0  0  2  0  0  0  0  0  0
    1.6339   44.9179   54.1463 C   0  0  0  0  0  2  0  0  0  0  0  0
  1  2  1  0
  1 10  1  0
  3 19  1  0
  3  2  2  0
  4  8  1  0
  4  3  1  0
  5  4  1  0
  6  5  1  0
  6  7  1  0
  7  8  2  0
  8  9  1  0
  9  1  2  0
 10 11  1  0
 11 14  2  0
 11 16  1  0
 12 17  1  0
 12 13  2  0
 14 12  1  0
 15 13  1  0
 16 15  2  0
 17 18  1  0
 19 20  1  0
 21 20  1  0
 22 21  1  0
 23 21  1  0
 24 22  1  0
 25 23  1  0
 26 24  1  0
 26 25  1  0
M  RAD  8   4   2   6   3  13   2  14   2  15   2  16   2  17   3  18   2
M  RAD  7  20   3  21   2  22   3  23   3  24   3  25   3  26   3
M  END
>  <REMARK>  (1) 
 SMILES CCc1cccc(Nc2nc(OCC3CCCCC3)c3[nH]cnc3n2)c1
 SMILES IDX 9 1 10 2 11 3 20 4 21 5 22 6 23 7 24 8 25 9 8 11 7 13 3 14
 SMILES IDX 4 15 26 16 5 17 6 18 2 19 1 20 12 21 13 22 14 23 15 24 19 25
 SMILES IDX 16 26 18 27 17 28
 H PARENT 21 10 8 12

>  <TORSDO>  (1) 
F 6

$$$$
