/home/pchatterjee/Documents/git/vs_workflow/DiffDock/diffdock_run/pdbqt_scrubbed/5329554.pdbqt
     RDKit          3D

 26 29  0  0  1  0  0  0  0  0999 V2000
    7.6912   43.3485   49.5243 C   0  0  0  0  0  0  0  0  0  0  0  0
    6.6981   44.0102   50.3071 N   0  0  0  0  0  0  0  0  0  0  0  0
    6.9971   44.9885   51.1381 C   0  0  0  0  0  0  0  0  0  0  0  0
    8.3523   45.3893   51.2736 C   0  0  0  0  0  3  0  0  0  0  0  0
    8.7911   46.6905   51.4843 N   0  0  0  0  0  0  0  0  0  0  0  0
   10.2457   46.4431   51.6872 C   0  0  0  0  0  2  0  0  0  0  0  0
   10.4771   45.3736   50.6929 N   0  0  0  0  0  0  0  0  0  0  0  0
    9.3747   44.7570   50.4468 C   0  0  0  0  0  0  0  0  0  0  0  0
    8.9544   43.6889   49.5847 N   0  0  0  0  0  0  0  0  0  0  0  0
    7.3286   42.3026   48.6598 N   0  0  0  0  0  0  0  0  0  0  0  0
    5.9865   41.9075   48.5593 C   0  0  0  0  0  0  0  0  0  0  0  0
    3.8399   41.5118   49.5665 C   0  0  0  0  0  0  0  0  0  0  0  0
    3.3332   41.1246   48.3528 C   0  0  0  0  0  3  0  0  0  0  0  0
    5.1569   41.9020   49.6772 C   0  0  0  0  0  3  0  0  0  0  0  0
    4.1770   41.1375   47.2522 C   0  0  0  0  0  3  0  0  0  0  0  0
    5.5051   41.5246   47.3319 C   0  0  0  0  0  3  0  0  0  0  0  0
    3.0291   41.5391   50.8202 C   0  0  0  0  0  2  0  0  0  0  0  0
    1.9426   42.5483   50.6669 C   0  0  0  0  0  1  0  0  0  0  0  0
    5.9867   45.5992   51.8669 O   0  0  0  0  0  0  0  0  0  0  0  0
    4.6212   45.5030   51.4935 C   0  0  0  0  0  2  0  0  0  0  0  0
    3.7670   44.8103   52.5111 C   0  0  0  0  0  3  0  0  0  0  0  0
    4.3134   45.1021   53.8690 C   0  0  0  0  0  2  0  0  0  0  0  0
    2.3031   44.9674   52.3469 C   0  0  0  0  0  2  0  0  0  0  0  0
    3.1890   44.9485   54.8717 C   0  0  0  0  0  2  0  0  0  0  0  0
    1.6633   46.0354   53.1923 C   0  0  0  0  0  2  0  0  0  0  0  0
    2.2272   46.0823   54.5916 C   0  0  0  0  0  2  0  0  0  0  0  0
  1  2  1  0
  1 10  1  0
  3 19  1  0
  3  2  2  0
  4  8  1  0
  4  3  1  0
  5  4  1  0
  6  5  1  0
  6  7  1  0
  7  8  2  0
  8  9  1  0
  9  1  2  0
 10 11  1  0
 11 14  2  0
 11 16  1  0
 12 17  1  0
 12 13  2  0
 14 12  1  0
 15 13  1  0
 16 15  2  0
 17 18  1  0
 19 20  1  0
 21 20  1  0
 22 21  1  0
 23 21  1  0
 24 22  1  0
 25 23  1  0
 26 24  1  0
 26 25  1  0
M  RAD  8   4   2   6   3  13   2  14   2  15   2  16   2  17   3  18   2
M  RAD  7  20   3  21   2  22   3  23   3  24   3  25   3  26   3
M  END
>  <REMARK>  (1) 
 SMILES CCc1cccc(Nc2nc(OCC3CCCCC3)c3[nH]cnc3n2)c1
 SMILES IDX 9 1 10 2 11 3 20 4 21 5 22 6 23 7 24 8 25 9 8 11 7 13 3 14
 SMILES IDX 4 15 26 16 5 17 6 18 2 19 1 20 12 21 13 22 14 23 15 24 19 25
 SMILES IDX 16 26 18 27 17 28
 H PARENT 21 10 8 12

>  <TORSDO>  (1) 
F 6

$$$$
