/home/pchatterjee/Documents/git/vs_workflow/DiffDock/diffdock_run/pdbqt_scrubbed/5329554.pdbqt
     RDKit          3D

 26 29  0  0  1  0  0  0  0  0999 V2000
    7.8088   43.4806   49.5428 C   0  0  0  0  0  0  0  0  0  0  0  0
    6.8339   44.1473   50.3443 N   0  0  0  0  0  0  0  0  0  0  0  0
    7.1650   45.0543   51.2414 C   0  0  0  0  0  0  0  0  0  0  0  0
    8.5362   45.3695   51.4310 C   0  0  0  0  0  3  0  0  0  0  0  0
    9.0399   46.6287   51.7325 N   0  0  0  0  0  0  0  0  0  0  0  0
   10.4733   46.2883   51.9506 C   0  0  0  0  0  2  0  0  0  0  0  0
   10.6708   45.2709   50.8962 N   0  0  0  0  0  0  0  0  0  0  0  0
    9.5429   44.7332   50.5882 C   0  0  0  0  0  0  0  0  0  0  0  0
    9.0867   43.7455   49.6517 N   0  0  0  0  0  0  0  0  0  0  0  0
    7.4114   42.5120   48.6067 N   0  0  0  0  0  0  0  0  0  0  0  0
    6.1104   41.9888   48.6460 C   0  0  0  0  0  0  0  0  0  0  0  0
    4.0093   41.6861   49.7741 C   0  0  0  0  0  0  0  0  0  0  0  0
    3.5388   40.9510   48.7168 C   0  0  0  0  0  3  0  0  0  0  0  0
    5.2856   42.2050   49.7465 C   0  0  0  0  0  3  0  0  0  0  0  0
    4.3771   40.7478   47.6307 C   0  0  0  0  0  3  0  0  0  0  0  0
    5.6648   41.2565   47.5737 C   0  0  0  0  0  3  0  0  0  0  0  0
    3.2004   41.9711   50.9965 C   0  0  0  0  0  2  0  0  0  0  0  0
    3.4456   40.8926   51.9962 C   0  0  0  0  0  1  0  0  0  0  0  0
    6.1715   45.6744   51.9854 O   0  0  0  0  0  0  0  0  0  0  0  0
    4.7951   45.3841   51.7991 C   0  0  0  0  0  2  0  0  0  0  0  0
    3.8945   46.1002   52.7588 C   0  0  0  0  0  3  0  0  0  0  0  0
    2.4957   46.0272   52.2435 C   0  0  0  0  0  2  0  0  0  0  0  0
    4.0819   45.7759   54.1921 C   0  0  0  0  0  2  0  0  0  0  0  0
    1.5527   46.1814   53.4185 C   0  0  0  0  0  2  0  0  0  0  0  0
    3.1330   44.7546   54.7588 C   0  0  0  0  0  2  0  0  0  0  0  0
    1.7222   44.9300   54.2518 C   0  0  0  0  0  2  0  0  0  0  0  0
  1  2  1  0
  1 10  1  0
  3 19  1  0
  3  2  2  0
  4  8  1  0
  4  3  1  0
  5  4  1  0
  6  5  1  0
  6  7  1  0
  7  8  2  0
  8  9  1  0
  9  1  2  0
 10 11  1  0
 11 14  2  0
 11 16  1  0
 12 17  1  0
 12 13  2  0
 14 12  1  0
 15 13  1  0
 16 15  2  0
 17 18  1  0
 19 20  1  0
 21 20  1  0
 22 21  1  0
 23 21  1  0
 24 22  1  0
 25 23  1  0
 26 24  1  0
 26 25  1  0
M  RAD  8   4   2   6   3  13   2  14   2  15   2  16   2  17   3  18   2
M  RAD  7  20   3  21   2  22   3  23   3  24   3  25   3  26   3
M  END
>  <REMARK>  (1) 
 SMILES CCc1cccc(Nc2nc(OCC3CCCCC3)c3[nH]cnc3n2)c1
 SMILES IDX 9 1 10 2 11 3 20 4 21 5 22 6 23 7 24 8 25 9 8 11 7 13 3 14
 SMILES IDX 4 15 26 16 5 17 6 18 2 19 1 20 12 21 13 22 14 23 15 24 19 25
 SMILES IDX 16 26 18 27 17 28
 H PARENT 21 10 8 12

>  <TORSDO>  (1) 
F 6

$$$$
