/home/pchatterjee/Documents/git/vs_workflow/DiffDock/diffdock_run/pdbqt_scrubbed/5329554.pdbqt
     RDKit          3D

 26 29  0  0  1  0  0  0  0  0999 V2000
    7.6904   43.2818   49.5796 C   0  0  0  0  0  0  0  0  0  0  0  0
    6.7372   43.9833   50.3774 N   0  0  0  0  0  0  0  0  0  0  0  0
    7.0764   45.0028   51.1407 C   0  0  0  0  0  0  0  0  0  0  0  0
    8.4358   45.4093   51.1859 C   0  0  0  0  0  3  0  0  0  0  0  0
    8.8821   46.7194   51.3069 N   0  0  0  0  0  0  0  0  0  0  0  0
   10.3456   46.4820   51.4473 C   0  0  0  0  0  2  0  0  0  0  0  0
   10.5282   45.3628   50.4986 N   0  0  0  0  0  0  0  0  0  0  0  0
    9.4159   44.7349   50.3413 C   0  0  0  0  0  0  0  0  0  0  0  0
    8.9543   43.6243   49.5577 N   0  0  0  0  0  0  0  0  0  0  0  0
    7.2863   42.1932   48.7896 N   0  0  0  0  0  0  0  0  0  0  0  0
    5.9431   41.7886   48.7851 C   0  0  0  0  0  0  0  0  0  0  0  0
    3.9523   41.1536   47.5968 C   0  0  0  0  0  0  0  0  0  0  0  0
    3.2869   40.9888   48.7841 C   0  0  0  0  0  3  0  0  0  0  0  0
    5.2718   41.5507   47.5890 C   0  0  0  0  0  3  0  0  0  0  0  0
    3.9746   41.2312   49.9639 C   0  0  0  0  0  3  0  0  0  0  0  0
    5.3010   41.6313   49.9884 C   0  0  0  0  0  3  0  0  0  0  0  0
    3.3179   40.9228   46.2648 C   0  0  0  0  0  2  0  0  0  0  0  0
    3.5765   39.5150   45.8479 C   0  0  0  0  0  1  0  0  0  0  0  0
    6.1032   45.6506   51.8881 O   0  0  0  0  0  0  0  0  0  0  0  0
    4.7903   45.1320   52.0314 C   0  0  0  0  0  2  0  0  0  0  0  0
    3.9174   45.9473   52.9360 C   0  0  0  0  0  3  0  0  0  0  0  0
    2.6205   46.2024   52.2428 C   0  0  0  0  0  2  0  0  0  0  0  0
    3.8290   45.4882   54.3417 C   0  0  0  0  0  2  0  0  0  0  0  0
    1.5660   46.4625   53.2982 C   0  0  0  0  0  2  0  0  0  0  0  0
    2.6277   44.6466   54.6783 C   0  0  0  0  0  2  0  0  0  0  0  0
    1.3663   45.1461   54.0167 C   0  0  0  0  0  2  0  0  0  0  0  0
  1  2  1  0
  1 10  1  0
  3 19  1  0
  3  2  2  0
  4  8  1  0
  4  3  1  0
  5  4  1  0
  6  5  1  0
  6  7  1  0
  7  8  2  0
  8  9  1  0
  9  1  2  0
 10 11  1  0
 11 14  2  0
 11 16  1  0
 12 17  1  0
 12 13  2  0
 14 12  1  0
 15 13  1  0
 16 15  2  0
 17 18  1  0
 19 20  1  0
 21 20  1  0
 22 21  1  0
 23 21  1  0
 24 22  1  0
 25 23  1  0
 26 24  1  0
 26 25  1  0
M  RAD  8   4   2   6   3  13   2  14   2  15   2  16   2  17   3  18   2
M  RAD  7  20   3  21   2  22   3  23   3  24   3  25   3  26   3
M  END
>  <REMARK>  (1) 
 SMILES CCc1cccc(Nc2nc(OCC3CCCCC3)c3[nH]cnc3n2)c1
 SMILES IDX 9 1 10 2 11 3 20 4 21 5 22 6 23 7 24 8 25 9 8 11 7 13 3 14
 SMILES IDX 4 15 26 16 5 17 6 18 2 19 1 20 12 21 13 22 14 23 15 24 19 25
 SMILES IDX 16 26 18 27 17 28
 H PARENT 21 10 8 12

>  <TORSDO>  (1) 
F 6

$$$$
