/home/pchatterjee/Documents/git/vs_workflow/DiffDock/diffdock_run/pdbqt_scrubbed/5329554.pdbqt
     RDKit          3D

 26 29  0  0  1  0  0  0  0  0999 V2000
    7.6867   43.5770   49.3999 C   0  0  0  0  0  0  0  0  0  0  0  0
    6.7205   44.2100   50.2383 N   0  0  0  0  0  0  0  0  0  0  0  0
    7.0382   45.1944   51.0550 C   0  0  0  0  0  0  0  0  0  0  0  0
    8.3875   45.6315   51.1175 C   0  0  0  0  0  3  0  0  0  0  0  0
    8.8019   46.9437   51.3083 N   0  0  0  0  0  0  0  0  0  0  0  0
   10.2715   46.7355   51.4304 C   0  0  0  0  0  2  0  0  0  0  0  0
   10.4769   45.6747   50.4212 N   0  0  0  0  0  0  0  0  0  0  0  0
    9.3796   45.0288   50.2337 C   0  0  0  0  0  0  0  0  0  0  0  0
    8.9416   43.9515   49.3922 N   0  0  0  0  0  0  0  0  0  0  0  0
    7.3056   42.5234   48.5529 N   0  0  0  0  0  0  0  0  0  0  0  0
    6.0138   41.9838   48.6405 C   0  0  0  0  0  0  0  0  0  0  0  0
    4.0534   41.0658   47.5950 C   0  0  0  0  0  0  0  0  0  0  0  0
    3.4593   40.9173   48.8216 C   0  0  0  0  0  3  0  0  0  0  0  0
    5.3221   41.5948   47.4967 C   0  0  0  0  0  3  0  0  0  0  0  0
    4.1661   41.3112   49.9480 C   0  0  0  0  0  3  0  0  0  0  0  0
    5.4426   41.8462   49.8814 C   0  0  0  0  0  3  0  0  0  0  0  0
    3.3920   40.6781   46.3135 C   0  0  0  0  0  2  0  0  0  0  0  0
    4.3314   40.9483   45.1879 C   0  0  0  0  0  1  0  0  0  0  0  0
    6.0531   45.7760   51.8403 O   0  0  0  0  0  0  0  0  0  0  0  0
    4.7627   45.2031   51.9815 C   0  0  0  0  0  2  0  0  0  0  0  0
    3.8657   45.9637   52.9098 C   0  0  0  0  0  3  0  0  0  0  0  0
    2.5946   46.2768   52.1930 C   0  0  0  0  0  2  0  0  0  0  0  0
    3.7271   45.4120   54.2776 C   0  0  0  0  0  2  0  0  0  0  0  0
    1.5071   46.4751   53.2282 C   0  0  0  0  0  2  0  0  0  0  0  0
    2.5093   44.5608   54.5168 C   0  0  0  0  0  2  0  0  0  0  0  0
    1.2743   45.1152   53.8492 C   0  0  0  0  0  2  0  0  0  0  0  0
  1  2  1  0
  1 10  1  0
  3 19  1  0
  3  2  2  0
  4  8  1  0
  4  3  1  0
  5  4  1  0
  6  5  1  0
  6  7  1  0
  7  8  2  0
  8  9  1  0
  9  1  2  0
 10 11  1  0
 11 14  2  0
 11 16  1  0
 12 17  1  0
 12 13  2  0
 14 12  1  0
 15 13  1  0
 16 15  2  0
 17 18  1  0
 19 20  1  0
 21 20  1  0
 22 21  1  0
 23 21  1  0
 24 22  1  0
 25 23  1  0
 26 24  1  0
 26 25  1  0
M  RAD  8   4   2   6   3  13   2  14   2  15   2  16   2  17   3  18   2
M  RAD  7  20   3  21   2  22   3  23   3  24   3  25   3  26   3
M  END
>  <REMARK>  (1) 
 SMILES CCc1cccc(Nc2nc(OCC3CCCCC3)c3[nH]cnc3n2)c1
 SMILES IDX 9 1 10 2 11 3 20 4 21 5 22 6 23 7 24 8 25 9 8 11 7 13 3 14
 SMILES IDX 4 15 26 16 5 17 6 18 2 19 1 20 12 21 13 22 14 23 15 24 19 25
 SMILES IDX 16 26 18 27 17 28
 H PARENT 21 10 8 12

>  <TORSDO>  (1) 
F 6

$$$$
