/home/pchatterjee/Documents/git/vs_workflow/DiffDock/diffdock_run/pdbqt_scrubbed/9823200.pdbqt
     RDKit          3D

 29 32  0  0  1  0  0  0  0  0999 V2000
    7.2269   45.1515   51.2715 C   0  0  0  0  0  0  0  0  0  0  0  0
    6.8235   44.1429   50.5380 N   0  0  0  0  0  0  0  0  0  0  0  0
    7.8028   43.1486   50.0678 C   0  0  0  0  0  3  0  0  0  0  0  0
    9.0745   43.8032   49.7888 N   0  0  0  0  0  0  0  0  0  0  0  0
    9.4695   44.8063   50.5037 C   0  0  0  0  0  0  0  0  0  0  0  0
   10.6152   45.6505   50.5071 N   0  0  0  0  0  0  0  0  0  0  0  0
   10.3933   46.7100   51.2002 C   0  0  0  0  0  3  0  0  0  0  0  0
    9.0636   46.7040   51.7486 N   0  0  0  0  0  0  0  0  0  0  0  0
    8.6309   45.3266   51.6443 C   0  0  0  0  0  3  0  0  0  0  0  0
    6.2346   46.0584   51.6819 O   0  0  0  0  0  0  0  0  0  0  0  0
    4.8590   45.6828   51.5621 C   0  0  0  0  0  2  0  0  0  0  0  0
    4.1187   45.7200   52.8591 C   0  0  0  0  0  3  0  0  0  0  0  0
    3.1770   46.8742   53.0157 C   0  0  0  0  0  3  0  0  0  0  0  0
    2.8792   47.0631   54.4966 C   0  0  0  0  0  2  0  0  0  0  0  0
    2.8744   45.7391   55.2288 C   0  0  0  0  0  2  0  0  0  0  0  0
    5.0414   45.6598   54.0595 C   0  0  0  0  0  2  0  0  0  0  0  0
    4.2784   45.1790   55.2554 C   0  0  0  0  0  2  0  0  0  0  0  0
    1.8261   46.6171   52.3571 C   0  0  0  0  0  1  0  0  0  0  0  0
    7.2831   42.7352   48.7613 N   0  0  0  0  0  0  0  0  0  0  0  0
    6.0852   41.9781   48.6309 C   0  0  0  0  0  0  0  0  0  0  0  0
    5.2817   41.9097   49.7656 C   0  0  0  0  0  3  0  0  0  0  0  0
    5.7151   41.3446   47.4793 C   0  0  0  0  0  3  0  0  0  0  0  0
    4.1048   41.1896   49.7035 C   0  0  0  0  0  3  0  0  0  0  0  0
    4.5410   40.6409   47.4580 C   0  0  0  0  0  3  0  0  0  0  0  0
    3.7197   40.5484   48.5553 C   0  0  0  0  0  0  0  0  0  0  0  0
    2.2201   39.6512   48.5327 S   0  0  1  0  0  0  0  0  0  0  0  0
    2.4929   38.3354   47.8496 O   0  0  0  0  0  0  0  0  0  0  0  0
    1.7540   39.3826   49.9203 O   0  0  0  0  0  0  0  0  0  0  0  0
    1.0336   40.5497   47.6331 N   0  0  0  0  0  0  0  0  0  0  0  0
  1 10  1  0
  2  1  2  0
  3 19  1  0
  3  2  1  0
  4  5  2  0
  4  3  1  0
  6  7  2  0
  6  5  1  0
  7  8  1  0
  8  9  1  0
  9  5  1  0
  9  1  1  0
 11 10  1  0
 12 11  1  0
 12 16  1  0
 12 13  1  0
 13 18  1  0
 13 14  1  0
 14 15  1  0
 15 17  1  0
 16 17  1  0
 19 20  1  0
 20 22  1  0
 21 20  2  0
 21 23  1  0
 22 24  2  0
 23 25  2  0
 25 24  1  0
 25 26  1  0
 26 28  2  0
 26 29  1  6
 27 26  2  0
M  RAD  8   3   2   7   2   9   2  11   3  12   2  13   2  14   3  15   3
M  RAD  7  16   3  17   3  18   2  21   2  22   2  23   2  24   2
M  END
>  <REMARK>  (1) 
 SMILES CC1CCCCC1COc1nc(Nc2ccc(S(N)(=O)=O)cc2)nc2nc[nH]c12
 SMILES IDX 10 1 11 2 12 3 24 4 25 5 26 6 27 7 28 8 29 9 9 11 8 12 7 13
 SMILES IDX 2 14 3 15 4 16 6 17 5 18 1 19 13 20 14 22 15 23 23 24 16 25
 SMILES IDX 22 26 17 27 18 28 20 29 21 30 19 31
 H PARENT 28 10 13 21 19 32 19 33

>  <TORSDO>  (1) 
F 7

$$$$
