/home/pchatterjee/Documents/git/vs_workflow/DiffDock/diffdock_run/pdbqt_scrubbed/9823200.pdbqt
     RDKit          3D

 29 32  0  0  1  0  0  0  0  0999 V2000
    7.2765   45.0864   51.1476 C   0  0  0  0  0  0  0  0  0  0  0  0
    6.8840   44.0395   50.4636 N   0  0  0  0  0  0  0  0  0  0  0  0
    7.8795   43.0561   50.0048 C   0  0  0  0  0  3  0  0  0  0  0  0
    9.1239   43.7352   49.6673 N   0  0  0  0  0  0  0  0  0  0  0  0
    9.5076   44.7757   50.3330 C   0  0  0  0  0  0  0  0  0  0  0  0
   10.6278   45.6516   50.2739 N   0  0  0  0  0  0  0  0  0  0  0  0
   10.3929   46.7301   50.9325 C   0  0  0  0  0  3  0  0  0  0  0  0
    9.0786   46.7074   51.5164 N   0  0  0  0  0  0  0  0  0  0  0  0
    8.6840   45.3154   51.4756 C   0  0  0  0  0  3  0  0  0  0  0  0
    6.2689   45.9799   51.5503 O   0  0  0  0  0  0  0  0  0  0  0  0
    4.8998   45.5818   51.4299 C   0  0  0  0  0  2  0  0  0  0  0  0
    4.1727   45.5553   52.7347 C   0  0  0  0  0  3  0  0  0  0  0  0
    3.1229   46.6117   52.8939 C   0  0  0  0  0  3  0  0  0  0  0  0
    2.8229   46.7815   54.3766 C   0  0  0  0  0  2  0  0  0  0  0  0
    2.9569   45.4692   55.1176 C   0  0  0  0  0  2  0  0  0  0  0  0
    5.1090   45.5960   53.9253 C   0  0  0  0  0  2  0  0  0  0  0  0
    4.4097   45.0512   55.1326 C   0  0  0  0  0  2  0  0  0  0  0  0
    1.7974   46.2170   52.2517 C   0  0  0  0  0  1  0  0  0  0  0  0
    7.3385   42.5784   48.7292 N   0  0  0  0  0  0  0  0  0  0  0  0
    6.0689   41.9420   48.6390 C   0  0  0  0  0  0  0  0  0  0  0  0
    5.1585   42.2542   49.6449 C   0  0  0  0  0  3  0  0  0  0  0  0
    5.7300   41.0733   47.6416 C   0  0  0  0  0  3  0  0  0  0  0  0
    3.9080   41.6689   49.6138 C   0  0  0  0  0  3  0  0  0  0  0  0
    4.4804   40.5139   47.6461 C   0  0  0  0  0  3  0  0  0  0  0  0
    3.5529   40.7953   48.6196 C   0  0  0  0  0  0  0  0  0  0  0  0
    1.9567   40.0837   48.6294 S   0  0  1  0  0  0  0  0  0  0  0  0
    1.7362   39.4538   47.2778 O   0  0  0  0  0  0  0  0  0  0  0  0
    1.8659   39.0249   49.6714 O   0  0  0  0  0  0  0  0  0  0  0  0
    0.7785   41.3341   48.8984 N   0  0  0  0  0  0  0  0  0  0  0  0
  1 10  1  0
  2  1  2  0
  3 19  1  0
  3  2  1  0
  4  5  2  0
  4  3  1  0
  6  7  2  0
  6  5  1  0
  7  8  1  0
  8  9  1  0
  9  5  1  0
  9  1  1  0
 11 10  1  0
 12 11  1  0
 12 16  1  0
 12 13  1  0
 13 18  1  0
 13 14  1  0
 14 15  1  0
 15 17  1  0
 16 17  1  0
 19 20  1  0
 20 22  1  0
 21 20  2  0
 21 23  1  0
 22 24  2  0
 23 25  2  0
 25 24  1  0
 25 26  1  0
 26 28  2  0
 26 29  1  1
 27 26  2  0
M  RAD  8   3   2   7   2   9   2  11   3  12   2  13   2  14   3  15   3
M  RAD  7  16   3  17   3  18   2  21   2  22   2  23   2  24   2
M  END
>  <REMARK>  (1) 
 SMILES CC1CCCCC1COc1nc(Nc2ccc(S(N)(=O)=O)cc2)nc2nc[nH]c12
 SMILES IDX 10 1 11 2 12 3 24 4 25 5 26 6 27 7 28 8 29 9 9 11 8 12 7 13
 SMILES IDX 2 14 3 15 4 16 6 17 5 18 1 19 13 20 14 22 15 23 23 24 16 25
 SMILES IDX 22 26 17 27 18 28 20 29 21 30 19 31
 H PARENT 28 10 13 21 19 32 19 33

>  <TORSDO>  (1) 
F 7

$$$$
