/home/pchatterjee/Documents/git/vs_workflow/DiffDock/diffdock_run/pdbqt_scrubbed/9823200.pdbqt
     RDKit          3D

 29 32  0  0  1  0  0  0  0  0999 V2000
    7.2573   45.3318   51.4170 C   0  0  0  0  0  0  0  0  0  0  0  0
    6.8018   44.3214   50.7173 N   0  0  0  0  0  0  0  0  0  0  0  0
    7.7443   43.3247   50.1816 C   0  0  0  0  0  3  0  0  0  0  0  0
    8.9934   43.9771   49.8105 N   0  0  0  0  0  0  0  0  0  0  0  0
    9.4391   44.9820   50.4921 C   0  0  0  0  0  0  0  0  0  0  0  0
   10.5827   45.8252   50.4111 N   0  0  0  0  0  0  0  0  0  0  0  0
   10.4116   46.8870   51.1149 C   0  0  0  0  0  3  0  0  0  0  0  0
    9.1245   46.8840   51.7568 N   0  0  0  0  0  0  0  0  0  0  0  0
    8.6845   45.5068   51.6881 C   0  0  0  0  0  3  0  0  0  0  0  0
    6.2974   46.2410   51.8942 O   0  0  0  0  0  0  0  0  0  0  0  0
    4.9094   45.9397   51.7202 C   0  0  0  0  0  2  0  0  0  0  0  0
    4.1787   45.7440   53.0084 C   0  0  0  0  0  3  0  0  0  0  0  0
    2.9708   46.6114   53.1871 C   0  0  0  0  0  3  0  0  0  0  0  0
    2.6277   46.6704   54.6691 C   0  0  0  0  0  2  0  0  0  0  0  0
    2.9610   45.3673   55.3619 C   0  0  0  0  0  2  0  0  0  0  0  0
    5.0804   45.8854   54.2179 C   0  0  0  0  0  2  0  0  0  0  0  0
    4.4617   45.1869   55.3896 C   0  0  0  0  0  2  0  0  0  0  0  0
    1.7346   46.0362   52.5044 C   0  0  0  0  0  1  0  0  0  0  0  0
    7.1324   42.9077   48.9168 N   0  0  0  0  0  0  0  0  0  0  0  0
    5.9304   42.1470   48.8748 C   0  0  0  0  0  0  0  0  0  0  0  0
    5.6782   41.4725   47.6833 C   0  0  0  0  0  3  0  0  0  0  0  0
    5.0553   42.0613   49.9193 C   0  0  0  0  0  3  0  0  0  0  0  0
    4.5272   40.7164   47.5792 C   0  0  0  0  0  3  0  0  0  0  0  0
    3.9255   41.3014   49.7767 C   0  0  0  0  0  3  0  0  0  0  0  0
    3.6393   40.6204   48.6185 C   0  0  0  0  0  0  0  0  0  0  0  0
    2.1984   39.6493   48.4319 S   0  0  1  0  0  0  0  0  0  0  0  0
    2.0016   39.4145   46.9559 O   0  0  0  0  0  0  0  0  0  0  0  0
    2.3668   38.3340   49.1075 O   0  0  0  0  0  0  0  0  0  0  0  0
    0.8387   40.5195   49.0787 N   0  0  0  0  0  0  0  0  0  0  0  0
  1 10  1  0
  2  1  2  0
  3 19  1  0
  3  2  1  0
  4  5  2  0
  4  3  1  0
  6  7  2  0
  6  5  1  0
  7  8  1  0
  8  9  1  0
  9  5  1  0
  9  1  1  0
 11 10  1  0
 12 11  1  0
 12 16  1  0
 12 13  1  0
 13 18  1  0
 13 14  1  0
 14 15  1  0
 15 17  1  0
 16 17  1  0
 19 20  1  0
 20 22  1  0
 21 20  2  0
 21 23  1  0
 22 24  2  0
 23 25  2  0
 25 24  1  0
 25 26  1  0
 26 28  2  0
 26 29  1  1
 27 26  2  0
M  RAD  8   3   2   7   2   9   2  11   3  12   2  13   2  14   3  15   3
M  RAD  7  16   3  17   3  18   2  21   2  22   2  23   2  24   2
M  END
>  <REMARK>  (1) 
 SMILES CC1CCCCC1COc1nc(Nc2ccc(S(N)(=O)=O)cc2)nc2nc[nH]c12
 SMILES IDX 10 1 11 2 12 3 24 4 25 5 26 6 27 7 28 8 29 9 9 11 8 12 7 13
 SMILES IDX 2 14 3 15 4 16 6 17 5 18 1 19 13 20 14 22 15 23 23 24 16 25
 SMILES IDX 22 26 17 27 18 28 20 29 21 30 19 31
 H PARENT 28 10 13 21 19 32 19 33

>  <TORSDO>  (1) 
F 7

$$$$
