/home/pchatterjee/Documents/git/vs_workflow/DiffDock/diffdock_run/pdbqt_scrubbed/9823200.pdbqt
     RDKit          3D

 29 32  0  0  1  0  0  0  0  0999 V2000
    7.2166   45.0578   51.2245 C   0  0  0  0  0  0  0  0  0  0  0  0
    6.8136   44.0330   50.5137 N   0  0  0  0  0  0  0  0  0  0  0  0
    7.8004   43.0578   50.0200 C   0  0  0  0  0  3  0  0  0  0  0  0
    9.0462   43.7396   49.6932 N   0  0  0  0  0  0  0  0  0  0  0  0
    9.4403   44.7586   50.3856 C   0  0  0  0  0  0  0  0  0  0  0  0
   10.5648   45.6298   50.3436 N   0  0  0  0  0  0  0  0  0  0  0  0
   10.3405   46.6903   51.0343 C   0  0  0  0  0  3  0  0  0  0  0  0
    9.0302   46.6580   51.6267 N   0  0  0  0  0  0  0  0  0  0  0  0
    8.6276   45.2698   51.5490 C   0  0  0  0  0  3  0  0  0  0  0  0
    6.2168   45.9448   51.6598 O   0  0  0  0  0  0  0  0  0  0  0  0
    4.8438   45.5729   51.5044 C   0  0  0  0  0  2  0  0  0  0  0  0
    4.0580   45.6623   52.7719 C   0  0  0  0  0  3  0  0  0  0  0  0
    3.5168   47.0234   53.0845 C   0  0  0  0  0  3  0  0  0  0  0  0
    3.1837   47.0867   54.5686 C   0  0  0  0  0  2  0  0  0  0  0  0
    2.7095   45.7450   55.0824 C   0  0  0  0  0  2  0  0  0  0  0  0
    4.8231   45.1398   53.9708 C   0  0  0  0  0  2  0  0  0  0  0  0
    3.8609   44.7657   55.0561 C   0  0  0  0  0  2  0  0  0  0  0  0
    2.2064   47.3098   52.3593 C   0  0  0  0  0  1  0  0  0  0  0  0
    7.2480   42.6197   48.7352 N   0  0  0  0  0  0  0  0  0  0  0  0
    6.0445   41.8651   48.6492 C   0  0  0  0  0  0  0  0  0  0  0  0
    5.2188   41.9062   49.7693 C   0  0  0  0  0  3  0  0  0  0  0  0
    5.6893   41.1345   47.5518 C   0  0  0  0  0  3  0  0  0  0  0  0
    4.0355   41.1945   49.7484 C   0  0  0  0  0  3  0  0  0  0  0  0
    4.5081   40.4426   47.5701 C   0  0  0  0  0  3  0  0  0  0  0  0
    3.6651   40.4566   48.6547 C   0  0  0  0  0  0  0  0  0  0  0  0
    2.1563   39.5750   48.6827 S   0  0  1  0  0  0  0  0  0  0  0  0
    1.9012   39.0747   47.2837 O   0  0  0  0  0  0  0  0  0  0  0  0
    2.2540   38.4062   49.5987 O   0  0  0  0  0  0  0  0  0  0  0  0
    0.8786   40.6502   49.1684 N   0  0  0  0  0  0  0  0  0  0  0  0
  1 10  1  0
  2  1  2  0
  3 19  1  0
  3  2  1  0
  4  5  2  0
  4  3  1  0
  6  7  2  0
  6  5  1  0
  7  8  1  0
  8  9  1  0
  9  5  1  0
  9  1  1  0
 11 10  1  0
 12 11  1  0
 12 16  1  0
 12 13  1  0
 13 18  1  0
 13 14  1  0
 14 15  1  0
 15 17  1  0
 16 17  1  0
 19 20  1  0
 20 22  1  0
 21 20  2  0
 21 23  1  0
 22 24  2  0
 23 25  2  0
 25 24  1  0
 25 26  1  0
 26 28  2  0
 26 29  1  1
 27 26  2  0
M  RAD  8   3   2   7   2   9   2  11   3  12   2  13   2  14   3  15   3
M  RAD  7  16   3  17   3  18   2  21   2  22   2  23   2  24   2
M  END
>  <REMARK>  (1) 
 SMILES CC1CCCCC1COc1nc(Nc2ccc(S(N)(=O)=O)cc2)nc2nc[nH]c12
 SMILES IDX 10 1 11 2 12 3 24 4 25 5 26 6 27 7 28 8 29 9 9 11 8 12 7 13
 SMILES IDX 2 14 3 15 4 16 6 17 5 18 1 19 13 20 14 22 15 23 23 24 16 25
 SMILES IDX 22 26 17 27 18 28 20 29 21 30 19 31
 H PARENT 28 10 13 21 19 32 19 33

>  <TORSDO>  (1) 
F 7

$$$$
