/home/pchatterjee/Documents/git/vs_workflow/DiffDock/diffdock_run/pdbqt_scrubbed/9823200.pdbqt
     RDKit          3D

 29 32  0  0  1  0  0  0  0  0999 V2000
    7.3068   45.2641   51.3668 C   0  0  0  0  0  0  0  0  0  0  0  0
    6.8835   44.2234   50.6917 N   0  0  0  0  0  0  0  0  0  0  0  0
    7.8547   43.2305   50.2022 C   0  0  0  0  0  3  0  0  0  0  0  0
    9.0963   43.8971   49.8309 N   0  0  0  0  0  0  0  0  0  0  0  0
    9.5102   44.9315   50.4880 C   0  0  0  0  0  0  0  0  0  0  0  0
   10.6377   45.7954   50.3991 N   0  0  0  0  0  0  0  0  0  0  0  0
   10.4335   46.8745   51.0667 C   0  0  0  0  0  3  0  0  0  0  0  0
    9.1363   46.8645   51.6879 N   0  0  0  0  0  0  0  0  0  0  0  0
    8.7255   45.4769   51.6550 C   0  0  0  0  0  3  0  0  0  0  0  0
    6.3209   46.1673   51.8004 O   0  0  0  0  0  0  0  0  0  0  0  0
    4.9434   45.8504   51.5776 C   0  0  0  0  0  2  0  0  0  0  0  0
    4.1662   45.6629   52.8396 C   0  0  0  0  0  3  0  0  0  0  0  0
    3.1446   46.7229   53.1154 C   0  0  0  0  0  3  0  0  0  0  0  0
    2.7933   46.6881   54.5961 C   0  0  0  0  0  2  0  0  0  0  0  0
    2.8577   45.2788   55.1427 C   0  0  0  0  0  2  0  0  0  0  0  0
    5.0569   45.4974   54.0542 C   0  0  0  0  0  2  0  0  0  0  0  0
    4.2950   44.8102   55.1455 C   0  0  0  0  0  2  0  0  0  0  0  0
    1.8331   46.4735   52.3786 C   0  0  0  0  0  1  0  0  0  0  0  0
    7.2724   42.7622   48.9415 N   0  0  0  0  0  0  0  0  0  0  0  0
    6.0181   42.0916   48.8927 C   0  0  0  0  0  0  0  0  0  0  0  0
    5.7788   41.3304   47.7520 C   0  0  0  0  0  3  0  0  0  0  0  0
    5.0834   42.1676   49.8850 C   0  0  0  0  0  3  0  0  0  0  0  0
    4.5791   40.6548   47.6442 C   0  0  0  0  0  3  0  0  0  0  0  0
    3.9065   41.4832   49.7406 C   0  0  0  0  0  3  0  0  0  0  0  0
    3.6310   40.7211   48.6314 C   0  0  0  0  0  0  0  0  0  0  0  0
    2.1301   39.8457   48.4428 S   0  0  1  0  0  0  0  0  0  0  0  0
    1.9920   39.4981   46.9825 O   0  0  0  0  0  0  0  0  0  0  0  0
    2.1603   38.5856   49.2340 O   0  0  0  0  0  0  0  0  0  0  0  0
    0.8110   40.8665   48.9350 N   0  0  0  0  0  0  0  0  0  0  0  0
  1 10  1  0
  2  1  2  0
  3 19  1  0
  3  2  1  0
  4  5  2  0
  4  3  1  0
  6  7  2  0
  6  5  1  0
  7  8  1  0
  8  9  1  0
  9  5  1  0
  9  1  1  0
 11 10  1  0
 12 11  1  0
 12 16  1  0
 12 13  1  0
 13 18  1  0
 13 14  1  0
 14 15  1  0
 15 17  1  0
 16 17  1  0
 19 20  1  0
 20 22  1  0
 21 20  2  0
 21 23  1  0
 22 24  2  0
 23 25  2  0
 25 24  1  0
 25 26  1  0
 26 28  2  0
 26 29  1  1
 27 26  2  0
M  RAD  8   3   2   7   2   9   2  11   3  12   2  13   2  14   3  15   3
M  RAD  7  16   3  17   3  18   2  21   2  22   2  23   2  24   2
M  END
>  <REMARK>  (1) 
 SMILES CC1CCCCC1COc1nc(Nc2ccc(S(N)(=O)=O)cc2)nc2nc[nH]c12
 SMILES IDX 10 1 11 2 12 3 24 4 25 5 26 6 27 7 28 8 29 9 9 11 8 12 7 13
 SMILES IDX 2 14 3 15 4 16 6 17 5 18 1 19 13 20 14 22 15 23 23 24 16 25
 SMILES IDX 22 26 17 27 18 28 20 29 21 30 19 31
 H PARENT 28 10 13 21 19 32 19 33

>  <TORSDO>  (1) 
F 7

$$$$
