/home/pchatterjee/Documents/git/vs_workflow/DiffDock/diffdock_run/pdbqt_scrubbed/9823200.pdbqt
     RDKit          3D

 29 32  0  0  1  0  0  0  0  0999 V2000
    7.2198   45.3944   51.2306 C   0  0  0  0  0  0  0  0  0  0  0  0
    6.7866   44.3557   50.5587 N   0  0  0  0  0  0  0  0  0  0  0  0
    7.7480   43.3506   50.0748 C   0  0  0  0  0  3  0  0  0  0  0  0
    8.9973   44.0025   49.7031 N   0  0  0  0  0  0  0  0  0  0  0  0
    9.4211   45.0349   50.3570 C   0  0  0  0  0  0  0  0  0  0  0  0
   10.5579   45.8863   50.2668 N   0  0  0  0  0  0  0  0  0  0  0  0
   10.3641   46.9701   50.9299 C   0  0  0  0  0  3  0  0  0  0  0  0
    9.0657   46.9763   51.5489 N   0  0  0  0  0  0  0  0  0  0  0  0
    8.6402   45.5931   51.5205 C   0  0  0  0  0  3  0  0  0  0  0  0
    6.2429   46.3098   51.6590 O   0  0  0  0  0  0  0  0  0  0  0  0
    4.8619   45.9996   51.4491 C   0  0  0  0  0  2  0  0  0  0  0  0
    4.0643   45.9597   52.7117 C   0  0  0  0  0  3  0  0  0  0  0  0
    4.0592   47.2358   53.4957 C   0  0  0  0  0  3  0  0  0  0  0  0
    3.6498   46.9261   54.9288 C   0  0  0  0  0  2  0  0  0  0  0  0
    2.6571   45.7855   54.9818 C   0  0  0  0  0  2  0  0  0  0  0  0
    4.4663   44.8154   53.6199 C   0  0  0  0  0  2  0  0  0  0  0  0
    3.3451   44.5059   54.5636 C   0  0  0  0  0  2  0  0  0  0  0  0
    3.0248   48.2312   52.9816 C   0  0  0  0  0  1  0  0  0  0  0  0
    7.1629   42.8838   48.8148 N   0  0  0  0  0  0  0  0  0  0  0  0
    5.9523   42.1366   48.7761 C   0  0  0  0  0  0  0  0  0  0  0  0
    5.7405   41.3797   47.6271 C   0  0  0  0  0  3  0  0  0  0  0  0
    5.0326   42.1383   49.7853 C   0  0  0  0  0  3  0  0  0  0  0  0
    4.5837   40.6318   47.5285 C   0  0  0  0  0  3  0  0  0  0  0  0
    3.8984   41.3836   49.6495 C   0  0  0  0  0  3  0  0  0  0  0  0
    3.6512   40.6231   48.5325 C   0  0  0  0  0  0  0  0  0  0  0  0
    2.2048   39.6583   48.3548 S   0  0  1  0  0  0  0  0  0  0  0  0
    2.0379   39.3634   46.8859 O   0  0  0  0  0  0  0  0  0  0  0  0
    2.3451   38.3711   49.0885 O   0  0  0  0  0  0  0  0  0  0  0  0
    0.8403   40.5675   48.9342 N   0  0  0  0  0  0  0  0  0  0  0  0
  1 10  1  0
  2  1  2  0
  3 19  1  0
  3  2  1  0
  4  5  2  0
  4  3  1  0
  6  7  2  0
  6  5  1  0
  7  8  1  0
  8  9  1  0
  9  5  1  0
  9  1  1  0
 11 10  1  0
 12 11  1  0
 12 16  1  0
 12 13  1  0
 13 18  1  0
 13 14  1  0
 14 15  1  0
 15 17  1  0
 16 17  1  0
 19 20  1  0
 20 22  1  0
 21 20  2  0
 21 23  1  0
 22 24  2  0
 23 25  2  0
 25 24  1  0
 25 26  1  0
 26 28  2  0
 26 29  1  1
 27 26  2  0
M  RAD  8   3   2   7   2   9   2  11   3  12   2  13   2  14   3  15   3
M  RAD  7  16   3  17   3  18   2  21   2  22   2  23   2  24   2
M  END
>  <REMARK>  (1) 
 SMILES CC1CCCCC1COc1nc(Nc2ccc(S(N)(=O)=O)cc2)nc2nc[nH]c12
 SMILES IDX 10 1 11 2 12 3 24 4 25 5 26 6 27 7 28 8 29 9 9 11 8 12 7 13
 SMILES IDX 2 14 3 15 4 16 6 17 5 18 1 19 13 20 14 22 15 23 23 24 16 25
 SMILES IDX 22 26 17 27 18 28 20 29 21 30 19 31
 H PARENT 28 10 13 21 19 32 19 33

>  <TORSDO>  (1) 
F 7

$$$$
