/home/pchatterjee/Documents/git/vs_workflow/DiffDock/diffdock_run/pdbqt_scrubbed/9823200.pdbqt
     RDKit          3D

 29 32  0  0  1  0  0  0  0  0999 V2000
    7.3157   45.2230   51.2286 C   0  0  0  0  0  0  0  0  0  0  0  0
    6.9218   44.1579   50.5741 N   0  0  0  0  0  0  0  0  0  0  0  0
    7.9217   43.1921   50.0884 C   0  0  0  0  0  3  0  0  0  0  0  0
    9.1350   43.8958   49.6929 N   0  0  0  0  0  0  0  0  0  0  0  0
    9.5196   44.9540   50.3296 C   0  0  0  0  0  0  0  0  0  0  0  0
   10.6151   45.8552   50.2148 N   0  0  0  0  0  0  0  0  0  0  0  0
   10.3806   46.9367   50.8685 C   0  0  0  0  0  3  0  0  0  0  0  0
    9.0914   46.8910   51.5047 N   0  0  0  0  0  0  0  0  0  0  0  0
    8.7291   45.4896   51.4973 C   0  0  0  0  0  3  0  0  0  0  0  0
    6.3036   46.0979   51.6599 O   0  0  0  0  0  0  0  0  0  0  0  0
    4.9356   45.7265   51.4643 C   0  0  0  0  0  2  0  0  0  0  0  0
    4.1701   45.5887   52.7398 C   0  0  0  0  0  3  0  0  0  0  0  0
    3.2961   46.7562   53.0808 C   0  0  0  0  0  3  0  0  0  0  0  0
    2.9771   46.7085   54.5685 C   0  0  0  0  0  2  0  0  0  0  0  0
    2.8766   45.2821   55.0629 C   0  0  0  0  0  2  0  0  0  0  0  0
    5.0605   45.2670   53.9229 C   0  0  0  0  0  2  0  0  0  0  0  0
    4.2435   44.6385   55.0096 C   0  0  0  0  0  2  0  0  0  0  0  0
    1.9471   46.7006   52.3719 C   0  0  0  0  0  1  0  0  0  0  0  0
    7.3424   42.6845   48.8416 N   0  0  0  0  0  0  0  0  0  0  0  0
    6.0723   42.0435   48.8058 C   0  0  0  0  0  0  0  0  0  0  0  0
    5.8350   41.2235   47.7061 C   0  0  0  0  0  3  0  0  0  0  0  0
    5.1210   42.2002   49.7727 C   0  0  0  0  0  3  0  0  0  0  0  0
    4.6204   40.5728   47.6129 C   0  0  0  0  0  3  0  0  0  0  0  0
    3.9297   41.5380   49.6438 C   0  0  0  0  0  3  0  0  0  0  0  0
    3.6557   40.7198   48.5749 C   0  0  0  0  0  0  0  0  0  0  0  0
    2.1365   39.8725   48.4062 S   0  0  1  0  0  0  0  0  0  0  0  0
    2.0459   39.3899   46.9810 O   0  0  0  0  0  0  0  0  0  0  0  0
    2.0948   38.6941   49.3141 O   0  0  0  0  0  0  0  0  0  0  0  0
    0.8319   40.9723   48.7422 N   0  0  0  0  0  0  0  0  0  0  0  0
  1 10  1  0
  2  1  2  0
  3 19  1  0
  3  2  1  0
  4  5  2  0
  4  3  1  0
  6  7  2  0
  6  5  1  0
  7  8  1  0
  8  9  1  0
  9  5  1  0
  9  1  1  0
 11 10  1  0
 12 11  1  0
 12 16  1  0
 12 13  1  0
 13 18  1  0
 13 14  1  0
 14 15  1  0
 15 17  1  0
 16 17  1  0
 19 20  1  0
 20 22  1  0
 21 20  2  0
 21 23  1  0
 22 24  2  0
 23 25  2  0
 25 24  1  0
 25 26  1  0
 26 28  2  0
 26 29  1  1
 27 26  2  0
M  RAD  8   3   2   7   2   9   2  11   3  12   2  13   2  14   3  15   3
M  RAD  7  16   3  17   3  18   2  21   2  22   2  23   2  24   2
M  END
>  <REMARK>  (1) 
 SMILES CC1CCCCC1COc1nc(Nc2ccc(S(N)(=O)=O)cc2)nc2nc[nH]c12
 SMILES IDX 10 1 11 2 12 3 24 4 25 5 26 6 27 7 28 8 29 9 9 11 8 12 7 13
 SMILES IDX 2 14 3 15 4 16 6 17 5 18 1 19 13 20 14 22 15 23 23 24 16 25
 SMILES IDX 22 26 17 27 18 28 20 29 21 30 19 31
 H PARENT 28 10 13 21 19 32 19 33

>  <TORSDO>  (1) 
F 7

$$$$
