/home/pchatterjee/Documents/git/vs_workflow/DiffDock/diffdock_run/pdbqt_scrubbed/9823200.pdbqt
     RDKit          3D

 29 32  0  0  1  0  0  0  0  0999 V2000
    7.2130   45.2333   51.1356 C   0  0  0  0  0  0  0  0  0  0  0  0
    6.7855   44.1822   50.4796 N   0  0  0  0  0  0  0  0  0  0  0  0
    7.7558   43.1953   49.9762 C   0  0  0  0  0  3  0  0  0  0  0  0
    8.9811   43.8717   49.5704 N   0  0  0  0  0  0  0  0  0  0  0  0
    9.3989   44.9163   50.2086 C   0  0  0  0  0  0  0  0  0  0  0  0
   10.5146   45.7913   50.0859 N   0  0  0  0  0  0  0  0  0  0  0  0
   10.3143   46.8741   50.7488 C   0  0  0  0  0  3  0  0  0  0  0  0
    9.0320   46.8558   51.4001 N   0  0  0  0  0  0  0  0  0  0  0  0
    8.6356   45.4637   51.3888 C   0  0  0  0  0  3  0  0  0  0  0  0
    6.2278   46.1298   51.5841 O   0  0  0  0  0  0  0  0  0  0  0  0
    4.8528   45.7385   51.5206 C   0  0  0  0  0  2  0  0  0  0  0  0
    4.1197   45.9359   52.8072 C   0  0  0  0  0  3  0  0  0  0  0  0
    3.8048   47.3613   53.1421 C   0  0  0  0  0  3  0  0  0  0  0  0
    3.5197   47.4602   54.6342 C   0  0  0  0  0  2  0  0  0  0  0  0
    2.8539   46.2034   55.1503 C   0  0  0  0  0  2  0  0  0  0  0  0
    4.8212   45.2881   53.9838 C   0  0  0  0  0  2  0  0  0  0  0  0
    3.8376   45.0571   55.0895 C   0  0  0  0  0  2  0  0  0  0  0  0
    2.5388   47.8559   52.4508 C   0  0  0  0  0  1  0  0  0  0  0  0
    7.1495   42.7097   48.7335 N   0  0  0  0  0  0  0  0  0  0  0  0
    5.8901   42.0471   48.7170 C   0  0  0  0  0  0  0  0  0  0  0  0
    5.6398   41.2430   47.6086 C   0  0  0  0  0  3  0  0  0  0  0  0
    4.9606   42.1695   49.7096 C   0  0  0  0  0  3  0  0  0  0  0  0
    4.4346   40.5726   47.5331 C   0  0  0  0  0  3  0  0  0  0  0  0
    3.7780   41.4888   49.5978 C   0  0  0  0  0  3  0  0  0  0  0  0
    3.4917   40.6852   48.5210 C   0  0  0  0  0  0  0  0  0  0  0  0
    1.9836   39.8144   48.3739 S   0  0  1  0  0  0  0  0  0  0  0  0
    1.8661   39.3557   46.9428 O   0  0  0  0  0  0  0  0  0  0  0  0
    1.9847   38.6195   49.2610 O   0  0  0  0  0  0  0  0  0  0  0  0
    0.6690   40.8849   48.7617 N   0  0  0  0  0  0  0  0  0  0  0  0
  1 10  1  0
  2  1  2  0
  3 19  1  0
  3  2  1  0
  4  5  2  0
  4  3  1  0
  6  7  2  0
  6  5  1  0
  7  8  1  0
  8  9  1  0
  9  5  1  0
  9  1  1  0
 11 10  1  0
 12 11  1  0
 12 16  1  0
 12 13  1  0
 13 18  1  0
 13 14  1  0
 14 15  1  0
 15 17  1  0
 16 17  1  0
 19 20  1  0
 20 22  1  0
 21 20  2  0
 21 23  1  0
 22 24  2  0
 23 25  2  0
 25 24  1  0
 25 26  1  0
 26 28  2  0
 26 29  1  1
 27 26  2  0
M  RAD  8   3   2   7   2   9   2  11   3  12   2  13   2  14   3  15   3
M  RAD  7  16   3  17   3  18   2  21   2  22   2  23   2  24   2
M  END
>  <REMARK>  (1) 
 SMILES CC1CCCCC1COc1nc(Nc2ccc(S(N)(=O)=O)cc2)nc2nc[nH]c12
 SMILES IDX 10 1 11 2 12 3 24 4 25 5 26 6 27 7 28 8 29 9 9 11 8 12 7 13
 SMILES IDX 2 14 3 15 4 16 6 17 5 18 1 19 13 20 14 22 15 23 23 24 16 25
 SMILES IDX 22 26 17 27 18 28 20 29 21 30 19 31
 H PARENT 28 10 13 21 19 32 19 33

>  <TORSDO>  (1) 
F 7

$$$$
