/home/pchatterjee/Documents/git/vs_workflow/DiffDock/diffdock_run/pdbqt_scrubbed/9823200.pdbqt
     RDKit          3D

 29 32  0  0  1  0  0  0  0  0999 V2000
    7.3193   45.2713   51.2522 C   0  0  0  0  0  0  0  0  0  0  0  0
    6.8925   44.2097   50.6127 N   0  0  0  0  0  0  0  0  0  0  0  0
    7.8585   43.1887   50.1732 C   0  0  0  0  0  3  0  0  0  0  0  0
    9.1113   43.8277   49.7911 N   0  0  0  0  0  0  0  0  0  0  0  0
    9.5288   44.8824   50.4127 C   0  0  0  0  0  0  0  0  0  0  0  0
   10.6664   45.7306   50.3037 N   0  0  0  0  0  0  0  0  0  0  0  0
   10.4662   46.8367   50.9269 C   0  0  0  0  0  3  0  0  0  0  0  0
    9.1620   46.8640   51.5328 N   0  0  0  0  0  0  0  0  0  0  0  0
    8.7368   45.4805   51.5485 C   0  0  0  0  0  3  0  0  0  0  0  0
    6.3383   46.2006   51.6391 O   0  0  0  0  0  0  0  0  0  0  0  0
    4.9596   45.8242   51.5685 C   0  0  0  0  0  2  0  0  0  0  0  0
    4.2147   46.0584   52.8421 C   0  0  0  0  0  3  0  0  0  0  0  0
    3.9736   47.4982   53.1769 C   0  0  0  0  0  3  0  0  0  0  0  0
    3.6666   47.6083   54.6638 C   0  0  0  0  0  2  0  0  0  0  0  0
    2.9220   46.3892   55.1623 C   0  0  0  0  0  2  0  0  0  0  0  0
    4.8567   45.3688   54.0288 C   0  0  0  0  0  2  0  0  0  0  0  0
    3.8411   45.1898   55.1151 C   0  0  0  0  0  2  0  0  0  0  0  0
    2.7506   48.0650   52.4642 C   0  0  0  0  0  1  0  0  0  0  0  0
    7.2855   42.6781   48.9247 N   0  0  0  0  0  0  0  0  0  0  0  0
    6.0563   41.9616   48.8961 C   0  0  0  0  0  0  0  0  0  0  0  0
    5.8541   41.1434   47.7881 C   0  0  0  0  0  3  0  0  0  0  0  0
    5.1107   42.0470   49.8774 C   0  0  0  0  0  3  0  0  0  0  0  0
    4.6802   40.4212   47.7012 C   0  0  0  0  0  3  0  0  0  0  0  0
    3.9602   41.3152   49.7545 C   0  0  0  0  0  3  0  0  0  0  0  0
    3.7217   40.4962   48.6776 C   0  0  0  0  0  0  0  0  0  0  0  0
    2.2545   39.5603   48.5166 S   0  0  1  0  0  0  0  0  0  0  0  0
    2.0813   39.2430   47.0531 O   0  0  0  0  0  0  0  0  0  0  0  0
    2.3666   38.2837   49.2732 O   0  0  0  0  0  0  0  0  0  0  0  0
    0.9102   40.5094   49.0791 N   0  0  0  0  0  0  0  0  0  0  0  0
  1 10  1  0
  2  1  2  0
  3 19  1  0
  3  2  1  0
  4  5  2  0
  4  3  1  0
  6  7  2  0
  6  5  1  0
  7  8  1  0
  8  9  1  0
  9  5  1  0
  9  1  1  0
 11 10  1  0
 12 11  1  0
 12 16  1  0
 12 13  1  0
 13 18  1  0
 13 14  1  0
 14 15  1  0
 15 17  1  0
 16 17  1  0
 19 20  1  0
 20 22  1  0
 21 20  2  0
 21 23  1  0
 22 24  2  0
 23 25  2  0
 25 24  1  0
 25 26  1  0
 26 28  2  0
 26 29  1  1
 27 26  2  0
M  RAD  8   3   2   7   2   9   2  11   3  12   2  13   2  14   3  15   3
M  RAD  7  16   3  17   3  18   2  21   2  22   2  23   2  24   2
M  END
>  <REMARK>  (1) 
 SMILES CC1CCCCC1COc1nc(Nc2ccc(S(N)(=O)=O)cc2)nc2nc[nH]c12
 SMILES IDX 10 1 11 2 12 3 24 4 25 5 26 6 27 7 28 8 29 9 9 11 8 12 7 13
 SMILES IDX 2 14 3 15 4 16 6 17 5 18 1 19 13 20 14 22 15 23 23 24 16 25
 SMILES IDX 22 26 17 27 18 28 20 29 21 30 19 31
 H PARENT 28 10 13 21 19 32 19 33

>  <TORSDO>  (1) 
F 7

$$$$
