/home/pchatterjee/Documents/git/vs_workflow/DiffDock/diffdock_run/pdbqt_scrubbed/9823200.pdbqt
     RDKit          3D

 29 32  0  0  1  0  0  0  0  0999 V2000
    7.1776   45.3166   51.1388 C   0  0  0  0  0  0  0  0  0  0  0  0
    6.8116   44.2313   50.5015 N   0  0  0  0  0  0  0  0  0  0  0  0
    7.8327   43.2597   50.0748 C   0  0  0  0  0  3  0  0  0  0  0  0
    9.0537   43.9610   49.6992 N   0  0  0  0  0  0  0  0  0  0  0  0
    9.4110   45.0389   50.3186 C   0  0  0  0  0  0  0  0  0  0  0  0
   10.5040   45.9444   50.2141 N   0  0  0  0  0  0  0  0  0  0  0  0
   10.2418   47.0416   50.8300 C   0  0  0  0  0  3  0  0  0  0  0  0
    8.9330   47.0041   51.4256 N   0  0  0  0  0  0  0  0  0  0  0  0
    8.5800   45.6005   51.4451 C   0  0  0  0  0  3  0  0  0  0  0  0
    6.1467   46.1957   51.5132 O   0  0  0  0  0  0  0  0  0  0  0  0
    4.7876   45.7697   51.3761 C   0  0  0  0  0  2  0  0  0  0  0  0
    4.0871   45.5909   52.6834 C   0  0  0  0  0  3  0  0  0  0  0  0
    2.8296   46.3892   52.8403 C   0  0  0  0  0  3  0  0  0  0  0  0
    2.5025   46.4975   54.3230 C   0  0  0  0  0  2  0  0  0  0  0  0
    2.9255   45.2522   55.0709 C   0  0  0  0  0  2  0  0  0  0  0  0
    4.9935   45.8455   53.8707 C   0  0  0  0  0  2  0  0  0  0  0  0
    4.4349   45.1667   55.0834 C   0  0  0  0  0  2  0  0  0  0  0  0
    1.6233   45.7066   52.2048 C   0  0  0  0  0  1  0  0  0  0  0  0
    7.2970   42.7142   48.8245 N   0  0  0  0  0  0  0  0  0  0  0  0
    6.0568   42.0180   48.7752 C   0  0  0  0  0  0  0  0  0  0  0  0
    5.1447   42.3272   49.7804 C   0  0  0  0  0  3  0  0  0  0  0  0
    5.7465   41.0973   47.8158 C   0  0  0  0  0  3  0  0  0  0  0  0
    3.9219   41.6852   49.7880 C   0  0  0  0  0  3  0  0  0  0  0  0
    4.5239   40.4826   47.8579 C   0  0  0  0  0  3  0  0  0  0  0  0
    3.5957   40.7589   48.8323 C   0  0  0  0  0  0  0  0  0  0  0  0
    2.0339   39.9767   48.8900 S   0  0  1  0  0  0  0  0  0  0  0  0
    1.8321   39.2763   47.5705 O   0  0  0  0  0  0  0  0  0  0  0  0
    1.9997   38.9638   49.9798 O   0  0  0  0  0  0  0  0  0  0  0  0
    0.8018   41.1835   49.1136 N   0  0  0  0  0  0  0  0  0  0  0  0
  1 10  1  0
  2  1  2  0
  3 19  1  0
  3  2  1  0
  4  5  2  0
  4  3  1  0
  6  7  2  0
  6  5  1  0
  7  8  1  0
  8  9  1  0
  9  5  1  0
  9  1  1  0
 11 10  1  0
 12 11  1  0
 12 16  1  0
 12 13  1  0
 13 18  1  0
 13 14  1  0
 14 15  1  0
 15 17  1  0
 16 17  1  0
 19 20  1  0
 20 22  1  0
 21 20  2  0
 21 23  1  0
 22 24  2  0
 23 25  2  0
 25 24  1  0
 25 26  1  0
 26 28  2  0
 26 29  1  1
 27 26  2  0
M  RAD  8   3   2   7   2   9   2  11   3  12   2  13   2  14   3  15   3
M  RAD  7  16   3  17   3  18   2  21   2  22   2  23   2  24   2
M  END
>  <REMARK>  (1) 
 SMILES CC1CCCCC1COc1nc(Nc2ccc(S(N)(=O)=O)cc2)nc2nc[nH]c12
 SMILES IDX 10 1 11 2 12 3 24 4 25 5 26 6 27 7 28 8 29 9 9 11 8 12 7 13
 SMILES IDX 2 14 3 15 4 16 6 17 5 18 1 19 13 20 14 22 15 23 23 24 16 25
 SMILES IDX 22 26 17 27 18 28 20 29 21 30 19 31
 H PARENT 28 10 13 21 19 32 19 33

>  <TORSDO>  (1) 
F 7

$$$$
