/home/pchatterjee/Documents/git/vs_workflow/DiffDock/diffdock_run/pdbqt_scrubbed/Z1724269066.pdbqt
     RDKit          3D

 25 27  0  0  1  0  0  0  0  0999 V2000
    9.2327   45.4460   51.5755 C   0  0  0  0  0  0  0  0  0  0  0  0
   10.1039   44.9098   50.6737 N   0  0  0  0  0  0  0  0  0  0  0  0
    9.4200   44.2806   49.7428 N   0  0  0  0  0  0  0  0  0  0  0  0
    8.1019   44.3725   49.9828 C   0  0  0  0  0  3  0  0  0  0  0  0
    7.9717   45.1188   51.1585 C   0  0  0  0  0  0  0  0  0  0  0  0
    9.5750   46.2431   52.7916 C   0  0  0  0  0  2  0  0  0  0  0  0
   10.7617   47.1208   52.4449 C   0  0  0  0  0  2  0  0  0  0  0  0
   11.1085   47.9916   53.6490 C   0  0  0  0  0  1  0  0  0  0  0  0
    6.6716   45.4552   51.7702 C   0  0  0  0  0  0  0  0  0  0  0  0
    6.4521   46.6107   52.2154 O   0  0  0  0  0  0  0  0  0  0  0  0
    5.6814   44.4400   51.8393 N   0  0  0  0  0  0  0  0  0  0  0  0
    5.1167   43.9438   53.0745 C   0  0  0  0  0  2  0  0  0  0  0  0
    5.1846   43.8415   50.6087 C   0  0  0  0  0  2  0  0  0  0  0  0
    3.6167   43.8767   53.0329 C   0  0  0  0  0  2  0  0  0  0  0  0
    4.3285   42.6415   51.0384 C   0  0  0  0  0  3  0  0  0  0  0  0
    3.1451   43.1893   51.7756 C   0  0  0  0  0  2  0  0  0  0  0  0
    3.8801   41.9037   49.8230 C   0  0  0  0  0  0  0  0  0  0  0  0
    4.8491   41.2765   48.9961 N   0  0  0  0  0  0  0  0  0  0  0  0
    2.6379   41.8641   49.5698 O   0  0  0  0  0  0  0  0  0  0  0  0
    4.3952   40.7491   47.7574 C   0  0  0  0  0  0  0  0  0  0  0  0
    5.0260   40.9565   46.5539 C   0  0  0  0  0  3  0  0  0  0  0  0
    3.2392   39.9666   47.7138 C   0  0  0  0  0  3  0  0  0  0  0  0
    4.5830   40.4457   45.3566 C   0  0  0  0  0  3  0  0  0  0  0  0
    2.7904   39.4517   46.5156 C   0  0  0  0  0  3  0  0  0  0  0  0
    3.4464   39.6797   45.3297 C   0  0  0  0  0  3  0  0  0  0  0  0
  1  6  1  0
  2  1  1  0
  3  4  2  0
  3  2  1  0
  4  5  1  0
  5  9  1  0
  5  1  2  0
  7  6  1  0
  8  7  1  0
  9 11  1  0
 10  9  2  0
 11 12  1  0
 11 13  1  0
 12 14  1  0
 13 15  1  0
 14 16  1  0
 15 16  1  0
 15 17  1  0
 17 18  1  0
 17 19  2  0
 18 20  1  0
 20 22  1  0
 20 21  2  0
 21 23  1  0
 22 24  2  0
 23 25  2  0
 24 25  1  0
M  RAD  8   4   2   6   3   7   3   8   2  12   3  13   3  14   3  15   2
M  RAD  6  16   3  21   2  22   2  23   2  24   2  25   2
M  END
>  <REMARK>  (1) 
 SMILES CCCc1[nH]ncc1C(=O)N1CCCC(C(=O)Nc2ccccc2)C1
 SMILES IDX 4 1 5 2 6 3 7 4 8 5 3 7 2 8 1 9 9 10 10 11 11 12 12 13 25 14
 SMILES IDX 13 15 15 16 14 17 16 18 18 19 17 20 19 22 20 23 24 24 21 25
 SMILES IDX 23 26 22 27
 H PARENT 5 6 18 21

>  <TORSDO>  (1) 
F 6

$$$$
