/home/pchatterjee/Documents/git/vs_workflow/DiffDock/diffdock_run/pdbqt_scrubbed/Z1724269066.pdbqt
     RDKit          3D

 25 27  0  0  1  0  0  0  0  0999 V2000
    9.1053   45.5918   51.4332 C   0  0  0  0  0  0  0  0  0  0  0  0
    9.9151   45.1015   50.4516 N   0  0  0  0  0  0  0  0  0  0  0  0
    9.1724   44.5023   49.5464 N   0  0  0  0  0  0  0  0  0  0  0  0
    7.8738   44.5699   49.8818 C   0  0  0  0  0  3  0  0  0  0  0  0
    7.8208   45.2674   51.0930 C   0  0  0  0  0  0  0  0  0  0  0  0
    9.5261   46.3437   52.6535 C   0  0  0  0  0  2  0  0  0  0  0  0
   11.0136   46.6127   52.5356 C   0  0  0  0  0  2  0  0  0  0  0  0
   11.4860   47.3638   53.7770 C   0  0  0  0  0  1  0  0  0  0  0  0
    6.5645   45.5648   51.8075 C   0  0  0  0  0  0  0  0  0  0  0  0
    6.4174   46.6530   52.4206 O   0  0  0  0  0  0  0  0  0  0  0  0
    5.5321   44.5903   51.7810 N   0  0  0  0  0  0  0  0  0  0  0  0
    4.5116   44.4653   52.7978 C   0  0  0  0  0  2  0  0  0  0  0  0
    5.4710   43.6441   50.6764 C   0  0  0  0  0  2  0  0  0  0  0  0
    3.1322   44.3514   52.2145 C   0  0  0  0  0  2  0  0  0  0  0  0
    4.4141   42.6025   51.0705 C   0  0  0  0  0  3  0  0  0  0  0  0
    3.0963   43.3130   51.1208 C   0  0  0  0  0  2  0  0  0  0  0  0
    4.3798   41.5289   50.0367 C   0  0  0  0  0  0  0  0  0  0  0  0
    3.4679   41.6385   48.9538 N   0  0  0  0  0  0  0  0  0  0  0  0
    5.1732   40.5477   50.1645 O   0  0  0  0  0  0  0  0  0  0  0  0
    3.2772   40.4811   48.1520 C   0  0  0  0  0  0  0  0  0  0  0  0
    2.4155   39.4580   48.4682 C   0  0  0  0  0  3  0  0  0  0  0  0
    3.9906   40.3323   46.9608 C   0  0  0  0  0  3  0  0  0  0  0  0
    2.2346   38.3384   47.6906 C   0  0  0  0  0  3  0  0  0  0  0  0
    3.8130   39.2114   46.1769 C   0  0  0  0  0  3  0  0  0  0  0  0
    2.9424   38.2063   46.5240 C   0  0  0  0  0  3  0  0  0  0  0  0
  1  6  1  0
  2  1  1  0
  3  4  2  0
  3  2  1  0
  4  5  1  0
  5  9  1  0
  5  1  2  0
  7  6  1  0
  8  7  1  0
  9 11  1  0
 10  9  2  0
 11 12  1  0
 11 13  1  0
 12 14  1  0
 13 15  1  0
 14 16  1  0
 15 16  1  0
 15 17  1  0
 17 18  1  0
 17 19  2  0
 18 20  1  0
 20 22  1  0
 20 21  2  0
 21 23  1  0
 22 24  2  0
 23 25  2  0
 24 25  1  0
M  RAD  8   4   2   6   3   7   3   8   2  12   3  13   3  14   3  15   2
M  RAD  6  16   3  21   2  22   2  23   2  24   2  25   2
M  END
>  <REMARK>  (1) 
 SMILES CCCc1[nH]ncc1C(=O)N1CCCC(C(=O)Nc2ccccc2)C1
 SMILES IDX 4 1 5 2 6 3 7 4 8 5 3 7 2 8 1 9 9 10 10 11 11 12 12 13 25 14
 SMILES IDX 13 15 15 16 14 17 16 18 18 19 17 20 19 22 20 23 24 24 21 25
 SMILES IDX 23 26 22 27
 H PARENT 5 6 18 21

>  <TORSDO>  (1) 
F 6

$$$$
