/home/pchatterjee/Documents/git/vs_workflow/DiffDock/diffdock_run/pdbqt_scrubbed/Z1724269066.pdbqt
     RDKit          3D

 25 27  0  0  1  0  0  0  0  0999 V2000
    8.1775   44.9878   51.1202 C   0  0  0  0  0  0  0  0  0  0  0  0
    8.6236   44.5761   49.8990 N   0  0  0  0  0  0  0  0  0  0  0  0
    9.8366   45.0474   49.7075 N   0  0  0  0  0  0  0  0  0  0  0  0
   10.2341   45.7710   50.7666 C   0  0  0  0  0  3  0  0  0  0  0  0
    9.1745   45.7391   51.6791 C   0  0  0  0  0  0  0  0  0  0  0  0
    6.8547   44.6830   51.7435 C   0  0  0  0  0  2  0  0  0  0  0  0
    6.1151   43.7429   50.8118 C   0  0  0  0  0  2  0  0  0  0  0  0
    4.7997   43.3256   51.4631 C   0  0  0  0  0  1  0  0  0  0  0  0
    9.2082   46.4148   52.9906 C   0  0  0  0  0  0  0  0  0  0  0  0
   10.2952   46.5730   53.6028 O   0  0  0  0  0  0  0  0  0  0  0  0
    7.9824   46.8790   53.5364 N   0  0  0  0  0  0  0  0  0  0  0  0
    7.8882   47.7635   54.6764 C   0  0  0  0  0  2  0  0  0  0  0  0
    6.7264   46.4556   52.9344 C   0  0  0  0  0  2  0  0  0  0  0  0
    6.9508   48.9120   54.4350 C   0  0  0  0  0  2  0  0  0  0  0  0
    5.6204   46.9262   53.8898 C   0  0  0  0  0  3  0  0  0  0  0  0
    5.6374   48.4240   53.8756 C   0  0  0  0  0  2  0  0  0  0  0  0
    4.3060   46.4228   53.3981 C   0  0  0  0  0  0  0  0  0  0  0  0
    4.1630   45.0440   53.0907 N   0  0  0  0  0  0  0  0  0  0  0  0
    3.3556   47.2530   53.2706 O   0  0  0  0  0  0  0  0  0  0  0  0
    2.8514   44.5808   52.8012 C   0  0  0  0  0  0  0  0  0  0  0  0
    2.0645   45.0774   51.7895 C   0  0  0  0  0  3  0  0  0  0  0  0
    2.2869   43.5595   53.5683 C   0  0  0  0  0  3  0  0  0  0  0  0
    0.7948   44.6278   51.5130 C   0  0  0  0  0  3  0  0  0  0  0  0
    1.0137   43.1046   53.2954 C   0  0  0  0  0  3  0  0  0  0  0  0
    0.2540   43.6248   52.2751 C   0  0  0  0  0  3  0  0  0  0  0  0
  1  6  1  0
  2  1  1  0
  3  4  2  0
  3  2  1  0
  4  5  1  0
  5  9  1  0
  5  1  2  0
  7  6  1  0
  8  7  1  0
  9 11  1  0
 10  9  2  0
 11 12  1  0
 11 13  1  0
 12 14  1  0
 13 15  1  0
 14 16  1  0
 15 16  1  0
 15 17  1  0
 17 18  1  0
 17 19  2  0
 18 20  1  0
 20 22  1  0
 20 21  2  0
 21 23  1  0
 22 24  2  0
 23 25  2  0
 24 25  1  0
M  RAD  8   4   2   6   3   7   3   8   2  12   3  13   3  14   3  15   2
M  RAD  6  16   3  21   2  22   2  23   2  24   2  25   2
M  END
>  <REMARK>  (1) 
 SMILES CCCc1[nH]ncc1C(=O)N1CCCC(C(=O)Nc2ccccc2)C1
 SMILES IDX 4 1 5 2 6 3 7 4 8 5 3 7 2 8 1 9 9 10 10 11 11 12 12 13 25 14
 SMILES IDX 13 15 15 16 14 17 16 18 18 19 17 20 19 22 20 23 24 24 21 25
 SMILES IDX 23 26 22 27
 H PARENT 5 6 18 21

>  <TORSDO>  (1) 
F 6

$$$$
