/home/pchatterjee/Documents/git/vs_workflow/DiffDock/diffdock_run/pdbqt_scrubbed/Z1724269066.pdbqt
     RDKit          3D

 25 27  0  0  1  0  0  0  0  0999 V2000
    8.9549   45.5430   51.4475 C   0  0  0  0  0  0  0  0  0  0  0  0
    9.9058   45.0441   50.6068 N   0  0  0  0  0  0  0  0  0  0  0  0
    9.3148   44.3445   49.6626 N   0  0  0  0  0  0  0  0  0  0  0  0
    7.9829   44.3516   49.8340 C   0  0  0  0  0  3  0  0  0  0  0  0
    7.7422   45.1185   50.9786 C   0  0  0  0  0  0  0  0  0  0  0  0
    9.1794   46.3942   52.6544 C   0  0  0  0  0  2  0  0  0  0  0  0
   10.5380   47.0505   52.5056 C   0  0  0  0  0  2  0  0  0  0  0  0
   10.7909   47.9551   53.7083 C   0  0  0  0  0  1  0  0  0  0  0  0
    6.3925   45.3807   51.5145 C   0  0  0  0  0  0  0  0  0  0  0  0
    6.0978   46.5084   51.9866 O   0  0  0  0  0  0  0  0  0  0  0  0
    5.4418   44.3266   51.4799 N   0  0  0  0  0  0  0  0  0  0  0  0
    4.5878   43.9710   52.5913 C   0  0  0  0  0  2  0  0  0  0  0  0
    5.2950   43.5363   50.2662 C   0  0  0  0  0  2  0  0  0  0  0  0
    3.1519   43.8085   52.1817 C   0  0  0  0  0  2  0  0  0  0  0  0
    4.3846   42.3570   50.6376 C   0  0  0  0  0  3  0  0  0  0  0  0
    3.0383   42.9282   50.9619 C   0  0  0  0  0  2  0  0  0  0  0  0
    4.2837   41.4341   49.4712 C   0  0  0  0  0  0  0  0  0  0  0  0
    3.9385   41.9608   48.1985 N   0  0  0  0  0  0  0  0  0  0  0  0
    4.5111   40.2008   49.6609 O   0  0  0  0  0  0  0  0  0  0  0  0
    3.7160   41.0253   47.1526 C   0  0  0  0  0  0  0  0  0  0  0  0
    2.6269   40.1895   47.0850 C   0  0  0  0  0  3  0  0  0  0  0  0
    4.6367   40.9140   46.1085 C   0  0  0  0  0  3  0  0  0  0  0  0
    2.4154   39.2841   46.0719 C   0  0  0  0  0  3  0  0  0  0  0  0
    4.4296   40.0075   45.0897 C   0  0  0  0  0  3  0  0  0  0  0  0
    3.3284   39.1860   45.0540 C   0  0  0  0  0  3  0  0  0  0  0  0
  1  6  1  0
  2  1  1  0
  3  4  2  0
  3  2  1  0
  4  5  1  0
  5  9  1  0
  5  1  2  0
  7  6  1  0
  8  7  1  0
  9 11  1  0
 10  9  2  0
 11 12  1  0
 11 13  1  0
 12 14  1  0
 13 15  1  0
 14 16  1  0
 15 16  1  0
 15 17  1  0
 17 18  1  0
 17 19  2  0
 18 20  1  0
 20 22  1  0
 20 21  2  0
 21 23  1  0
 22 24  2  0
 23 25  2  0
 24 25  1  0
M  RAD  8   4   2   6   3   7   3   8   2  12   3  13   3  14   3  15   2
M  RAD  6  16   3  21   2  22   2  23   2  24   2  25   2
M  END
>  <REMARK>  (1) 
 SMILES CCCc1[nH]ncc1C(=O)N1CCCC(C(=O)Nc2ccccc2)C1
 SMILES IDX 4 1 5 2 6 3 7 4 8 5 3 7 2 8 1 9 9 10 10 11 11 12 12 13 25 14
 SMILES IDX 13 15 15 16 14 17 16 18 18 19 17 20 19 22 20 23 24 24 21 25
 SMILES IDX 23 26 22 27
 H PARENT 5 6 18 21

>  <TORSDO>  (1) 
F 6

$$$$
