/home/pchatterjee/Documents/git/vs_workflow/DiffDock/diffdock_run/pdbqt_scrubbed/Z1724269066.pdbqt
     RDKit          3D

 25 27  0  0  1  0  0  0  0  0999 V2000
    6.1804   42.6190   48.9559 C   0  0  0  0  0  0  0  0  0  0  0  0
    4.9703   42.3149   49.5063 N   0  0  0  0  0  0  0  0  0  0  0  0
    4.8768   42.9012   50.6801 N   0  0  0  0  0  0  0  0  0  0  0  0
    5.9916   43.6004   50.9482 C   0  0  0  0  0  3  0  0  0  0  0  0
    6.8353   43.4245   49.8465 C   0  0  0  0  0  0  0  0  0  0  0  0
    6.7048   42.1673   47.6322 C   0  0  0  0  0  2  0  0  0  0  0  0
    5.5744   41.4626   46.9080 C   0  0  0  0  0  2  0  0  0  0  0  0
    6.1010   40.8909   45.5948 C   0  0  0  0  0  1  0  0  0  0  0  0
    8.1732   44.0377   49.7390 C   0  0  0  0  0  0  0  0  0  0  0  0
    8.9247   43.7708   48.7667 O   0  0  0  0  0  0  0  0  0  0  0  0
    8.5831   44.9340   50.7611 N   0  0  0  0  0  0  0  0  0  0  0  0
    9.9624   45.1648   51.1289 C   0  0  0  0  0  2  0  0  0  0  0  0
    7.5770   45.6801   51.5029 C   0  0  0  0  0  2  0  0  0  0  0  0
   10.2912   46.6268   51.2320 C   0  0  0  0  0  2  0  0  0  0  0  0
    8.3215   46.3519   52.6656 C   0  0  0  0  0  3  0  0  0  0  0  0
    9.2623   47.3507   52.0646 C   0  0  0  0  0  2  0  0  0  0  0  0
    7.3327   47.0410   53.5431 C   0  0  0  0  0  0  0  0  0  0  0  0
    5.9536   46.7294   53.4113 N   0  0  0  0  0  0  0  0  0  0  0  0
    7.7639   47.8888   54.3821 O   0  0  0  0  0  0  0  0  0  0  0  0
    5.1582   46.8157   54.5853 C   0  0  0  0  0  0  0  0  0  0  0  0
    4.5052   45.7483   55.1540 C   0  0  0  0  0  3  0  0  0  0  0  0
    5.0020   48.0427   55.2336 C   0  0  0  0  0  3  0  0  0  0  0  0
    3.7348   45.8357   56.2897 C   0  0  0  0  0  3  0  0  0  0  0  0
    4.2305   48.1362   56.3731 C   0  0  0  0  0  3  0  0  0  0  0  0
    3.5905   47.0472   56.9147 C   0  0  0  0  0  3  0  0  0  0  0  0
  1  6  1  0
  2  1  1  0
  3  4  2  0
  3  2  1  0
  4  5  1  0
  5  9  1  0
  5  1  2  0
  7  6  1  0
  8  7  1  0
  9 11  1  0
 10  9  2  0
 11 12  1  0
 11 13  1  0
 12 14  1  0
 13 15  1  0
 14 16  1  0
 15 16  1  0
 15 17  1  0
 17 18  1  0
 17 19  2  0
 18 20  1  0
 20 22  1  0
 20 21  2  0
 21 23  1  0
 22 24  2  0
 23 25  2  0
 24 25  1  0
M  RAD  8   4   2   6   3   7   3   8   2  12   3  13   3  14   3  15   2
M  RAD  6  16   3  21   2  22   2  23   2  24   2  25   2
M  END
>  <REMARK>  (1) 
 SMILES CCCc1[nH]ncc1C(=O)N1CCCC(C(=O)Nc2ccccc2)C1
 SMILES IDX 4 1 5 2 6 3 7 4 8 5 3 7 2 8 1 9 9 10 10 11 11 12 12 13 25 14
 SMILES IDX 13 15 15 16 14 17 16 18 18 19 17 20 19 22 20 23 24 24 21 25
 SMILES IDX 23 26 22 27
 H PARENT 5 6 18 21

>  <TORSDO>  (1) 
F 6

$$$$
