/home/pchatterjee/Documents/git/vs_workflow/DiffDock/diffdock_run/pdbqt_scrubbed/Z1724269066.pdbqt
     RDKit          3D

 25 27  0  0  1  0  0  0  0  0999 V2000
    9.0736   45.6036   51.5045 C   0  0  0  0  0  0  0  0  0  0  0  0
   10.0402   45.0794   50.6979 N   0  0  0  0  0  0  0  0  0  0  0  0
    9.4664   44.3629   49.7559 N   0  0  0  0  0  0  0  0  0  0  0  0
    8.1309   44.3831   49.8953 C   0  0  0  0  0  3  0  0  0  0  0  0
    7.8690   45.1772   51.0166 C   0  0  0  0  0  0  0  0  0  0  0  0
    9.2759   46.4801   52.6971 C   0  0  0  0  0  2  0  0  0  0  0  0
   10.7056   46.9836   52.6582 C   0  0  0  0  0  2  0  0  0  0  0  0
   10.9365   47.9255   53.8363 C   0  0  0  0  0  1  0  0  0  0  0  0
    6.5091   45.4608   51.5143 C   0  0  0  0  0  0  0  0  0  0  0  0
    6.2057   46.6068   51.9339 O   0  0  0  0  0  0  0  0  0  0  0  0
    5.5587   44.4059   51.5041 N   0  0  0  0  0  0  0  0  0  0  0  0
    4.7272   44.0556   52.6340 C   0  0  0  0  0  2  0  0  0  0  0  0
    5.3885   43.6092   50.2977 C   0  0  0  0  0  2  0  0  0  0  0  0
    3.2835   43.8900   52.2539 C   0  0  0  0  0  2  0  0  0  0  0  0
    4.4865   42.4313   50.6932 C   0  0  0  0  0  3  0  0  0  0  0  0
    3.1465   43.0033   51.0411 C   0  0  0  0  0  2  0  0  0  0  0  0
    4.3632   41.5022   49.5338 C   0  0  0  0  0  0  0  0  0  0  0  0
    3.7053   41.9466   48.3565 N   0  0  0  0  0  0  0  0  0  0  0  0
    4.8543   40.3380   49.6435 O   0  0  0  0  0  0  0  0  0  0  0  0
    3.4508   40.9727   47.3539 C   0  0  0  0  0  0  0  0  0  0  0  0
    2.3222   40.1894   47.3092 C   0  0  0  0  0  3  0  0  0  0  0  0
    4.3791   40.7646   46.3316 C   0  0  0  0  0  3  0  0  0  0  0  0
    2.0796   39.2466   46.3380 C   0  0  0  0  0  3  0  0  0  0  0  0
    4.1410   39.8203   45.3548 C   0  0  0  0  0  3  0  0  0  0  0  0
    3.0006   39.0534   45.3411 C   0  0  0  0  0  3  0  0  0  0  0  0
  1  6  1  0
  2  1  1  0
  3  4  2  0
  3  2  1  0
  4  5  1  0
  5  9  1  0
  5  1  2  0
  7  6  1  0
  8  7  1  0
  9 11  1  0
 10  9  2  0
 11 12  1  0
 11 13  1  0
 12 14  1  0
 13 15  1  0
 14 16  1  0
 15 16  1  0
 15 17  1  0
 17 18  1  0
 17 19  2  0
 18 20  1  0
 20 22  1  0
 20 21  2  0
 21 23  1  0
 22 24  2  0
 23 25  2  0
 24 25  1  0
M  RAD  8   4   2   6   3   7   3   8   2  12   3  13   3  14   3  15   2
M  RAD  6  16   3  21   2  22   2  23   2  24   2  25   2
M  END
>  <REMARK>  (1) 
 SMILES CCCc1[nH]ncc1C(=O)N1CCCC(C(=O)Nc2ccccc2)C1
 SMILES IDX 4 1 5 2 6 3 7 4 8 5 3 7 2 8 1 9 9 10 10 11 11 12 12 13 25 14
 SMILES IDX 13 15 15 16 14 17 16 18 18 19 17 20 19 22 20 23 24 24 21 25
 SMILES IDX 23 26 22 27
 H PARENT 5 6 18 21

>  <TORSDO>  (1) 
F 6

$$$$
