/home/pchatterjee/Documents/git/vs_workflow/DiffDock/diffdock_run/pdbqt_scrubbed/Z1724269066.pdbqt
     RDKit          3D

 25 27  0  0  1  0  0  0  0  0999 V2000
    8.0757   45.0202   51.1739 C   0  0  0  0  0  0  0  0  0  0  0  0
    8.8861   44.7278   50.1168 N   0  0  0  0  0  0  0  0  0  0  0  0
   10.0364   45.3448   50.2785 N   0  0  0  0  0  0  0  0  0  0  0  0
   10.0358   46.0522   51.4200 C   0  0  0  0  0  3  0  0  0  0  0  0
    8.7800   45.8505   52.0018 C   0  0  0  0  0  0  0  0  0  0  0  0
    6.6818   44.5328   51.3997 C   0  0  0  0  0  2  0  0  0  0  0  0
    6.3519   43.5570   50.2871 C   0  0  0  0  0  2  0  0  0  0  0  0
    4.9456   43.0064   50.5053 C   0  0  0  0  0  1  0  0  0  0  0  0
    8.3695   46.4552   53.2837 C   0  0  0  0  0  0  0  0  0  0  0  0
    9.2264   46.7633   54.1511 O   0  0  0  0  0  0  0  0  0  0  0  0
    6.9849   46.6781   53.5061 N   0  0  0  0  0  0  0  0  0  0  0  0
    6.4616   47.5799   54.5079 C   0  0  0  0  0  2  0  0  0  0  0  0
    6.0075   45.9694   52.6927 C   0  0  0  0  0  2  0  0  0  0  0  0
    5.4005   48.4913   53.9607 C   0  0  0  0  0  2  0  0  0  0  0  0
    4.6418   46.2447   53.3382 C   0  0  0  0  0  3  0  0  0  0  0  0
    4.3712   47.7097   53.1826 C   0  0  0  0  0  2  0  0  0  0  0  0
    3.5989   45.4513   52.6272 C   0  0  0  0  0  0  0  0  0  0  0  0
    3.8328   44.0753   52.3663 N   0  0  0  0  0  0  0  0  0  0  0  0
    2.5316   46.0407   52.2776 O   0  0  0  0  0  0  0  0  0  0  0  0
    2.7580   43.3336   51.8063 C   0  0  0  0  0  0  0  0  0  0  0  0
    2.2122   43.5820   50.5695 C   0  0  0  0  0  3  0  0  0  0  0  0
    2.1898   42.2787   52.5236 C   0  0  0  0  0  3  0  0  0  0  0  0
    1.1709   42.8632   50.0312 C   0  0  0  0  0  3  0  0  0  0  0  0
    1.1452   41.5542   51.9884 C   0  0  0  0  0  3  0  0  0  0  0  0
    0.6232   41.8306   50.7476 C   0  0  0  0  0  3  0  0  0  0  0  0
  1  6  1  0
  2  1  1  0
  3  4  2  0
  3  2  1  0
  4  5  1  0
  5  9  1  0
  5  1  2  0
  7  6  1  0
  8  7  1  0
  9 11  1  0
 10  9  2  0
 11 12  1  0
 11 13  1  0
 12 14  1  0
 13 15  1  0
 14 16  1  0
 15 16  1  0
 15 17  1  0
 17 18  1  0
 17 19  2  0
 18 20  1  0
 20 22  1  0
 20 21  2  0
 21 23  1  0
 22 24  2  0
 23 25  2  0
 24 25  1  0
M  RAD  8   4   2   6   3   7   3   8   2  12   3  13   3  14   3  15   2
M  RAD  6  16   3  21   2  22   2  23   2  24   2  25   2
M  END
>  <REMARK>  (1) 
 SMILES CCCc1[nH]ncc1C(=O)N1CCCC(C(=O)Nc2ccccc2)C1
 SMILES IDX 4 1 5 2 6 3 7 4 8 5 3 7 2 8 1 9 9 10 10 11 11 12 12 13 25 14
 SMILES IDX 13 15 15 16 14 17 16 18 18 19 17 20 19 22 20 23 24 24 21 25
 SMILES IDX 23 26 22 27
 H PARENT 5 6 18 21

>  <TORSDO>  (1) 
F 6

$$$$
