/home/pchatterjee/Documents/git/vs_workflow/DiffDock/diffdock_run/pdbqt_scrubbed/Z1724269066.pdbqt
     RDKit          3D

 25 27  0  0  1  0  0  0  0  0999 V2000
    9.0766   45.6846   51.6165 C   0  0  0  0  0  0  0  0  0  0  0  0
   10.0985   45.0438   50.9801 N   0  0  0  0  0  0  0  0  0  0  0  0
    9.5957   44.1218   50.1881 N   0  0  0  0  0  0  0  0  0  0  0  0
    8.2550   44.1147   50.2645 C   0  0  0  0  0  3  0  0  0  0  0  0
    7.9122   45.1148   51.1802 C   0  0  0  0  0  0  0  0  0  0  0  0
    9.1911   46.7998   52.6037 C   0  0  0  0  0  2  0  0  0  0  0  0
   10.6541   47.1892   52.6871 C   0  0  0  0  0  2  0  0  0  0  0  0
   10.8180   48.2997   53.7208 C   0  0  0  0  0  1  0  0  0  0  0  0
    6.5208   45.4390   51.5496 C   0  0  0  0  0  0  0  0  0  0  0  0
    6.1987   46.6120   51.8688 O   0  0  0  0  0  0  0  0  0  0  0  0
    5.5621   44.3918   51.5327 N   0  0  0  0  0  0  0  0  0  0  0  0
    4.7996   43.9748   52.6883 C   0  0  0  0  0  2  0  0  0  0  0  0
    5.3096   43.6743   50.2915 C   0  0  0  0  0  2  0  0  0  0  0  0
    3.3335   43.8411   52.3901 C   0  0  0  0  0  2  0  0  0  0  0  0
    4.4234   42.4783   50.6680 C   0  0  0  0  0  3  0  0  0  0  0  0
    3.1129   43.0339   51.1349 C   0  0  0  0  0  2  0  0  0  0  0  0
    4.2194   41.6253   49.4624 C   0  0  0  0  0  0  0  0  0  0  0  0
    3.9681   42.2447   48.2097 N   0  0  0  0  0  0  0  0  0  0  0  0
    4.2776   40.3660   49.6020 O   0  0  0  0  0  0  0  0  0  0  0  0
    3.7071   41.3870   47.1074 C   0  0  0  0  0  0  0  0  0  0  0  0
    4.6750   40.9098   46.2561 C   0  0  0  0  0  3  0  0  0  0  0  0
    2.3995   40.9796   46.8346 C   0  0  0  0  0  3  0  0  0  0  0  0
    4.4188   40.0810   45.1893 C   0  0  0  0  0  3  0  0  0  0  0  0
    2.1366   40.1483   45.7659 C   0  0  0  0  0  3  0  0  0  0  0  0
    3.1299   39.6900   44.9339 C   0  0  0  0  0  3  0  0  0  0  0  0
  1  6  1  0
  2  1  1  0
  3  4  2  0
  3  2  1  0
  4  5  1  0
  5  9  1  0
  5  1  2  0
  7  6  1  0
  8  7  1  0
  9 11  1  0
 10  9  2  0
 11 12  1  0
 11 13  1  0
 12 14  1  0
 13 15  1  0
 14 16  1  0
 15 16  1  0
 15 17  1  0
 17 18  1  0
 17 19  2  0
 18 20  1  0
 20 22  1  0
 20 21  2  0
 21 23  1  0
 22 24  2  0
 23 25  2  0
 24 25  1  0
M  RAD  8   4   2   6   3   7   3   8   2  12   3  13   3  14   3  15   2
M  RAD  6  16   3  21   2  22   2  23   2  24   2  25   2
M  END
>  <REMARK>  (1) 
 SMILES CCCc1[nH]ncc1C(=O)N1CCCC(C(=O)Nc2ccccc2)C1
 SMILES IDX 4 1 5 2 6 3 7 4 8 5 3 7 2 8 1 9 9 10 10 11 11 12 12 13 25 14
 SMILES IDX 13 15 15 16 14 17 16 18 18 19 17 20 19 22 20 23 24 24 21 25
 SMILES IDX 23 26 22 27
 H PARENT 5 6 18 21

>  <TORSDO>  (1) 
F 6

$$$$
