/home/pchatterjee/Documents/git/vs_workflow/DiffDock/diffdock_run/pdbqt_scrubbed/Z1724269066.pdbqt
     RDKit          3D

 25 27  0  0  1  0  0  0  0  0999 V2000
    9.4521   45.4230   51.4526 C   0  0  0  0  0  0  0  0  0  0  0  0
    9.8524   45.0791   50.1951 N   0  0  0  0  0  0  0  0  0  0  0  0
    8.8037   44.6806   49.5083 N   0  0  0  0  0  0  0  0  0  0  0  0
    7.6944   44.7433   50.2626 C   0  0  0  0  0  3  0  0  0  0  0  0
    8.1011   45.2184   51.5136 C   0  0  0  0  0  0  0  0  0  0  0  0
   10.3134   45.9298   52.5629 C   0  0  0  0  0  2  0  0  0  0  0  0
   11.5844   46.4770   51.9433 C   0  0  0  0  0  2  0  0  0  0  0  0
   12.4962   46.9985   53.0503 C   0  0  0  0  0  1  0  0  0  0  0  0
    7.1756   45.4385   52.6417 C   0  0  0  0  0  0  0  0  0  0  0  0
    7.5315   45.1882   53.8216 O   0  0  0  0  0  0  0  0  0  0  0  0
    5.8783   45.9398   52.3555 N   0  0  0  0  0  0  0  0  0  0  0  0
    4.8793   45.2151   51.6021 C   0  0  0  0  0  2  0  0  0  0  0  0
    5.5011   47.2614   52.8353 C   0  0  0  0  0  2  0  0  0  0  0  0
    3.5372   45.2200   52.2765 C   0  0  0  0  0  2  0  0  0  0  0  0
    4.1605   47.5884   52.1621 C   0  0  0  0  0  3  0  0  0  0  0  0
    3.1533   46.6171   52.6969 C   0  0  0  0  0  2  0  0  0  0  0  0
    3.7667   48.9826   52.5137 C   0  0  0  0  0  0  0  0  0  0  0  0
    3.9083   49.4252   53.8555 N   0  0  0  0  0  0  0  0  0  0  0  0
    3.3146   49.7284   51.5929 O   0  0  0  0  0  0  0  0  0  0  0  0
    4.2278   50.7956   54.0518 C   0  0  0  0  0  0  0  0  0  0  0  0
    5.1597   51.2480   54.9553 C   0  0  0  0  0  3  0  0  0  0  0  0
    3.5775   51.7781   53.3020 C   0  0  0  0  0  3  0  0  0  0  0  0
    5.4655   52.5753   55.1438 C   0  0  0  0  0  3  0  0  0  0  0  0
    3.8803   53.1110   53.4869 C   0  0  0  0  0  3  0  0  0  0  0  0
    4.8183   53.5282   54.4005 C   0  0  0  0  0  3  0  0  0  0  0  0
  1  6  1  0
  2  1  1  0
  3  4  2  0
  3  2  1  0
  4  5  1  0
  5  9  1  0
  5  1  2  0
  7  6  1  0
  8  7  1  0
  9 11  1  0
 10  9  2  0
 11 12  1  0
 11 13  1  0
 12 14  1  0
 13 15  1  0
 14 16  1  0
 15 16  1  0
 15 17  1  0
 17 18  1  0
 17 19  2  0
 18 20  1  0
 20 22  1  0
 20 21  2  0
 21 23  1  0
 22 24  2  0
 23 25  2  0
 24 25  1  0
M  RAD  8   4   2   6   3   7   3   8   2  12   3  13   3  14   3  15   2
M  RAD  6  16   3  21   2  22   2  23   2  24   2  25   2
M  END
>  <REMARK>  (1) 
 SMILES CCCc1[nH]ncc1C(=O)N1CCCC(C(=O)Nc2ccccc2)C1
 SMILES IDX 4 1 5 2 6 3 7 4 8 5 3 7 2 8 1 9 9 10 10 11 11 12 12 13 25 14
 SMILES IDX 13 15 15 16 14 17 16 18 18 19 17 20 19 22 20 23 24 24 21 25
 SMILES IDX 23 26 22 27
 H PARENT 5 6 18 21

>  <TORSDO>  (1) 
F 6

$$$$
