/home/pchatterjee/Documents/git/vs_workflow/DiffDock/diffdock_run/pdbqt_scrubbed/123658957.pdbqt
     RDKit          3D

 26 29  0  0  1  0  0  0  0  0999 V2000
    7.4951   43.9039   49.1707 C   0  0  0  0  0  3  0  0  0  0  0  0
    8.8890   44.2367   49.3732 N   0  0  0  0  0  0  0  0  0  0  0  0
    9.3215   45.0550   50.2613 C   0  0  0  0  0  0  0  0  0  0  0  0
   10.5565   45.4772   50.5877 N   0  0  0  0  0  0  0  0  0  0  0  0
   10.4818   46.3490   51.6036 C   0  0  0  0  0  3  0  0  0  0  0  0
    9.1971   46.4836   51.9262 N   0  0  0  0  0  0  0  0  0  0  0  0
    8.4666   45.7034   51.1210 C   0  0  0  0  0  0  0  0  0  0  0  0
    7.1607   45.5226   51.0824 C   0  0  0  0  0  0  0  0  0  0  0  0
    6.6592   44.6202   50.1063 N   0  0  0  0  0  0  0  0  0  0  0  0
    7.3725   42.4686   49.3142 N   0  0  0  0  0  0  0  0  0  0  0  0
    6.1052   41.8955   48.9888 C   0  0  0  0  0  0  0  0  0  0  0  0
    3.7439   40.7826   48.2079 C   0  0  0  0  0  0  0  0  0  0  0  0
    3.9009   41.1834   49.5291 C   0  0  0  0  0  3  0  0  0  0  0  0
    4.7488   40.9296   47.2717 C   0  0  0  0  0  0  0  0  0  0  0  0
    5.0969   41.7492   49.9330 C   0  0  0  0  0  3  0  0  0  0  0  0
    5.9321   41.4907   47.6764 C   0  0  0  0  0  3  0  0  0  0  0  0
    2.5803   40.2297   47.8053 F   0  0  0  0  0  0  0  0  0  0  0  0
    4.5649   40.4284   45.6011 Cl  0  0  0  0  0  0  0  0  0  0  0  0
    6.2592   46.1404   51.9129 O   0  0  0  0  0  0  0  0  0  0  0  0
    4.8557   46.0132   51.8436 C   0  0  0  0  0  2  0  0  0  0  0  0
    4.3292   46.3352   53.2258 C   0  0  0  0  0  3  0  0  0  0  0  0
    4.4175   45.1995   54.1920 C   0  0  0  0  0  2  0  0  0  0  0  0
    4.8834   47.6357   53.7663 C   0  0  0  0  0  2  0  0  0  0  0  0
    4.5752   45.6474   55.6217 C   0  0  0  0  0  2  0  0  0  0  0  0
    4.0081   48.0130   54.9446 C   0  0  0  0  0  2  0  0  0  0  0  0
    3.8570   46.9101   55.9354 C   0  0  0  0  0  2  0  0  0  0  0  0
  1 10  1  0
  2  1  1  0
  3  2  2  0
  4  3  1  0
  5  4  2  0
  6  5  1  0
  6  7  1  0
  7  8  2  0
  7  3  1  0
  8  9  1  0
  9  1  1  0
 11 10  1  0
 11 16  2  0
 12 14  2  0
 13 15  2  0
 13 12  1  0
 14 16  1  0
 14 18  1  0
 15 11  1  0
 17 12  1  0
 19 20  1  0
 19  8  1  0
 21 20  1  0
 21 22  1  0
 23 21  1  0
 24 22  1  0
 25 23  1  0
 25 26  1  0
 26 24  1  0
M  RAD  8   1   2   5   2  13   2  15   2  16   2  20   3  21   2  22   3
M  RAD  4  23   3  24   3  25   3  26   3
M  END
>  <REMARK>  (1) 
 SMILES Fc1ccc(Nc2nc3nc[nH]c3c(OCC3CCCCC3)[nH+]2)cc1Cl
 SMILES IDX 7 1 8 2 9 3 10 4 11 5 12 6 13 7 14 8 23 9 6 12 5 14 2 15
 SMILES IDX 3 16 25 17 4 18 24 19 1 20 26 21 15 22 16 23 17 24 18 25
 SMILES IDX 22 26 19 27 21 28 20 29
 H PARENT 12 10 23 11 6 13

>  <TORSDO>  (1) 
F 5

$$$$
