/home/pchatterjee/Documents/git/vs_workflow/DiffDock/diffdock_run/pdbqt_scrubbed/123658957.pdbqt
     RDKit          3D

 26 29  0  0  1  0  0  0  0  0999 V2000
    7.6708   43.7107   48.9784 C   0  0  0  0  0  3  0  0  0  0  0  0
    9.0170   44.0677   49.3724 N   0  0  0  0  0  0  0  0  0  0  0  0
    9.3111   44.7881   50.3921 C   0  0  0  0  0  0  0  0  0  0  0  0
   10.4818   45.2130   50.9011 N   0  0  0  0  0  0  0  0  0  0  0  0
   10.2561   45.9524   51.9966 C   0  0  0  0  0  3  0  0  0  0  0  0
    8.9392   45.9996   52.1872 N   0  0  0  0  0  0  0  0  0  0  0  0
    8.3384   45.2960   51.2204 C   0  0  0  0  0  0  0  0  0  0  0  0
    7.0547   45.0732   51.0156 C   0  0  0  0  0  0  0  0  0  0  0  0
    6.7055   44.2776   49.8916 N   0  0  0  0  0  0  0  0  0  0  0  0
    7.6053   42.2651   48.9398 N   0  0  0  0  0  0  0  0  0  0  0  0
    6.3647   41.6881   48.5295 C   0  0  0  0  0  0  0  0  0  0  0  0
    3.9365   40.6228   47.9026 C   0  0  0  0  0  0  0  0  0  0  0  0
    4.9447   40.6229   46.9463 C   0  0  0  0  0  3  0  0  0  0  0  0
    4.1236   41.1469   49.1667 C   0  0  0  0  0  0  0  0  0  0  0  0
    6.1801   41.1619   47.2573 C   0  0  0  0  0  3  0  0  0  0  0  0
    5.3493   41.6800   49.4704 C   0  0  0  0  0  3  0  0  0  0  0  0
    2.7281   40.0988   47.6077 F   0  0  0  0  0  0  0  0  0  0  0  0
    2.8606   41.1538   50.3836 Cl  0  0  0  0  0  0  0  0  0  0  0  0
    6.0402   45.5527   51.8064 O   0  0  0  0  0  0  0  0  0  0  0  0
    4.7443   45.0033   51.9048 C   0  0  0  0  0  2  0  0  0  0  0  0
    4.0556   45.7349   53.0371 C   0  0  0  0  0  3  0  0  0  0  0  0
    2.9559   46.6445   52.5958 C   0  0  0  0  0  2  0  0  0  0  0  0
    3.6601   44.8087   54.1668 C   0  0  0  0  0  2  0  0  0  0  0  0
    1.8721   46.8100   53.6291 C   0  0  0  0  0  2  0  0  0  0  0  0
    3.3438   45.6974   55.3531 C   0  0  0  0  0  2  0  0  0  0  0  0
    2.3706   46.7783   55.0289 C   0  0  0  0  0  2  0  0  0  0  0  0
  1 10  1  0
  2  1  1  0
  3  2  2  0
  4  3  1  0
  5  4  2  0
  6  5  1  0
  6  7  1  0
  7  8  2  0
  7  3  1  0
  8  9  1  0
  9  1  1  0
 11 10  1  0
 11 16  2  0
 12 14  2  0
 13 15  2  0
 13 12  1  0
 14 16  1  0
 14 18  1  0
 15 11  1  0
 17 12  1  0
 19 20  1  0
 19  8  1  0
 21 20  1  0
 21 22  1  0
 23 21  1  0
 24 22  1  0
 25 23  1  0
 25 26  1  0
 26 24  1  0
M  RAD  8   1   2   5   2  13   2  15   2  16   2  20   3  21   2  22   3
M  RAD  4  23   3  24   3  25   3  26   3
M  END
>  <REMARK>  (1) 
 SMILES Fc1ccc(Nc2nc3nc[nH]c3c(OCC3CCCCC3)[nH+]2)cc1Cl
 SMILES IDX 7 1 8 2 9 3 10 4 11 5 12 6 13 7 14 8 23 9 6 12 5 14 2 15
 SMILES IDX 3 16 25 17 4 18 24 19 1 20 26 21 15 22 16 23 17 24 18 25
 SMILES IDX 22 26 19 27 21 28 20 29
 H PARENT 12 10 23 11 6 13

>  <TORSDO>  (1) 
F 5

$$$$
