/home/pchatterjee/Documents/git/vs_workflow/DiffDock/diffdock_run/pdbqt_scrubbed/123658957.pdbqt
     RDKit          3D

 26 29  0  0  1  0  0  0  0  0999 V2000
    7.5641   43.8140   48.8802 C   0  0  0  0  0  3  0  0  0  0  0  0
    8.9435   44.1789   49.1229 N   0  0  0  0  0  0  0  0  0  0  0  0
    9.3405   44.9298   50.0842 C   0  0  0  0  0  0  0  0  0  0  0  0
   10.5571   45.3666   50.4570 N   0  0  0  0  0  0  0  0  0  0  0  0
   10.4448   46.1404   51.5462 C   0  0  0  0  0  3  0  0  0  0  0  0
    9.1544   46.1976   51.8692 N   0  0  0  0  0  0  0  0  0  0  0  0
    8.4577   45.4662   50.9915 C   0  0  0  0  0  0  0  0  0  0  0  0
    7.1598   45.2412   50.9263 C   0  0  0  0  0  0  0  0  0  0  0  0
    6.6973   44.4120   49.8693 N   0  0  0  0  0  0  0  0  0  0  0  0
    7.4951   42.3681   48.8937 N   0  0  0  0  0  0  0  0  0  0  0  0
    6.2025   41.7841   48.7241 C   0  0  0  0  0  0  0  0  0  0  0  0
    3.7657   40.6689   48.2321 C   0  0  0  0  0  0  0  0  0  0  0  0
    4.1353   40.9403   49.5439 C   0  0  0  0  0  3  0  0  0  0  0  0
    4.5954   40.9464   47.1632 C   0  0  0  0  0  0  0  0  0  0  0  0
    5.3708   41.5065   49.8014 C   0  0  0  0  0  3  0  0  0  0  0  0
    5.8187   41.5073   47.4233 C   0  0  0  0  0  3  0  0  0  0  0  0
    2.5620   40.1166   47.9717 F   0  0  0  0  0  0  0  0  0  0  0  0
    4.1425   40.6093   45.5028 Cl  0  0  0  0  0  0  0  0  0  0  0  0
    6.2316   45.7481   51.8014 O   0  0  0  0  0  0  0  0  0  0  0  0
    4.9554   45.2022   52.0543 C   0  0  0  0  0  2  0  0  0  0  0  0
    4.3701   45.9986   53.2009 C   0  0  0  0  0  3  0  0  0  0  0  0
    3.3838   47.0385   52.7802 C   0  0  0  0  0  2  0  0  0  0  0  0
    3.8766   45.1143   54.3256 C   0  0  0  0  0  2  0  0  0  0  0  0
    2.3374   47.3217   53.8264 C   0  0  0  0  0  2  0  0  0  0  0  0
    3.6805   46.0214   55.5238 C   0  0  0  0  0  2  0  0  0  0  0  0
    2.8413   47.2150   55.2205 C   0  0  0  0  0  2  0  0  0  0  0  0
  1 10  1  0
  2  1  1  0
  3  2  2  0
  4  3  1  0
  5  4  2  0
  6  5  1  0
  6  7  1  0
  7  8  2  0
  7  3  1  0
  8  9  1  0
  9  1  1  0
 11 10  1  0
 11 16  2  0
 12 14  2  0
 13 15  2  0
 13 12  1  0
 14 16  1  0
 14 18  1  0
 15 11  1  0
 17 12  1  0
 19 20  1  0
 19  8  1  0
 21 20  1  0
 21 22  1  0
 23 21  1  0
 24 22  1  0
 25 23  1  0
 25 26  1  0
 26 24  1  0
M  RAD  8   1   2   5   2  13   2  15   2  16   2  20   3  21   2  22   3
M  RAD  4  23   3  24   3  25   3  26   3
M  END
>  <REMARK>  (1) 
 SMILES Fc1ccc(Nc2nc3nc[nH]c3c(OCC3CCCCC3)[nH+]2)cc1Cl
 SMILES IDX 7 1 8 2 9 3 10 4 11 5 12 6 13 7 14 8 23 9 6 12 5 14 2 15
 SMILES IDX 3 16 25 17 4 18 24 19 1 20 26 21 15 22 16 23 17 24 18 25
 SMILES IDX 22 26 19 27 21 28 20 29
 H PARENT 12 10 23 11 6 13

>  <TORSDO>  (1) 
F 5

$$$$
