/home/pchatterjee/Documents/git/vs_workflow/DiffDock/diffdock_run/pdbqt_scrubbed/123658957.pdbqt
     RDKit          3D

 26 29  0  0  1  0  0  0  0  0999 V2000
    7.3950   43.8319   48.9552 C   0  0  0  0  0  3  0  0  0  0  0  0
    8.7825   44.1900   49.1595 N   0  0  0  0  0  0  0  0  0  0  0  0
    9.1978   45.0241   50.0410 C   0  0  0  0  0  0  0  0  0  0  0  0
   10.4242   45.4701   50.3678 N   0  0  0  0  0  0  0  0  0  0  0  0
   10.3312   46.3505   51.3748 C   0  0  0  0  0  3  0  0  0  0  0  0
    9.0431   46.4666   51.6914 N   0  0  0  0  0  0  0  0  0  0  0  0
    8.3288   45.6664   50.8911 C   0  0  0  0  0  0  0  0  0  0  0  0
    7.0264   45.4634   50.8495 C   0  0  0  0  0  0  0  0  0  0  0  0
    6.5437   44.5433   49.8806 N   0  0  0  0  0  0  0  0  0  0  0  0
    7.2960   42.3963   49.1123 N   0  0  0  0  0  0  0  0  0  0  0  0
    6.0757   41.7856   48.6897 C   0  0  0  0  0  0  0  0  0  0  0  0
    3.6772   40.6740   48.0298 C   0  0  0  0  0  0  0  0  0  0  0  0
    4.7443   40.5584   47.1473 C   0  0  0  0  0  3  0  0  0  0  0  0
    3.7909   41.3365   49.2365 C   0  0  0  0  0  0  0  0  0  0  0  0
    5.9651   41.1201   47.4754 C   0  0  0  0  0  3  0  0  0  0  0  0
    5.0023   41.8915   49.5574 C   0  0  0  0  0  3  0  0  0  0  0  0
    2.4826   40.1288   47.7177 F   0  0  0  0  0  0  0  0  0  0  0  0
    2.4530   41.4903   50.3600 Cl  0  0  0  0  0  0  0  0  0  0  0  0
    6.1114   46.0742   51.6706 O   0  0  0  0  0  0  0  0  0  0  0  0
    4.7287   45.7965   51.7115 C   0  0  0  0  0  2  0  0  0  0  0  0
    4.2545   46.1933   53.0933 C   0  0  0  0  0  3  0  0  0  0  0  0
    4.5434   45.1795   54.1516 C   0  0  0  0  0  2  0  0  0  0  0  0
    4.6763   47.5978   53.4674 C   0  0  0  0  0  2  0  0  0  0  0  0
    4.7342   45.7855   55.5177 C   0  0  0  0  0  2  0  0  0  0  0  0
    3.8369   47.9875   54.6676 C   0  0  0  0  0  2  0  0  0  0  0  0
    3.8863   46.9807   55.7653 C   0  0  0  0  0  2  0  0  0  0  0  0
  1 10  1  0
  2  1  1  0
  3  2  2  0
  4  3  1  0
  5  4  2  0
  6  5  1  0
  6  7  1  0
  7  8  2  0
  7  3  1  0
  8  9  1  0
  9  1  1  0
 11 10  1  0
 11 16  2  0
 12 14  2  0
 13 15  2  0
 13 12  1  0
 14 16  1  0
 14 18  1  0
 15 11  1  0
 17 12  1  0
 19 20  1  0
 19  8  1  0
 21 20  1  0
 21 22  1  0
 23 21  1  0
 24 22  1  0
 25 23  1  0
 25 26  1  0
 26 24  1  0
M  RAD  8   1   2   5   2  13   2  15   2  16   2  20   3  21   2  22   3
M  RAD  4  23   3  24   3  25   3  26   3
M  END
>  <REMARK>  (1) 
 SMILES Fc1ccc(Nc2nc3nc[nH]c3c(OCC3CCCCC3)[nH+]2)cc1Cl
 SMILES IDX 7 1 8 2 9 3 10 4 11 5 12 6 13 7 14 8 23 9 6 12 5 14 2 15
 SMILES IDX 3 16 25 17 4 18 24 19 1 20 26 21 15 22 16 23 17 24 18 25
 SMILES IDX 22 26 19 27 21 28 20 29
 H PARENT 12 10 23 11 6 13

>  <TORSDO>  (1) 
F 5

$$$$
