/home/pchatterjee/Documents/git/vs_workflow/DiffDock/diffdock_run/pdbqt_scrubbed/123658957.pdbqt
     RDKit          3D

 26 29  0  0  1  0  0  0  0  0999 V2000
    7.4175   43.6841   49.0083 C   0  0  0  0  0  3  0  0  0  0  0  0
    8.7703   44.0824   49.3341 N   0  0  0  0  0  0  0  0  0  0  0  0
    9.0894   44.8456   50.3145 C   0  0  0  0  0  0  0  0  0  0  0  0
   10.2700   45.3124   50.7597 N   0  0  0  0  0  0  0  0  0  0  0  0
   10.0724   46.0868   51.8363 C   0  0  0  0  0  3  0  0  0  0  0  0
    8.7634   46.1143   52.0787 N   0  0  0  0  0  0  0  0  0  0  0  0
    8.1397   45.3638   51.1630 C   0  0  0  0  0  0  0  0  0  0  0  0
    6.8540   45.1077   51.0188 C   0  0  0  0  0  0  0  0  0  0  0  0
    6.4774   44.2645   49.9392 N   0  0  0  0  0  0  0  0  0  0  0  0
    7.3819   42.2370   49.0242 N   0  0  0  0  0  0  0  0  0  0  0  0
    6.1678   41.6187   48.5949 C   0  0  0  0  0  0  0  0  0  0  0  0
    3.7819   40.4863   47.9249 C   0  0  0  0  0  0  0  0  0  0  0  0
    4.8405   40.4196   47.0271 C   0  0  0  0  0  3  0  0  0  0  0  0
    3.8980   41.1101   49.1518 C   0  0  0  0  0  0  0  0  0  0  0  0
    6.0548   40.9923   47.3604 C   0  0  0  0  0  3  0  0  0  0  0  0
    5.1030   41.6761   49.4777 C   0  0  0  0  0  3  0  0  0  0  0  0
    2.5936   39.9302   47.6080 F   0  0  0  0  0  0  0  0  0  0  0  0
    2.5708   41.2019   50.2947 Cl  0  0  0  0  0  0  0  0  0  0  0  0
    5.8618   45.5952   51.8326 O   0  0  0  0  0  0  0  0  0  0  0  0
    4.5655   45.0539   51.9639 C   0  0  0  0  0  2  0  0  0  0  0  0
    3.9673   45.6759   53.2076 C   0  0  0  0  0  3  0  0  0  0  0  0
    4.4215   45.0458   54.4835 C   0  0  0  0  0  2  0  0  0  0  0  0
    4.0721   47.1857   53.2057 C   0  0  0  0  0  2  0  0  0  0  0  0
    4.4300   46.0022   55.6475 C   0  0  0  0  0  2  0  0  0  0  0  0
    3.1253   47.6782   54.2819 C   0  0  0  0  0  2  0  0  0  0  0  0
    3.3425   47.0140   55.5981 C   0  0  0  0  0  2  0  0  0  0  0  0
  1 10  1  0
  2  1  1  0
  3  2  2  0
  4  3  1  0
  5  4  2  0
  6  5  1  0
  6  7  1  0
  7  8  2  0
  7  3  1  0
  8  9  1  0
  9  1  1  0
 11 10  1  0
 11 16  2  0
 12 14  2  0
 13 15  2  0
 13 12  1  0
 14 16  1  0
 14 18  1  0
 15 11  1  0
 17 12  1  0
 19 20  1  0
 19  8  1  0
 21 20  1  0
 21 22  1  0
 23 21  1  0
 24 22  1  0
 25 23  1  0
 25 26  1  0
 26 24  1  0
M  RAD  8   1   2   5   2  13   2  15   2  16   2  20   3  21   2  22   3
M  RAD  4  23   3  24   3  25   3  26   3
M  END
>  <REMARK>  (1) 
 SMILES Fc1ccc(Nc2nc3nc[nH]c3c(OCC3CCCCC3)[nH+]2)cc1Cl
 SMILES IDX 7 1 8 2 9 3 10 4 11 5 12 6 13 7 14 8 23 9 6 12 5 14 2 15
 SMILES IDX 3 16 25 17 4 18 24 19 1 20 26 21 15 22 16 23 17 24 18 25
 SMILES IDX 22 26 19 27 21 28 20 29
 H PARENT 12 10 23 11 6 13

>  <TORSDO>  (1) 
F 5

$$$$
