/home/pchatterjee/Documents/git/vs_workflow/DiffDock/diffdock_run/pdbqt_scrubbed/123658957.pdbqt
     RDKit          3D

 26 29  0  0  1  0  0  0  0  0999 V2000
    7.4430   43.7761   49.1894 C   0  0  0  0  0  3  0  0  0  0  0  0
    8.8580   43.9897   49.4061 N   0  0  0  0  0  0  0  0  0  0  0  0
    9.3492   44.7696   50.2983 C   0  0  0  0  0  0  0  0  0  0  0  0
   10.6121   45.0860   50.6372 N   0  0  0  0  0  0  0  0  0  0  0  0
   10.6013   45.9624   51.6518 C   0  0  0  0  0  3  0  0  0  0  0  0
    9.3294   46.2059   51.9611 N   0  0  0  0  0  0  0  0  0  0  0  0
    8.5436   45.4893   51.1487 C   0  0  0  0  0  0  0  0  0  0  0  0
    7.2276   45.4199   51.0967 C   0  0  0  0  0  0  0  0  0  0  0  0
    6.6614   44.5621   50.1159 N   0  0  0  0  0  0  0  0  0  0  0  0
    7.1977   42.3566   49.3322 N   0  0  0  0  0  0  0  0  0  0  0  0
    5.8575   41.9108   49.1187 C   0  0  0  0  0  0  0  0  0  0  0  0
    3.3339   41.0595   48.5435 C   0  0  0  0  0  0  0  0  0  0  0  0
    3.6949   41.2649   49.8697 C   0  0  0  0  0  3  0  0  0  0  0  0
    4.2148   41.2730   47.5013 C   0  0  0  0  0  0  0  0  0  0  0  0
    4.9743   41.6971   50.1694 C   0  0  0  0  0  3  0  0  0  0  0  0
    5.4814   41.7012   47.8031 C   0  0  0  0  0  3  0  0  0  0  0  0
    2.0876   40.6379   48.2421 F   0  0  0  0  0  0  0  0  0  0  0  0
    3.7732   41.0179   45.8233 Cl  0  0  0  0  0  0  0  0  0  0  0  0
    6.3733   46.1132   51.9175 O   0  0  0  0  0  0  0  0  0  0  0  0
    5.0413   46.4636   51.6109 C   0  0  0  0  0  2  0  0  0  0  0  0
    4.2359   46.2218   52.8696 C   0  0  0  0  0  3  0  0  0  0  0  0
    2.7593   46.3474   52.6822 C   0  0  0  0  0  2  0  0  0  0  0  0
    4.6507   44.9549   53.5861 C   0  0  0  0  0  2  0  0  0  0  0  0
    1.9655   45.4831   53.6269 C   0  0  0  0  0  2  0  0  0  0  0  0
    4.0530   45.0385   54.9763 C   0  0  0  0  0  2  0  0  0  0  0  0
    2.5915   45.3297   54.9661 C   0  0  0  0  0  2  0  0  0  0  0  0
  1 10  1  0
  2  1  1  0
  3  2  2  0
  4  3  1  0
  5  4  2  0
  6  5  1  0
  6  7  1  0
  7  8  2  0
  7  3  1  0
  8  9  1  0
  9  1  1  0
 11 10  1  0
 11 16  2  0
 12 14  2  0
 13 15  2  0
 13 12  1  0
 14 16  1  0
 14 18  1  0
 15 11  1  0
 17 12  1  0
 19 20  1  0
 19  8  1  0
 21 20  1  0
 21 22  1  0
 23 21  1  0
 24 22  1  0
 25 23  1  0
 25 26  1  0
 26 24  1  0
M  RAD  8   1   2   5   2  13   2  15   2  16   2  20   3  21   2  22   3
M  RAD  4  23   3  24   3  25   3  26   3
M  END
>  <REMARK>  (1) 
 SMILES Fc1ccc(Nc2nc3nc[nH]c3c(OCC3CCCCC3)[nH+]2)cc1Cl
 SMILES IDX 7 1 8 2 9 3 10 4 11 5 12 6 13 7 14 8 23 9 6 12 5 14 2 15
 SMILES IDX 3 16 25 17 4 18 24 19 1 20 26 21 15 22 16 23 17 24 18 25
 SMILES IDX 22 26 19 27 21 28 20 29
 H PARENT 12 10 23 11 6 13

>  <TORSDO>  (1) 
F 5

$$$$
