/home/pchatterjee/Documents/git/vs_workflow/DiffDock/diffdock_run/pdbqt_scrubbed/123658957.pdbqt
     RDKit          3D

 26 29  0  0  1  0  0  0  0  0999 V2000
    7.5133   43.8034   49.1689 C   0  0  0  0  0  3  0  0  0  0  0  0
    8.8851   44.1674   49.4525 N   0  0  0  0  0  0  0  0  0  0  0  0
    9.2489   44.9649   50.3890 C   0  0  0  0  0  0  0  0  0  0  0  0
   10.4533   45.4093   50.7914 N   0  0  0  0  0  0  0  0  0  0  0  0
   10.3030   46.2415   51.8318 C   0  0  0  0  0  3  0  0  0  0  0  0
    9.0005   46.3284   52.0941 N   0  0  0  0  0  0  0  0  0  0  0  0
    8.3339   45.5577   51.2267 C   0  0  0  0  0  0  0  0  0  0  0  0
    7.0375   45.3421   51.1164 C   0  0  0  0  0  0  0  0  0  0  0  0
    6.6115   44.4619   50.0857 N   0  0  0  0  0  0  0  0  0  0  0  0
    7.4264   42.3610   49.2562 N   0  0  0  0  0  0  0  0  0  0  0  0
    6.2223   41.7589   48.7785 C   0  0  0  0  0  0  0  0  0  0  0  0
    3.8505   40.6575   48.0137 C   0  0  0  0  0  0  0  0  0  0  0  0
    4.9407   40.5842   47.1553 C   0  0  0  0  0  3  0  0  0  0  0  0
    3.9279   41.2727   49.2480 C   0  0  0  0  0  0  0  0  0  0  0  0
    6.1481   41.1411   47.5367 C   0  0  0  0  0  3  0  0  0  0  0  0
    5.1263   41.8231   49.6217 C   0  0  0  0  0  3  0  0  0  0  0  0
    2.6686   40.1167   47.6496 F   0  0  0  0  0  0  0  0  0  0  0  0
    2.5605   41.3727   50.3416 Cl  0  0  0  0  0  0  0  0  0  0  0  0
    6.0783   45.9042   51.9215 O   0  0  0  0  0  0  0  0  0  0  0  0
    4.6935   45.6411   51.8578 C   0  0  0  0  0  2  0  0  0  0  0  0
    4.1513   45.8686   53.2527 C   0  0  0  0  0  3  0  0  0  0  0  0
    4.5759   44.8384   54.2475 C   0  0  0  0  0  2  0  0  0  0  0  0
    4.3569   47.2910   53.7273 C   0  0  0  0  0  2  0  0  0  0  0  0
    4.6605   45.3711   55.6542 C   0  0  0  0  0  2  0  0  0  0  0  0
    3.4565   47.4703   54.9332 C   0  0  0  0  0  2  0  0  0  0  0  0
    3.6426   46.4091   55.9628 C   0  0  0  0  0  2  0  0  0  0  0  0
  1 10  1  0
  2  1  1  0
  3  2  2  0
  4  3  1  0
  5  4  2  0
  6  5  1  0
  6  7  1  0
  7  8  2  0
  7  3  1  0
  8  9  1  0
  9  1  1  0
 11 10  1  0
 11 16  2  0
 12 14  2  0
 13 15  2  0
 13 12  1  0
 14 16  1  0
 14 18  1  0
 15 11  1  0
 17 12  1  0
 19 20  1  0
 19  8  1  0
 21 20  1  0
 21 22  1  0
 23 21  1  0
 24 22  1  0
 25 23  1  0
 25 26  1  0
 26 24  1  0
M  RAD  8   1   2   5   2  13   2  15   2  16   2  20   3  21   2  22   3
M  RAD  4  23   3  24   3  25   3  26   3
M  END
>  <REMARK>  (1) 
 SMILES Fc1ccc(Nc2nc3nc[nH]c3c(OCC3CCCCC3)[nH+]2)cc1Cl
 SMILES IDX 7 1 8 2 9 3 10 4 11 5 12 6 13 7 14 8 23 9 6 12 5 14 2 15
 SMILES IDX 3 16 25 17 4 18 24 19 1 20 26 21 15 22 16 23 17 24 18 25
 SMILES IDX 22 26 19 27 21 28 20 29
 H PARENT 12 10 23 11 6 13

>  <TORSDO>  (1) 
F 5

$$$$
