/home/pchatterjee/Documents/git/vs_workflow/DiffDock/diffdock_run/pdbqt_scrubbed/123658957.pdbqt
     RDKit          3D

 26 29  0  0  1  0  0  0  0  0999 V2000
    7.4968   43.8018   48.9156 C   0  0  0  0  0  3  0  0  0  0  0  0
    8.8808   44.1221   49.1927 N   0  0  0  0  0  0  0  0  0  0  0  0
    9.2817   44.8196   50.1917 C   0  0  0  0  0  0  0  0  0  0  0  0
   10.5027   45.2099   50.5999 N   0  0  0  0  0  0  0  0  0  0  0  0
   10.3932   45.9370   51.7210 C   0  0  0  0  0  3  0  0  0  0  0  0
    9.0999   46.0110   52.0291 N   0  0  0  0  0  0  0  0  0  0  0  0
    8.3988   45.3364   51.1103 C   0  0  0  0  0  0  0  0  0  0  0  0
    7.0970   45.1460   51.0180 C   0  0  0  0  0  0  0  0  0  0  0  0
    6.6303   44.3761   49.9189 N   0  0  0  0  0  0  0  0  0  0  0  0
    7.3936   42.3589   48.8634 N   0  0  0  0  0  0  0  0  0  0  0  0
    6.0848   41.8134   48.6900 C   0  0  0  0  0  0  0  0  0  0  0  0
    3.6185   40.7682   48.1910 C   0  0  0  0  0  0  0  0  0  0  0  0
    3.9842   41.0481   49.5021 C   0  0  0  0  0  3  0  0  0  0  0  0
    4.4665   41.0028   47.1263 C   0  0  0  0  0  0  0  0  0  0  0  0
    5.2346   41.5788   49.7632 C   0  0  0  0  0  3  0  0  0  0  0  0
    5.7045   41.5288   47.3898 C   0  0  0  0  0  3  0  0  0  0  0  0
    2.4004   40.2502   47.9272 F   0  0  0  0  0  0  0  0  0  0  0  0
    4.0186   40.6545   45.4667 Cl  0  0  0  0  0  0  0  0  0  0  0  0
    6.1687   45.6358   51.9025 O   0  0  0  0  0  0  0  0  0  0  0  0
    4.8209   45.2277   51.9904 C   0  0  0  0  0  2  0  0  0  0  0  0
    4.2228   45.9796   53.1603 C   0  0  0  0  0  3  0  0  0  0  0  0
    3.1373   46.9332   52.7815 C   0  0  0  0  0  2  0  0  0  0  0  0
    3.8528   45.0638   54.3069 C   0  0  0  0  0  2  0  0  0  0  0  0
    2.1177   47.1353   53.8721 C   0  0  0  0  0  2  0  0  0  0  0  0
    3.6354   45.9580   55.5111 C   0  0  0  0  0  2  0  0  0  0  0  0
    2.6889   47.0774   55.2429 C   0  0  0  0  0  2  0  0  0  0  0  0
  1 10  1  0
  2  1  1  0
  3  2  2  0
  4  3  1  0
  5  4  2  0
  6  5  1  0
  6  7  1  0
  7  8  2  0
  7  3  1  0
  8  9  1  0
  9  1  1  0
 11 10  1  0
 11 16  2  0
 12 14  2  0
 13 15  2  0
 13 12  1  0
 14 16  1  0
 14 18  1  0
 15 11  1  0
 17 12  1  0
 19 20  1  0
 19  8  1  0
 21 20  1  0
 21 22  1  0
 23 21  1  0
 24 22  1  0
 25 23  1  0
 25 26  1  0
 26 24  1  0
M  RAD  8   1   2   5   2  13   2  15   2  16   2  20   3  21   2  22   3
M  RAD  4  23   3  24   3  25   3  26   3
M  END
>  <REMARK>  (1) 
 SMILES Fc1ccc(Nc2nc3nc[nH]c3c(OCC3CCCCC3)[nH+]2)cc1Cl
 SMILES IDX 7 1 8 2 9 3 10 4 11 5 12 6 13 7 14 8 23 9 6 12 5 14 2 15
 SMILES IDX 3 16 25 17 4 18 24 19 1 20 26 21 15 22 16 23 17 24 18 25
 SMILES IDX 22 26 19 27 21 28 20 29
 H PARENT 12 10 23 11 6 13

>  <TORSDO>  (1) 
F 5

$$$$
