/home/pchatterjee/Documents/git/vs_workflow/DiffDock/diffdock_run/pdbqt_scrubbed/123658957.pdbqt
     RDKit          3D

 26 29  0  0  1  0  0  0  0  0999 V2000
    7.4392   43.7977   49.0060 C   0  0  0  0  0  3  0  0  0  0  0  0
    8.8162   44.1661   49.2571 N   0  0  0  0  0  0  0  0  0  0  0  0
    9.2194   44.8247   50.2814 C   0  0  0  0  0  0  0  0  0  0  0  0
   10.4350   45.2480   50.6725 N   0  0  0  0  0  0  0  0  0  0  0  0
   10.3314   45.9055   51.8364 C   0  0  0  0  0  3  0  0  0  0  0  0
    9.0475   45.9019   52.1889 N   0  0  0  0  0  0  0  0  0  0  0  0
    8.3462   45.2477   51.2556 C   0  0  0  0  0  0  0  0  0  0  0  0
    7.0519   45.0023   51.1936 C   0  0  0  0  0  0  0  0  0  0  0  0
    6.5827   44.2741   50.0675 N   0  0  0  0  0  0  0  0  0  0  0  0
    7.3988   42.3567   48.8745 N   0  0  0  0  0  0  0  0  0  0  0  0
    6.1308   41.7738   48.5697 C   0  0  0  0  0  0  0  0  0  0  0  0
    3.6717   40.6765   48.1540 C   0  0  0  0  0  0  0  0  0  0  0  0
    4.5361   40.8323   47.0771 C   0  0  0  0  0  3  0  0  0  0  0  0
    4.0179   41.0607   49.4347 C   0  0  0  0  0  0  0  0  0  0  0  0
    5.7861   41.3886   47.2804 C   0  0  0  0  0  3  0  0  0  0  0  0
    5.2576   41.6115   49.6315 C   0  0  0  0  0  3  0  0  0  0  0  0
    2.4502   40.1346   47.9646 F   0  0  0  0  0  0  0  0  0  0  0  0
    2.9376   40.8702   50.8032 Cl  0  0  0  0  0  0  0  0  0  0  0  0
    6.1333   45.3983   52.1337 O   0  0  0  0  0  0  0  0  0  0  0  0
    5.2004   44.5578   52.7771 C   0  0  0  0  0  2  0  0  0  0  0  0
    3.8933   45.3206   52.8142 C   0  0  0  0  0  3  0  0  0  0  0  0
    3.9166   46.5279   53.6935 C   0  0  0  0  0  2  0  0  0  0  0  0
    3.3417   45.5885   51.4305 C   0  0  0  0  0  2  0  0  0  0  0  0
    2.9786   47.6141   53.2351 C   0  0  0  0  0  2  0  0  0  0  0  0
    1.8959   46.0006   51.6225 C   0  0  0  0  0  2  0  0  0  0  0  0
    1.7301   47.1024   52.6120 C   0  0  0  0  0  2  0  0  0  0  0  0
  1 10  1  0
  2  1  1  0
  3  2  2  0
  4  3  1  0
  5  4  2  0
  6  5  1  0
  6  7  1  0
  7  8  2  0
  7  3  1  0
  8  9  1  0
  9  1  1  0
 11 10  1  0
 11 16  2  0
 12 14  2  0
 13 15  2  0
 13 12  1  0
 14 16  1  0
 14 18  1  0
 15 11  1  0
 17 12  1  0
 19 20  1  0
 19  8  1  0
 21 20  1  0
 21 22  1  0
 23 21  1  0
 24 22  1  0
 25 23  1  0
 25 26  1  0
 26 24  1  0
M  RAD  8   1   2   5   2  13   2  15   2  16   2  20   3  21   2  22   3
M  RAD  4  23   3  24   3  25   3  26   3
M  END
>  <REMARK>  (1) 
 SMILES Fc1ccc(Nc2nc3nc[nH]c3c(OCC3CCCCC3)[nH+]2)cc1Cl
 SMILES IDX 7 1 8 2 9 3 10 4 11 5 12 6 13 7 14 8 23 9 6 12 5 14 2 15
 SMILES IDX 3 16 25 17 4 18 24 19 1 20 26 21 15 22 16 23 17 24 18 25
 SMILES IDX 22 26 19 27 21 28 20 29
 H PARENT 12 10 23 11 6 13

>  <TORSDO>  (1) 
F 5

$$$$
