/home/pchatterjee/Documents/git/vs_workflow/DiffDock/diffdock_run/pdbqt_scrubbed/123658957.pdbqt
     RDKit          3D

 26 29  0  0  1  0  0  0  0  0999 V2000
    7.4349   43.7215   48.9141 C   0  0  0  0  0  3  0  0  0  0  0  0
    8.7979   44.1146   49.2014 N   0  0  0  0  0  0  0  0  0  0  0  0
    9.1404   44.9350   50.1261 C   0  0  0  0  0  0  0  0  0  0  0  0
   10.3336   45.4077   50.5295 N   0  0  0  0  0  0  0  0  0  0  0  0
   10.1607   46.2556   51.5536 C   0  0  0  0  0  3  0  0  0  0  0  0
    8.8548   46.3242   51.8044 N   0  0  0  0  0  0  0  0  0  0  0  0
    8.2086   45.5265   50.9460 C   0  0  0  0  0  0  0  0  0  0  0  0
    6.9171   45.2862   50.8298 C   0  0  0  0  0  0  0  0  0  0  0  0
    6.5146   44.3803   49.8119 N   0  0  0  0  0  0  0  0  0  0  0  0
    7.3726   42.2796   49.0267 N   0  0  0  0  0  0  0  0  0  0  0  0
    6.1824   41.6481   48.5522 C   0  0  0  0  0  0  0  0  0  0  0  0
    3.8331   40.4984   47.7887 C   0  0  0  0  0  0  0  0  0  0  0  0
    4.9454   40.3812   46.9640 C   0  0  0  0  0  3  0  0  0  0  0  0
    3.8775   41.1811   48.9885 C   0  0  0  0  0  0  0  0  0  0  0  0
    6.1415   40.9623   47.3450 C   0  0  0  0  0  3  0  0  0  0  0  0
    5.0648   41.7553   49.3620 C   0  0  0  0  0  3  0  0  0  0  0  0
    2.6621   39.9344   47.4247 F   0  0  0  0  0  0  0  0  0  0  0  0
    2.4820   41.3371   50.0394 Cl  0  0  0  0  0  0  0  0  0  0  0  0
    5.9419   45.8456   51.6174 O   0  0  0  0  0  0  0  0  0  0  0  0
    4.6801   45.2772   51.8925 C   0  0  0  0  0  2  0  0  0  0  0  0
    4.1233   46.0298   53.0821 C   0  0  0  0  0  3  0  0  0  0  0  0
    2.8634   46.7789   52.7945 C   0  0  0  0  0  2  0  0  0  0  0  0
    4.0473   45.1699   54.3252 C   0  0  0  0  0  2  0  0  0  0  0  0
    1.9695   46.9213   53.9988 C   0  0  0  0  0  2  0  0  0  0  0  0
    3.8455   46.1213   55.4876 C   0  0  0  0  0  2  0  0  0  0  0  0
    2.7098   47.0635   55.2796 C   0  0  0  0  0  2  0  0  0  0  0  0
  1 10  1  0
  2  1  1  0
  3  2  2  0
  4  3  1  0
  5  4  2  0
  6  5  1  0
  6  7  1  0
  7  8  2  0
  7  3  1  0
  8  9  1  0
  9  1  1  0
 11 10  1  0
 11 16  2  0
 12 14  2  0
 13 15  2  0
 13 12  1  0
 14 16  1  0
 14 18  1  0
 15 11  1  0
 17 12  1  0
 19 20  1  0
 19  8  1  0
 21 20  1  0
 21 22  1  0
 23 21  1  0
 24 22  1  0
 25 23  1  0
 25 26  1  0
 26 24  1  0
M  RAD  8   1   2   5   2  13   2  15   2  16   2  20   3  21   2  22   3
M  RAD  4  23   3  24   3  25   3  26   3
M  END
>  <REMARK>  (1) 
 SMILES Fc1ccc(Nc2nc3nc[nH]c3c(OCC3CCCCC3)[nH+]2)cc1Cl
 SMILES IDX 7 1 8 2 9 3 10 4 11 5 12 6 13 7 14 8 23 9 6 12 5 14 2 15
 SMILES IDX 3 16 25 17 4 18 24 19 1 20 26 21 15 22 16 23 17 24 18 25
 SMILES IDX 22 26 19 27 21 28 20 29
 H PARENT 12 10 23 11 6 13

>  <TORSDO>  (1) 
F 5

$$$$
