/home/pchatterjee/Documents/git/vs_workflow/DiffDock/diffdock_run/pdbqt_scrubbed/Z1526896036.pdbqt
     RDKit          3D

 24 26  0  0  1  0  0  0  0  0999 V2000
    6.0765   42.6912   49.3641 C   0  0  0  0  0  0  0  0  0  0  0  0
    6.0453   41.3383   49.1591 C   0  0  0  0  0  3  0  0  0  0  0  0
    4.8812   40.6627   49.3907 C   0  0  0  0  0  3  0  0  0  0  0  0
    3.7140   41.2991   49.8305 C   0  0  0  0  0  3  0  0  0  0  0  0
    3.7577   42.6864   50.0376 C   0  0  0  0  0  0  0  0  0  0  0  0
    4.9335   43.3518   49.8012 C   0  0  0  0  0  3  0  0  0  0  0  0
    7.2374   43.4727   49.1346 N   0  0  0  0  0  0  0  0  0  0  0  0
    7.7796   44.3960   50.0627 C   0  0  0  0  0  0  0  0  0  0  0  0
    9.5120   45.6167   50.9868 C   0  0  0  0  0  0  0  0  0  0  0  0
    8.6713   46.1651   51.9292 C   0  0  0  0  0  3  0  0  0  0  0  0
    9.0823   44.7312   50.0474 N   0  0  0  0  0  0  0  0  0  0  0  0
    7.3411   45.8020   51.9192 C   0  0  0  0  0  0  0  0  0  0  0  0
    6.9357   44.9156   50.9704 N   0  0  0  0  0  0  0  0  0  0  0  0
   10.9569   46.0325   51.0193 C   0  0  0  0  0  1  0  0  0  0  0  0
    6.3488   46.3349   52.8928 C   0  0  0  0  0  1  0  0  0  0  0  0
    2.5817   43.3512   50.4780 N   0  0  0  0  0  0  0  0  0  0  0  0
    1.5195   42.6167   51.1851 C   0  0  0  0  0  2  0  0  0  0  0  0
    2.3633   44.7694   50.2634 C   0  0  0  0  0  2  0  0  0  0  0  0
    1.1158   43.5470   52.3264 C   0  0  0  0  0  2  0  0  0  0  0  0
    2.5937   45.4519   51.6154 C   0  0  0  0  0  2  0  0  0  0  0  0
    2.2844   44.4362   52.6928 C   0  0  0  0  0  3  0  0  0  0  0  0
    1.9183   45.1820   53.9224 C   0  0  0  0  0  0  0  0  0  0  0  0
    0.5894   45.0639   54.4317 N   0  0  0  0  0  0  0  0  0  0  0  0
    2.7264   45.9225   54.5496 O   0  0  0  0  0  0  0  0  0  0  0  0
  1  2  2  0
  1  6  1  0
  2  3  1  0
  3  4  2  0
  5  4  1  0
  5 16  1  0
  6  5  2  0
  7  1  1  0
  8 13  1  0
  8  7  1  0
  9 10  2  0
  9 11  1  0
 10 12  1  0
 11  8  2  0
 12 15  1  0
 12 13  2  0
 14  9  1  0
 16 17  1  0
 17 19  1  0
 18 20  1  0
 18 16  1  0
 20 21  1  0
 21 22  1  0
 21 19  1  0
 22 24  2  0
 23 22  1  0
M  RAD  8   2   2   3   2   4   2   6   2  10   2  14   2  15   2  17   3
M  RAD  4  18   3  19   3  20   3  21   2
M  END
>  <REMARK>  (1) 
 SMILES Cc1cc(C)nc(Nc2cccc(N3CCC(C(N)=O)CC3)c2)n1
 SMILES IDX 9 1 10 2 11 3 12 4 13 5 23 6 8 7 7 9 2 10 3 11 24 12 4 13
 SMILES IDX 6 14 1 15 5 16 14 17 15 18 22 19 16 20 21 21 17 22 18 23
 SMILES IDX 19 24 20 25
 H PARENT 8 8 19 26 19 27

>  <TORSDO>  (1) 
F 4

$$$$
