/home/pchatterjee/Documents/git/vs_workflow/DiffDock/diffdock_run/pdbqt_scrubbed/Z1526896036.pdbqt
     RDKit          3D

 24 26  0  0  1  0  0  0  0  0999 V2000
    6.1688   42.2655   48.5152 C   0  0  0  0  0  0  0  0  0  0  0  0
    5.8854   41.5340   47.3937 C   0  0  0  0  0  3  0  0  0  0  0  0
    4.6713   40.9157   47.2989 C   0  0  0  0  0  3  0  0  0  0  0  0
    3.7010   40.9997   48.3048 C   0  0  0  0  0  3  0  0  0  0  0  0
    4.0026   41.7522   49.4504 C   0  0  0  0  0  0  0  0  0  0  0  0
    5.2257   42.3674   49.5322 C   0  0  0  0  0  3  0  0  0  0  0  0
    7.3976   42.9516   48.6903 N   0  0  0  0  0  0  0  0  0  0  0  0
    7.6347   43.9316   49.6859 C   0  0  0  0  0  0  0  0  0  0  0  0
    6.9558   45.4186   51.3210 C   0  0  0  0  0  0  0  0  0  0  0  0
    8.2532   45.8209   51.5450 C   0  0  0  0  0  3  0  0  0  0  0  0
    6.6298   44.4757   50.3956 N   0  0  0  0  0  0  0  0  0  0  0  0
    9.2615   45.2445   50.8017 C   0  0  0  0  0  0  0  0  0  0  0  0
    8.9106   44.3045   49.8833 N   0  0  0  0  0  0  0  0  0  0  0  0
    5.8766   46.0617   52.1477 C   0  0  0  0  0  1  0  0  0  0  0  0
   10.6963   45.6074   50.9641 C   0  0  0  0  0  1  0  0  0  0  0  0
    3.0285   41.8543   50.4796 N   0  0  0  0  0  0  0  0  0  0  0  0
    2.7868   43.1344   51.1657 C   0  0  0  0  0  2  0  0  0  0  0  0
    2.2258   40.7233   50.9059 C   0  0  0  0  0  2  0  0  0  0  0  0
    1.2662   43.2243   51.2679 C   0  0  0  0  0  2  0  0  0  0  0  0
    0.8279   40.9388   50.3175 C   0  0  0  0  0  2  0  0  0  0  0  0
    0.6350   42.4292   50.1454 C   0  0  0  0  0  3  0  0  0  0  0  0
   -0.8241   42.6991   50.1637 C   0  0  0  0  0  0  0  0  0  0  0  0
   -1.2953   43.9078   50.7605 N   0  0  0  0  0  0  0  0  0  0  0  0
   -1.6804   41.9102   49.6746 O   0  0  0  0  0  0  0  0  0  0  0  0
  1  2  2  0
  1  6  1  0
  2  3  1  0
  3  4  2  0
  5  4  1  0
  5 16  1  0
  6  5  2  0
  7  1  1  0
  8 13  1  0
  8  7  1  0
  9 10  2  0
  9 11  1  0
 10 12  1  0
 11  8  2  0
 12 15  1  0
 12 13  2  0
 14  9  1  0
 16 17  1  0
 17 19  1  0
 18 20  1  0
 18 16  1  0
 20 21  1  0
 21 22  1  0
 21 19  1  0
 22 24  2  0
 23 22  1  0
M  RAD  8   2   2   3   2   4   2   6   2  10   2  14   2  15   2  17   3
M  RAD  4  18   3  19   3  20   3  21   2
M  END
>  <REMARK>  (1) 
 SMILES Cc1cc(C)nc(Nc2cccc(N3CCC(C(N)=O)CC3)c2)n1
 SMILES IDX 9 1 10 2 11 3 12 4 13 5 23 6 8 7 7 9 2 10 3 11 24 12 4 13
 SMILES IDX 6 14 1 15 5 16 14 17 15 18 22 19 16 20 21 21 17 22 18 23
 SMILES IDX 19 24 20 25
 H PARENT 8 8 19 26 19 27

>  <TORSDO>  (1) 
F 4

$$$$
