/home/pchatterjee/Documents/git/vs_workflow/DiffDock/diffdock_run/pdbqt_scrubbed/Z1526896036.pdbqt
     RDKit          3D

 24 26  0  0  1  0  0  0  0  0999 V2000
    5.9983   42.5171   49.3264 C   0  0  0  0  0  0  0  0  0  0  0  0
    5.9153   41.1675   49.1149 C   0  0  0  0  0  3  0  0  0  0  0  0
    4.7230   40.5379   49.3318 C   0  0  0  0  0  3  0  0  0  0  0  0
    3.5777   41.2185   49.7627 C   0  0  0  0  0  3  0  0  0  0  0  0
    3.6744   42.6021   49.9766 C   0  0  0  0  0  0  0  0  0  0  0  0
    4.8782   43.2210   49.7551 C   0  0  0  0  0  3  0  0  0  0  0  0
    7.1917   43.2528   49.1122 N   0  0  0  0  0  0  0  0  0  0  0  0
    7.6437   44.3084   49.9424 C   0  0  0  0  0  0  0  0  0  0  0  0
    7.3488   45.9282   51.5656 C   0  0  0  0  0  0  0  0  0  0  0  0
    8.6580   46.3372   51.4469 C   0  0  0  0  0  3  0  0  0  0  0  0
    6.8264   44.9160   50.8211 N   0  0  0  0  0  0  0  0  0  0  0  0
    9.4712   45.6946   50.5373 C   0  0  0  0  0  0  0  0  0  0  0  0
    8.9261   44.6861   49.8053 N   0  0  0  0  0  0  0  0  0  0  0  0
    6.4854   46.6446   52.5671 C   0  0  0  0  0  1  0  0  0  0  0  0
   10.9000   46.0583   50.3300 C   0  0  0  0  0  1  0  0  0  0  0  0
    2.5215   43.3114   50.4081 N   0  0  0  0  0  0  0  0  0  0  0  0
    1.3340   42.5934   50.9004 C   0  0  0  0  0  2  0  0  0  0  0  0
    2.4485   44.7604   50.3925 C   0  0  0  0  0  2  0  0  0  0  0  0
    0.8984   43.3871   52.1297 C   0  0  0  0  0  2  0  0  0  0  0  0
    2.5988   45.2167   51.8472 C   0  0  0  0  0  2  0  0  0  0  0  0
    2.0959   44.0938   52.7271 C   0  0  0  0  0  3  0  0  0  0  0  0
    1.6728   44.6894   54.0187 C   0  0  0  0  0  0  0  0  0  0  0  0
    0.6924   44.0102   54.8041 N   0  0  0  0  0  0  0  0  0  0  0  0
    2.1378   45.7751   54.4661 O   0  0  0  0  0  0  0  0  0  0  0  0
  1  2  2  0
  1  6  1  0
  2  3  1  0
  3  4  2  0
  5  4  1  0
  5 16  1  0
  6  5  2  0
  7  1  1  0
  8 13  1  0
  8  7  1  0
  9 10  2  0
  9 11  1  0
 10 12  1  0
 11  8  2  0
 12 15  1  0
 12 13  2  0
 14  9  1  0
 16 17  1  0
 17 19  1  0
 18 20  1  0
 18 16  1  0
 20 21  1  0
 21 22  1  0
 21 19  1  0
 22 24  2  0
 23 22  1  0
M  RAD  8   2   2   3   2   4   2   6   2  10   2  14   2  15   2  17   3
M  RAD  4  18   3  19   3  20   3  21   2
M  END
>  <REMARK>  (1) 
 SMILES Cc1cc(C)nc(Nc2cccc(N3CCC(C(N)=O)CC3)c2)n1
 SMILES IDX 9 1 10 2 11 3 12 4 13 5 23 6 8 7 7 9 2 10 3 11 24 12 4 13
 SMILES IDX 6 14 1 15 5 16 14 17 15 18 22 19 16 20 21 21 17 22 18 23
 SMILES IDX 19 24 20 25
 H PARENT 8 8 19 26 19 27

>  <TORSDO>  (1) 
F 4

$$$$
