/home/pchatterjee/Documents/git/vs_workflow/DiffDock/diffdock_run/pdbqt_scrubbed/Z1526896036.pdbqt
     RDKit          3D

 24 26  0  0  1  0  0  0  0  0999 V2000
   13.1941   64.7268   83.9269 C   0  0  0  0  0  0  0  0  0  0  0  0
   14.5485   64.8070   83.7474 C   0  0  0  0  0  3  0  0  0  0  0  0
   15.3496   63.8774   84.3468 C   0  0  0  0  0  3  0  0  0  0  0  0
   14.8408   62.8417   85.1399 C   0  0  0  0  0  3  0  0  0  0  0  0
   13.4505   62.7693   85.3172 C   0  0  0  0  0  0  0  0  0  0  0  0
   12.6584   63.7098   84.7096 C   0  0  0  0  0  3  0  0  0  0  0  0
   12.2882   65.6404   83.3303 N   0  0  0  0  0  0  0  0  0  0  0  0
   12.6735   66.8054   82.6216 C   0  0  0  0  0  0  0  0  0  0  0  0
   14.2319   68.3199   81.8325 C   0  0  0  0  0  0  0  0  0  0  0  0
   13.2473   69.0834   81.2469 C   0  0  0  0  0  3  0  0  0  0  0  0
   13.9620   67.1790   82.5230 N   0  0  0  0  0  0  0  0  0  0  0  0
   11.9358   68.6743   81.3653 C   0  0  0  0  0  0  0  0  0  0  0  0
   11.6914   67.5306   82.0599 N   0  0  0  0  0  0  0  0  0  0  0  0
   15.6535   68.7882   81.6853 C   0  0  0  0  0  1  0  0  0  0  0  0
   10.7961   69.4259   80.7712 C   0  0  0  0  0  1  0  0  0  0  0  0
   12.9146   61.7219   86.1136 N   0  0  0  0  0  0  0  0  0  0  0  0
   13.7983   60.8362   86.8899 C   0  0  0  0  0  2  0  0  0  0  0  0
   11.4891   61.4694   86.2100 C   0  0  0  0  0  2  0  0  0  0  0  0
   13.0986   60.6971   88.2397 C   0  0  0  0  0  2  0  0  0  0  0  0
   11.0486   61.9938   87.5803 C   0  0  0  0  0  2  0  0  0  0  0  0
   12.2486   61.9223   88.4984 C   0  0  0  0  0  3  0  0  0  0  0  0
   11.7447   61.8382   89.8916 C   0  0  0  0  0  0  0  0  0  0  0  0
   11.6456   60.5567   90.5139 N   0  0  0  0  0  0  0  0  0  0  0  0
   11.3958   62.8486   90.5640 O   0  0  0  0  0  0  0  0  0  0  0  0
  1  2  2  0
  1  6  1  0
  2  3  1  0
  3  4  2  0
  5  4  1  0
  5 16  1  0
  6  5  2  0
  7  1  1  0
  8 13  1  0
  8  7  1  0
  9 10  2  0
  9 11  1  0
 10 12  1  0
 11  8  2  0
 12 15  1  0
 12 13  2  0
 14  9  1  0
 16 17  1  0
 17 19  1  0
 18 20  1  0
 18 16  1  0
 20 21  1  0
 21 22  1  0
 21 19  1  0
 22 24  2  0
 23 22  1  0
M  RAD  8   2   2   3   2   4   2   6   2  10   2  14   2  15   2  17   3
M  RAD  4  18   3  19   3  20   3  21   2
M  END
>  <REMARK>  (1) 
 SMILES Cc1cc(C)nc(Nc2cccc(N3CCC(C(N)=O)CC3)c2)n1
 SMILES IDX 9 1 10 2 11 3 12 4 13 5 23 6 8 7 7 9 2 10 3 11 24 12 4 13
 SMILES IDX 6 14 1 15 5 16 14 17 15 18 22 19 16 20 21 21 17 22 18 23
 SMILES IDX 19 24 20 25
 H PARENT 8 8 19 26 19 27

>  <TORSDO>  (1) 
F 4

$$$$
