/home/pchatterjee/Documents/git/vs_workflow/DiffDock/diffdock_run/pdbqt_scrubbed/Z1526896036.pdbqt
     RDKit          3D

 24 26  0  0  1  0  0  0  0  0999 V2000
    6.1583   42.3993   49.0154 C   0  0  0  0  0  0  0  0  0  0  0  0
    5.7271   41.8613   47.8331 C   0  0  0  0  0  3  0  0  0  0  0  0
    4.4479   41.3902   47.7504 C   0  0  0  0  0  3  0  0  0  0  0  0
    3.5560   41.4352   48.8288 C   0  0  0  0  0  3  0  0  0  0  0  0
    4.0090   41.9887   50.0363 C   0  0  0  0  0  0  0  0  0  0  0  0
    5.2960   42.4577   50.1049 C   0  0  0  0  0  3  0  0  0  0  0  0
    7.4646   42.9247   49.1850 N   0  0  0  0  0  0  0  0  0  0  0  0
    7.8064   43.9422   50.1102 C   0  0  0  0  0  0  0  0  0  0  0  0
    7.2926   45.6188   51.6169 C   0  0  0  0  0  0  0  0  0  0  0  0
    8.6263   45.8798   51.8370 C   0  0  0  0  0  3  0  0  0  0  0  0
    6.8662   44.6542   50.7572 N   0  0  0  0  0  0  0  0  0  0  0  0
    9.5664   45.1329   51.1589 C   0  0  0  0  0  0  0  0  0  0  0  0
    9.1156   44.1745   50.3054 N   0  0  0  0  0  0  0  0  0  0  0  0
    6.2892   46.4466   52.3717 C   0  0  0  0  0  1  0  0  0  0  0  0
   11.0325   45.3337   51.3233 C   0  0  0  0  0  1  0  0  0  0  0  0
    3.1167   42.0488   51.1403 N   0  0  0  0  0  0  0  0  0  0  0  0
    3.5104   42.7136   52.3937 C   0  0  0  0  0  2  0  0  0  0  0  0
    1.7863   41.4714   51.0975 C   0  0  0  0  0  2  0  0  0  0  0  0
    2.2756   43.5154   52.7972 C   0  0  0  0  0  2  0  0  0  0  0  0
    0.8107   42.6433   50.9500 C   0  0  0  0  0  2  0  0  0  0  0  0
    1.4690   43.8591   51.5636 C   0  0  0  0  0  3  0  0  0  0  0  0
    0.3927   44.7954   51.9722 C   0  0  0  0  0  0  0  0  0  0  0  0
   -0.9244   44.2846   52.1813 N   0  0  0  0  0  0  0  0  0  0  0  0
    0.5802   46.0320   52.1474 O   0  0  0  0  0  0  0  0  0  0  0  0
  1  2  2  0
  1  6  1  0
  2  3  1  0
  3  4  2  0
  5  4  1  0
  5 16  1  0
  6  5  2  0
  7  1  1  0
  8 13  1  0
  8  7  1  0
  9 10  2  0
  9 11  1  0
 10 12  1  0
 11  8  2  0
 12 15  1  0
 12 13  2  0
 14  9  1  0
 16 17  1  0
 17 19  1  0
 18 20  1  0
 18 16  1  0
 20 21  1  0
 21 22  1  0
 21 19  1  0
 22 24  2  0
 23 22  1  0
M  RAD  8   2   2   3   2   4   2   6   2  10   2  14   2  15   2  17   3
M  RAD  4  18   3  19   3  20   3  21   2
M  END
>  <REMARK>  (1) 
 SMILES Cc1cc(C)nc(Nc2cccc(N3CCC(C(N)=O)CC3)c2)n1
 SMILES IDX 9 1 10 2 11 3 12 4 13 5 23 6 8 7 7 9 2 10 3 11 24 12 4 13
 SMILES IDX 6 14 1 15 5 16 14 17 15 18 22 19 16 20 21 21 17 22 18 23
 SMILES IDX 19 24 20 25
 H PARENT 8 8 19 26 19 27

>  <TORSDO>  (1) 
F 4

$$$$
