/home/pchatterjee/Documents/git/vs_workflow/DiffDock/diffdock_run/pdbqt_scrubbed/Z1526896036.pdbqt
     RDKit          3D

 24 26  0  0  1  0  0  0  0  0999 V2000
    5.8416   42.2680   48.9776 C   0  0  0  0  0  0  0  0  0  0  0  0
    5.3868   41.6262   47.8576 C   0  0  0  0  0  3  0  0  0  0  0  0
    4.1397   41.0699   47.8768 C   0  0  0  0  0  3  0  0  0  0  0  0
    3.3039   41.1295   48.9986 C   0  0  0  0  0  3  0  0  0  0  0  0
    3.7806   41.7899   50.1414 C   0  0  0  0  0  0  0  0  0  0  0  0
    5.0351   42.3436   50.1080 C   0  0  0  0  0  3  0  0  0  0  0  0
    7.1166   42.8859   49.0403 N   0  0  0  0  0  0  0  0  0  0  0  0
    7.4614   43.9252   49.9396 C   0  0  0  0  0  0  0  0  0  0  0  0
    6.9692   45.5032   51.5561 C   0  0  0  0  0  0  0  0  0  0  0  0
    8.2789   45.9260   51.5939 C   0  0  0  0  0  3  0  0  0  0  0  0
    6.5444   44.5048   50.7351 N   0  0  0  0  0  0  0  0  0  0  0  0
    9.1956   45.3122   50.7666 C   0  0  0  0  0  0  0  0  0  0  0  0
    8.7468   44.3169   49.9554 N   0  0  0  0  0  0  0  0  0  0  0  0
    5.9916   46.1882   52.4708 C   0  0  0  0  0  1  0  0  0  0  0  0
   10.6345   45.6928   50.7287 C   0  0  0  0  0  1  0  0  0  0  0  0
    2.9448   41.8663   51.2878 N   0  0  0  0  0  0  0  0  0  0  0  0
    3.2074   42.8526   52.3490 C   0  0  0  0  0  2  0  0  0  0  0  0
    1.8008   40.9939   51.4758 C   0  0  0  0  0  2  0  0  0  0  0  0
    1.8275   43.4047   52.6980 C   0  0  0  0  0  2  0  0  0  0  0  0
    0.5579   41.8433   51.1918 C   0  0  0  0  0  2  0  0  0  0  0  0
    0.9139   43.2812   51.4978 C   0  0  0  0  0  3  0  0  0  0  0  0
   -0.3461   43.9996   51.8116 C   0  0  0  0  0  0  0  0  0  0  0  0
   -1.1970   43.4857   52.8370 N   0  0  0  0  0  0  0  0  0  0  0  0
   -0.7103   45.0517   51.2157 O   0  0  0  0  0  0  0  0  0  0  0  0
  1  2  2  0
  1  6  1  0
  2  3  1  0
  3  4  2  0
  5  4  1  0
  5 16  1  0
  6  5  2  0
  7  1  1  0
  8 13  1  0
  8  7  1  0
  9 10  2  0
  9 11  1  0
 10 12  1  0
 11  8  2  0
 12 15  1  0
 12 13  2  0
 14  9  1  0
 16 17  1  0
 17 19  1  0
 18 20  1  0
 18 16  1  0
 20 21  1  0
 21 22  1  0
 21 19  1  0
 22 24  2  0
 23 22  1  0
M  RAD  8   2   2   3   2   4   2   6   2  10   2  14   2  15   2  17   3
M  RAD  4  18   3  19   3  20   3  21   2
M  END
>  <REMARK>  (1) 
 SMILES Cc1cc(C)nc(Nc2cccc(N3CCC(C(N)=O)CC3)c2)n1
 SMILES IDX 9 1 10 2 11 3 12 4 13 5 23 6 8 7 7 9 2 10 3 11 24 12 4 13
 SMILES IDX 6 14 1 15 5 16 14 17 15 18 22 19 16 20 21 21 17 22 18 23
 SMILES IDX 19 24 20 25
 H PARENT 8 8 19 26 19 27

>  <TORSDO>  (1) 
F 4

$$$$
