/home/pchatterjee/Documents/git/vs_workflow/DiffDock/diffdock_run/pdbqt_scrubbed/Z1526896036.pdbqt
     RDKit          3D

 24 26  0  0  1  0  0  0  0  0999 V2000
    6.0428   42.1726   48.4495 C   0  0  0  0  0  0  0  0  0  0  0  0
    5.6690   41.5207   47.3057 C   0  0  0  0  0  3  0  0  0  0  0  0
    4.4552   40.8959   47.2692 C   0  0  0  0  0  3  0  0  0  0  0  0
    3.5740   40.8948   48.3573 C   0  0  0  0  0  3  0  0  0  0  0  0
    3.9678   41.5661   49.5251 C   0  0  0  0  0  0  0  0  0  0  0  0
    5.1896   42.1890   49.5476 C   0  0  0  0  0  3  0  0  0  0  0  0
    7.2778   42.8594   48.5695 N   0  0  0  0  0  0  0  0  0  0  0  0
    7.5798   43.7953   49.5896 C   0  0  0  0  0  0  0  0  0  0  0  0
    7.0263   45.1348   51.3910 C   0  0  0  0  0  0  0  0  0  0  0  0
    8.3140   45.6144   51.4765 C   0  0  0  0  0  3  0  0  0  0  0  0
    6.6431   44.2257   50.4539 N   0  0  0  0  0  0  0  0  0  0  0  0
    9.2517   45.1540   50.5765 C   0  0  0  0  0  0  0  0  0  0  0  0
    8.8446   44.2456   49.6496 N   0  0  0  0  0  0  0  0  0  0  0  0
    6.0250   45.6519   52.3869 C   0  0  0  0  0  1  0  0  0  0  0  0
   10.6698   45.6075   50.5812 C   0  0  0  0  0  1  0  0  0  0  0  0
    3.0847   41.5815   50.6380 N   0  0  0  0  0  0  0  0  0  0  0  0
    3.1000   42.6974   51.5984 C   0  0  0  0  0  2  0  0  0  0  0  0
    2.1296   40.5181   50.8879 C   0  0  0  0  0  2  0  0  0  0  0  0
    1.6242   42.9903   51.8570 C   0  0  0  0  0  2  0  0  0  0  0  0
    0.7563   41.0679   50.4897 C   0  0  0  0  0  2  0  0  0  0  0  0
    0.8060   42.5706   50.6550 C   0  0  0  0  0  3  0  0  0  0  0  0
   -0.5839   43.0464   50.8643 C   0  0  0  0  0  0  0  0  0  0  0  0
   -1.0198   43.3427   52.1916 N   0  0  0  0  0  0  0  0  0  0  0  0
   -1.4105   43.2058   49.9229 O   0  0  0  0  0  0  0  0  0  0  0  0
  1  2  2  0
  1  6  1  0
  2  3  1  0
  3  4  2  0
  5  4  1  0
  5 16  1  0
  6  5  2  0
  7  1  1  0
  8 13  1  0
  8  7  1  0
  9 10  2  0
  9 11  1  0
 10 12  1  0
 11  8  2  0
 12 15  1  0
 12 13  2  0
 14  9  1  0
 16 17  1  0
 17 19  1  0
 18 20  1  0
 18 16  1  0
 20 21  1  0
 21 22  1  0
 21 19  1  0
 22 24  2  0
 23 22  1  0
M  RAD  8   2   2   3   2   4   2   6   2  10   2  14   2  15   2  17   3
M  RAD  4  18   3  19   3  20   3  21   2
M  END
>  <REMARK>  (1) 
 SMILES Cc1cc(C)nc(Nc2cccc(N3CCC(C(N)=O)CC3)c2)n1
 SMILES IDX 9 1 10 2 11 3 12 4 13 5 23 6 8 7 7 9 2 10 3 11 24 12 4 13
 SMILES IDX 6 14 1 15 5 16 14 17 15 18 22 19 16 20 21 21 17 22 18 23
 SMILES IDX 19 24 20 25
 H PARENT 8 8 19 26 19 27

>  <TORSDO>  (1) 
F 4

$$$$
