/home/pchatterjee/Documents/git/vs_workflow/DiffDock/diffdock_run/pdbqt_scrubbed/Z1526896036.pdbqt
     RDKit          3D

 24 26  0  0  1  0  0  0  0  0999 V2000
    6.0424   42.5535   49.4183 C   0  0  0  0  0  0  0  0  0  0  0  0
    5.9433   41.1995   49.2446 C   0  0  0  0  0  3  0  0  0  0  0  0
    4.7485   40.5878   49.4966 C   0  0  0  0  0  3  0  0  0  0  0  0
    3.6166   41.2910   49.9265 C   0  0  0  0  0  3  0  0  0  0  0  0
    3.7298   42.6789   50.1014 C   0  0  0  0  0  0  0  0  0  0  0  0
    4.9358   43.2797   49.8449 C   0  0  0  0  0  3  0  0  0  0  0  0
    7.2392   43.2712   49.1661 N   0  0  0  0  0  0  0  0  0  0  0  0
    7.8505   44.1603   50.0845 C   0  0  0  0  0  0  0  0  0  0  0  0
    9.6528   45.3348   50.9316 C   0  0  0  0  0  0  0  0  0  0  0  0
    8.8805   45.8629   51.9416 C   0  0  0  0  0  3  0  0  0  0  0  0
    9.1535   44.4826   49.9958 N   0  0  0  0  0  0  0  0  0  0  0  0
    7.5481   45.5137   52.0061 C   0  0  0  0  0  0  0  0  0  0  0  0
    7.0724   44.6607   51.0593 N   0  0  0  0  0  0  0  0  0  0  0  0
   11.1018   45.7348   50.8838 C   0  0  0  0  0  1  0  0  0  0  0  0
    6.6262   46.0269   53.0565 C   0  0  0  0  0  1  0  0  0  0  0  0
    2.5905   43.4109   50.5312 N   0  0  0  0  0  0  0  0  0  0  0  0
    1.4373   42.7250   51.1376 C   0  0  0  0  0  2  0  0  0  0  0  0
    2.4988   44.8533   50.4032 C   0  0  0  0  0  2  0  0  0  0  0  0
    1.0522   43.6115   52.3194 C   0  0  0  0  0  2  0  0  0  0  0  0
    2.7140   45.4266   51.8074 C   0  0  0  0  0  2  0  0  0  0  0  0
    2.2685   44.3741   52.7983 C   0  0  0  0  0  3  0  0  0  0  0  0
    1.9013   45.0683   54.0574 C   0  0  0  0  0  0  0  0  0  0  0  0
    0.7002   44.6889   54.7301 N   0  0  0  0  0  0  0  0  0  0  0  0
    2.6008   45.9853   54.5720 O   0  0  0  0  0  0  0  0  0  0  0  0
  1  2  2  0
  1  6  1  0
  2  3  1  0
  3  4  2  0
  5  4  1  0
  5 16  1  0
  6  5  2  0
  7  1  1  0
  8 13  1  0
  8  7  1  0
  9 10  2  0
  9 11  1  0
 10 12  1  0
 11  8  2  0
 12 15  1  0
 12 13  2  0
 14  9  1  0
 16 17  1  0
 17 19  1  0
 18 20  1  0
 18 16  1  0
 20 21  1  0
 21 22  1  0
 21 19  1  0
 22 24  2  0
 23 22  1  0
M  RAD  8   2   2   3   2   4   2   6   2  10   2  14   2  15   2  17   3
M  RAD  4  18   3  19   3  20   3  21   2
M  END
>  <REMARK>  (1) 
 SMILES Cc1cc(C)nc(Nc2cccc(N3CCC(C(N)=O)CC3)c2)n1
 SMILES IDX 9 1 10 2 11 3 12 4 13 5 23 6 8 7 7 9 2 10 3 11 24 12 4 13
 SMILES IDX 6 14 1 15 5 16 14 17 15 18 22 19 16 20 21 21 17 22 18 23
 SMILES IDX 19 24 20 25
 H PARENT 8 8 19 26 19 27

>  <TORSDO>  (1) 
F 4

$$$$
