/home/pchatterjee/Documents/git/vs_workflow/DiffDock/diffdock_run/pdbqt_scrubbed/Z1526896036.pdbqt
     RDKit          3D

 24 26  0  0  1  0  0  0  0  0999 V2000
    6.1204   42.1045   48.6718 C   0  0  0  0  0  0  0  0  0  0  0  0
    5.7910   41.3105   47.6068 C   0  0  0  0  0  3  0  0  0  0  0  0
    4.5449   40.7535   47.5596 C   0  0  0  0  0  3  0  0  0  0  0  0
    3.5868   40.9622   48.5591 C   0  0  0  0  0  3  0  0  0  0  0  0
    3.9355   41.7779   49.6465 C   0  0  0  0  0  0  0  0  0  0  0  0
    5.1904   42.3303   49.6808 C   0  0  0  0  0  3  0  0  0  0  0  0
    7.3853   42.7339   48.7940 N   0  0  0  0  0  0  0  0  0  0  0  0
    7.6834   43.7628   49.7216 C   0  0  0  0  0  0  0  0  0  0  0  0
    7.1016   45.3682   51.2802 C   0  0  0  0  0  0  0  0  0  0  0  0
    8.4177   45.7369   51.4455 C   0  0  0  0  0  3  0  0  0  0  0  0
    6.7180   44.3839   50.4227 N   0  0  0  0  0  0  0  0  0  0  0  0
    9.3846   45.0814   50.7127 C   0  0  0  0  0  0  0  0  0  0  0  0
    8.9763   44.1012   49.8627 N   0  0  0  0  0  0  0  0  0  0  0  0
    6.0686   46.0978   52.0940 C   0  0  0  0  0  1  0  0  0  0  0  0
   10.8349   45.4021   50.8154 C   0  0  0  0  0  1  0  0  0  0  0  0
    2.9746   42.0066   50.6679 N   0  0  0  0  0  0  0  0  0  0  0  0
    2.6608   43.3733   51.1166 C   0  0  0  0  0  2  0  0  0  0  0  0
    2.2559   40.9255   51.3158 C   0  0  0  0  0  2  0  0  0  0  0  0
    1.1396   43.3862   51.2449 C   0  0  0  0  0  2  0  0  0  0  0  0
    0.8369   40.9427   50.7388 C   0  0  0  0  0  2  0  0  0  0  0  0
    0.5430   42.3615   50.3044 C   0  0  0  0  0  3  0  0  0  0  0  0
   -0.9302   42.5395   50.3157 C   0  0  0  0  0  0  0  0  0  0  0  0
   -1.4819   43.6897   50.9576 N   0  0  0  0  0  0  0  0  0  0  0  0
   -1.7307   41.7211   49.7825 O   0  0  0  0  0  0  0  0  0  0  0  0
  1  2  2  0
  1  6  1  0
  2  3  1  0
  3  4  2  0
  5  4  1  0
  5 16  1  0
  6  5  2  0
  7  1  1  0
  8 13  1  0
  8  7  1  0
  9 10  2  0
  9 11  1  0
 10 12  1  0
 11  8  2  0
 12 15  1  0
 12 13  2  0
 14  9  1  0
 16 17  1  0
 17 19  1  0
 18 20  1  0
 18 16  1  0
 20 21  1  0
 21 22  1  0
 21 19  1  0
 22 24  2  0
 23 22  1  0
M  RAD  8   2   2   3   2   4   2   6   2  10   2  14   2  15   2  17   3
M  RAD  4  18   3  19   3  20   3  21   2
M  END
>  <REMARK>  (1) 
 SMILES Cc1cc(C)nc(Nc2cccc(N3CCC(C(N)=O)CC3)c2)n1
 SMILES IDX 9 1 10 2 11 3 12 4 13 5 23 6 8 7 7 9 2 10 3 11 24 12 4 13
 SMILES IDX 6 14 1 15 5 16 14 17 15 18 22 19 16 20 21 21 17 22 18 23
 SMILES IDX 19 24 20 25
 H PARENT 8 8 19 26 19 27

>  <TORSDO>  (1) 
F 4

$$$$
