/home/pchatterjee/Documents/git/vs_workflow/DiffDock/diffdock_run/pdbqt_scrubbed/Z1526896036.pdbqt
     RDKit          3D

 24 26  0  0  1  0  0  0  0  0999 V2000
    6.0732   42.1473   49.6544 C   0  0  0  0  0  0  0  0  0  0  0  0
    5.8284   40.8262   49.3939 C   0  0  0  0  0  3  0  0  0  0  0  0
    4.5467   40.3629   49.4822 C   0  0  0  0  0  3  0  0  0  0  0  0
    3.4688   41.1866   49.8291 C   0  0  0  0  0  3  0  0  0  0  0  0
    3.7316   42.5394   50.0942 C   0  0  0  0  0  0  0  0  0  0  0  0
    5.0235   42.9907   50.0019 C   0  0  0  0  0  3  0  0  0  0  0  0
    7.3700   42.7153   49.5721 N   0  0  0  0  0  0  0  0  0  0  0  0
    7.8275   43.7907   50.3735 C   0  0  0  0  0  0  0  0  0  0  0  0
    7.5093   45.5816   51.8007 C   0  0  0  0  0  0  0  0  0  0  0  0
    8.8622   45.8330   51.8455 C   0  0  0  0  0  3  0  0  0  0  0  0
    6.9762   44.5652   51.0699 N   0  0  0  0  0  0  0  0  0  0  0  0
    9.7095   45.0215   51.1209 C   0  0  0  0  0  0  0  0  0  0  0  0
    9.1527   44.0122   50.3986 N   0  0  0  0  0  0  0  0  0  0  0  0
    6.6090   46.4805   52.6026 C   0  0  0  0  0  1  0  0  0  0  0  0
   11.1866   45.2065   51.0996 C   0  0  0  0  0  1  0  0  0  0  0  0
    2.6500   43.3926   50.4418 N   0  0  0  0  0  0  0  0  0  0  0  0
    1.2821   42.8631   50.5703 C   0  0  0  0  0  2  0  0  0  0  0  0
    2.8268   44.8112   50.6897 C   0  0  0  0  0  2  0  0  0  0  0  0
    0.7383   43.5300   51.8313 C   0  0  0  0  0  2  0  0  0  0  0  0
    2.7433   44.9987   52.2078 C   0  0  0  0  0  2  0  0  0  0  0  0
    1.8854   43.8793   52.7547 C   0  0  0  0  0  3  0  0  0  0  0  0
    1.3072   44.3427   54.0404 C   0  0  0  0  0  0  0  0  0  0  0  0
    0.2438   43.5932   54.6293 N   0  0  0  0  0  0  0  0  0  0  0  0
    1.7089   45.3740   54.6487 O   0  0  0  0  0  0  0  0  0  0  0  0
  1  2  2  0
  1  6  1  0
  2  3  1  0
  3  4  2  0
  5  4  1  0
  5 16  1  0
  6  5  2  0
  7  1  1  0
  8 13  1  0
  8  7  1  0
  9 10  2  0
  9 11  1  0
 10 12  1  0
 11  8  2  0
 12 15  1  0
 12 13  2  0
 14  9  1  0
 16 17  1  0
 17 19  1  0
 18 20  1  0
 18 16  1  0
 20 21  1  0
 21 22  1  0
 21 19  1  0
 22 24  2  0
 23 22  1  0
M  RAD  8   2   2   3   2   4   2   6   2  10   2  14   2  15   2  17   3
M  RAD  4  18   3  19   3  20   3  21   2
M  END
>  <REMARK>  (1) 
 SMILES Cc1cc(C)nc(Nc2cccc(N3CCC(C(N)=O)CC3)c2)n1
 SMILES IDX 9 1 10 2 11 3 12 4 13 5 23 6 8 7 7 9 2 10 3 11 24 12 4 13
 SMILES IDX 6 14 1 15 5 16 14 17 15 18 22 19 16 20 21 21 17 22 18 23
 SMILES IDX 19 24 20 25
 H PARENT 8 8 19 26 19 27

>  <TORSDO>  (1) 
F 4

$$$$
