/home/pchatterjee/Documents/git/vs_workflow/DiffDock/diffdock_run/pdbqt_scrubbed/149664.pdbqt
     RDKit          3D

 22 24  0  0  1  0  0  0  0  0999 V2000
    3.5322   40.4079   48.9776 C   0  0  0  0  0  0  0  0  0  0  0  0
    3.8308   41.1154   50.1159 C   0  0  0  0  0  3  0  0  0  0  0  0
    5.0215   41.8053   50.1811 C   0  0  0  0  0  3  0  0  0  0  0  0
    5.9083   41.8006   49.1413 C   0  0  0  0  0  0  0  0  0  0  0  0
    5.5924   41.0865   48.0094 C   0  0  0  0  0  3  0  0  0  0  0  0
    4.4150   40.3962   47.9277 C   0  0  0  0  0  3  0  0  0  0  0  0
    2.2382   39.6730   48.9379 C   0  0  0  0  0  2  0  0  0  0  0  0
    1.1806   40.5490   48.2621 C   0  0  0  0  0  2  0  0  0  0  0  0
   -0.1065   39.7490   48.2049 C   0  0  0  0  0  2  0  0  0  0  0  0
   -1.2060   40.4664   48.9588 C   0  0  0  0  0  1  0  0  0  0  0  0
    7.1255   42.5405   49.2809 N   0  0  0  0  0  0  0  0  0  0  0  0
    7.2148   43.9264   48.8639 C   0  0  0  0  0  3  0  0  0  0  0  0
    6.4509   44.7893   49.7459 N   0  0  0  0  0  0  0  0  0  0  0  0
    8.5913   44.4089   48.8364 N   0  0  0  0  0  0  0  0  0  0  0  0
    6.9723   45.2055   50.8292 C   0  0  0  0  0  0  0  0  0  0  0  0
    9.1765   44.8326   49.9004 C   0  0  0  0  0  0  0  0  0  0  0  0
    8.3493   44.7948   51.1586 C   0  0  0  0  0  3  0  0  0  0  0  0
   10.4193   45.3523   50.2897 N   0  0  0  0  0  0  0  0  0  0  0  0
    9.0163   45.8259   51.9665 N   0  0  0  0  0  0  0  0  0  0  0  0
   10.3591   45.9236   51.4613 C   0  0  0  0  0  3  0  0  0  0  0  0
    6.2486   46.0327   51.6811 O   0  0  0  0  0  0  0  0  0  0  0  0
    4.8480   45.8396   51.8292 C   0  0  0  0  0  1  0  0  0  0  0  0
  1  6  2  0
  2  1  1  0
  2  3  2  0
  3  4  1  0
  4  5  2  0
  4 11  1  0
  6  5  1  0
  7  8  1  0
  7  1  1  0
  9 10  1  0
  9  8  1  0
 12 11  1  0
 12 13  1  0
 13 15  2  0
 14 16  2  0
 14 12  1  0
 15 21  1  0
 17 16  1  0
 17 15  1  0
 18 20  2  0
 18 16  1  0
 19 17  1  0
 20 19  1  0
 21 22  1  0
M  RAD  8   2   2   3   2   5   2   6   2   7   3   8   3   9   3  10   2
M  RAD  4  12   2  17   2  20   2  22   2
M  END
>  <REMARK>  (1) 
 SMILES CCCCc1ccc(Nc2nc(OC)c3[nH]cnc3n2)cc1
 SMILES IDX 5 1 6 2 7 3 8 4 21 5 22 6 4 7 3 8 2 9 1 10 9 11 10 13 11 14
 SMILES IDX 20 15 12 16 19 17 15 18 18 19 16 20 17 21 13 23 14 24
 H PARENT 9 12 16 22

>  <TORSDO>  (1) 
F 6

$$$$
