/home/pchatterjee/Documents/git/vs_workflow/DiffDock/diffdock_run/pdbqt_scrubbed/149664.pdbqt
     RDKit          3D

 22 24  0  0  1  0  0  0  0  0999 V2000
    3.4737   40.5980   48.7829 C   0  0  0  0  0  0  0  0  0  0  0  0
    4.3833   40.6747   47.7573 C   0  0  0  0  0  3  0  0  0  0  0  0
    5.5736   41.3358   47.9674 C   0  0  0  0  0  3  0  0  0  0  0  0
    5.8673   41.9145   49.1702 C   0  0  0  0  0  0  0  0  0  0  0  0
    4.9443   41.8276   50.1858 C   0  0  0  0  0  3  0  0  0  0  0  0
    3.7580   41.1753   49.9945 C   0  0  0  0  0  3  0  0  0  0  0  0
    2.1971   39.8771   48.5246 C   0  0  0  0  0  2  0  0  0  0  0  0
    1.0303   40.8616   48.6340 C   0  0  0  0  0  2  0  0  0  0  0  0
   -0.2524   40.0700   48.4667 C   0  0  0  0  0  2  0  0  0  0  0  0
   -1.4215   41.0044   48.2385 C   0  0  0  0  0  1  0  0  0  0  0  0
    7.1238   42.5845   49.3149 N   0  0  0  0  0  0  0  0  0  0  0  0
    7.2842   43.9730   48.9291 C   0  0  0  0  0  3  0  0  0  0  0  0
    6.4452   44.8410   49.7347 N   0  0  0  0  0  0  0  0  0  0  0  0
    8.6644   44.4277   49.0580 N   0  0  0  0  0  0  0  0  0  0  0  0
    6.8534   45.2340   50.8739 C   0  0  0  0  0  0  0  0  0  0  0  0
    9.1382   44.8271   50.1850 C   0  0  0  0  0  0  0  0  0  0  0  0
    8.1783   44.7916   51.3452 C   0  0  0  0  0  3  0  0  0  0  0  0
   10.3407   45.3169   50.7141 N   0  0  0  0  0  0  0  0  0  0  0  0
    8.7728   45.7995   52.2348 N   0  0  0  0  0  0  0  0  0  0  0  0
   10.1642   45.8758   51.8799 C   0  0  0  0  0  3  0  0  0  0  0  0
    6.0570   46.0658   51.6533 O   0  0  0  0  0  0  0  0  0  0  0  0
    4.6503   45.8638   51.6890 C   0  0  0  0  0  1  0  0  0  0  0  0
  1  6  2  0
  2  1  1  0
  2  3  2  0
  3  4  1  0
  4  5  2  0
  4 11  1  0
  6  5  1  0
  7  8  1  0
  7  1  1  0
  9 10  1  0
  9  8  1  0
 12 11  1  0
 12 13  1  0
 13 15  2  0
 14 16  2  0
 14 12  1  0
 15 21  1  0
 17 16  1  0
 17 15  1  0
 18 20  2  0
 18 16  1  0
 19 17  1  0
 20 19  1  0
 21 22  1  0
M  RAD  8   2   2   3   2   5   2   6   2   7   3   8   3   9   3  10   2
M  RAD  4  12   2  17   2  20   2  22   2
M  END
>  <REMARK>  (1) 
 SMILES CCCCc1ccc(Nc2nc(OC)c3[nH]cnc3n2)cc1
 SMILES IDX 5 1 6 2 7 3 8 4 21 5 22 6 4 7 3 8 2 9 1 10 9 11 10 13 11 14
 SMILES IDX 20 15 12 16 19 17 15 18 18 19 16 20 17 21 13 23 14 24
 H PARENT 9 12 16 22

>  <TORSDO>  (1) 
F 6

$$$$
