/home/pchatterjee/Documents/git/vs_workflow/DiffDock/diffdock_run/pdbqt_scrubbed/149664.pdbqt
     RDKit          3D

 22 24  0  0  1  0  0  0  0  0999 V2000
    3.5789   40.4464   48.8515 C   0  0  0  0  0  0  0  0  0  0  0  0
    3.8577   41.0625   50.0465 C   0  0  0  0  0  3  0  0  0  0  0  0
    5.0534   41.7314   50.1909 C   0  0  0  0  0  3  0  0  0  0  0  0
    5.9645   41.7946   49.1741 C   0  0  0  0  0  0  0  0  0  0  0  0
    5.6681   41.1716   47.9846 C   0  0  0  0  0  3  0  0  0  0  0  0
    4.4862   40.5034   47.8241 C   0  0  0  0  0  3  0  0  0  0  0  0
    2.2789   39.7320   48.7269 C   0  0  0  0  0  2  0  0  0  0  0  0
    1.1729   40.7455   48.4233 C   0  0  0  0  0  2  0  0  0  0  0  0
   -0.1286   39.9773   48.2975 C   0  0  0  0  0  2  0  0  0  0  0  0
   -1.2491   40.7232   48.9904 C   0  0  0  0  0  1  0  0  0  0  0  0
    7.1854   42.5075   49.3969 N   0  0  0  0  0  0  0  0  0  0  0  0
    7.3012   43.9175   49.0797 C   0  0  0  0  0  3  0  0  0  0  0  0
    6.4242   44.7165   49.9157 N   0  0  0  0  0  0  0  0  0  0  0  0
    8.6633   44.4128   49.2465 N   0  0  0  0  0  0  0  0  0  0  0  0
    6.8067   45.0681   51.0770 C   0  0  0  0  0  0  0  0  0  0  0  0
    9.1113   44.7735   50.3968 C   0  0  0  0  0  0  0  0  0  0  0  0
    8.1414   44.6493   51.5425 C   0  0  0  0  0  3  0  0  0  0  0  0
   10.2905   45.2784   50.9630 N   0  0  0  0  0  0  0  0  0  0  0  0
    8.6911   45.6332   52.4862 N   0  0  0  0  0  0  0  0  0  0  0  0
   10.0827   45.7742   52.1519 C   0  0  0  0  0  3  0  0  0  0  0  0
    5.9739   45.8337   51.8858 O   0  0  0  0  0  0  0  0  0  0  0  0
    4.5767   45.5718   51.9066 C   0  0  0  0  0  1  0  0  0  0  0  0
  1  6  2  0
  2  1  1  0
  2  3  2  0
  3  4  1  0
  4  5  2  0
  4 11  1  0
  6  5  1  0
  7  8  1  0
  7  1  1  0
  9 10  1  0
  9  8  1  0
 12 11  1  0
 12 13  1  0
 13 15  2  0
 14 16  2  0
 14 12  1  0
 15 21  1  0
 17 16  1  0
 17 15  1  0
 18 20  2  0
 18 16  1  0
 19 17  1  0
 20 19  1  0
 21 22  1  0
M  RAD  8   2   2   3   2   5   2   6   2   7   3   8   3   9   3  10   2
M  RAD  4  12   2  17   2  20   2  22   2
M  END
>  <REMARK>  (1) 
 SMILES CCCCc1ccc(Nc2nc(OC)c3[nH]cnc3n2)cc1
 SMILES IDX 5 1 6 2 7 3 8 4 21 5 22 6 4 7 3 8 2 9 1 10 9 11 10 13 11 14
 SMILES IDX 20 15 12 16 19 17 15 18 18 19 16 20 17 21 13 23 14 24
 H PARENT 9 12 16 22

>  <TORSDO>  (1) 
F 6

$$$$
