/home/pchatterjee/Documents/git/vs_workflow/DiffDock/diffdock_run/pdbqt_scrubbed/149664.pdbqt
     RDKit          3D

 22 24  0  0  1  0  0  0  0  0999 V2000
    3.4385   40.4511   48.9432 C   0  0  0  0  0  0  0  0  0  0  0  0
    4.2730   40.6296   47.8675 C   0  0  0  0  0  3  0  0  0  0  0  0
    5.4401   41.3415   48.0376 C   0  0  0  0  0  3  0  0  0  0  0  0
    5.7838   41.8718   49.2494 C   0  0  0  0  0  0  0  0  0  0  0  0
    4.9358   41.6830   50.3154 C   0  0  0  0  0  3  0  0  0  0  0  0
    3.7735   40.9791   50.1643 C   0  0  0  0  0  3  0  0  0  0  0  0
    2.1852   39.6775   48.7272 C   0  0  0  0  0  2  0  0  0  0  0  0
    0.9977   40.6421   48.6825 C   0  0  0  0  0  2  0  0  0  0  0  0
   -0.2664   39.8074   48.6109 C   0  0  0  0  0  2  0  0  0  0  0  0
   -1.2214   40.3851   47.5880 C   0  0  0  0  0  1  0  0  0  0  0  0
    7.0121   42.5996   49.3507 N   0  0  0  0  0  0  0  0  0  0  0  0
    7.1124   43.9721   48.8941 C   0  0  0  0  0  3  0  0  0  0  0  0
    6.3320   44.8622   49.7337 N   0  0  0  0  0  0  0  0  0  0  0  0
    8.4901   44.4519   48.8805 N   0  0  0  0  0  0  0  0  0  0  0  0
    6.8318   45.3103   50.8145 C   0  0  0  0  0  0  0  0  0  0  0  0
    9.0540   44.9068   49.9431 C   0  0  0  0  0  0  0  0  0  0  0  0
    8.2010   44.9080   51.1845 C   0  0  0  0  0  3  0  0  0  0  0  0
   10.2894   45.4366   50.3422 N   0  0  0  0  0  0  0  0  0  0  0  0
    8.8530   45.9623   51.9745 N   0  0  0  0  0  0  0  0  0  0  0  0
   10.2062   46.0431   51.4945 C   0  0  0  0  0  3  0  0  0  0  0  0
    6.0922   46.1637   51.6259 O   0  0  0  0  0  0  0  0  0  0  0  0
    4.7130   45.9026   51.8512 C   0  0  0  0  0  1  0  0  0  0  0  0
  1  6  2  0
  2  1  1  0
  2  3  2  0
  3  4  1  0
  4  5  2  0
  4 11  1  0
  6  5  1  0
  7  8  1  0
  7  1  1  0
  9 10  1  0
  9  8  1  0
 12 11  1  0
 12 13  1  0
 13 15  2  0
 14 16  2  0
 14 12  1  0
 15 21  1  0
 17 16  1  0
 17 15  1  0
 18 20  2  0
 18 16  1  0
 19 17  1  0
 20 19  1  0
 21 22  1  0
M  RAD  8   2   2   3   2   5   2   6   2   7   3   8   3   9   3  10   2
M  RAD  4  12   2  17   2  20   2  22   2
M  END
>  <REMARK>  (1) 
 SMILES CCCCc1ccc(Nc2nc(OC)c3[nH]cnc3n2)cc1
 SMILES IDX 5 1 6 2 7 3 8 4 21 5 22 6 4 7 3 8 2 9 1 10 9 11 10 13 11 14
 SMILES IDX 20 15 12 16 19 17 15 18 18 19 16 20 17 21 13 23 14 24
 H PARENT 9 12 16 22

>  <TORSDO>  (1) 
F 6

$$$$
