/home/pchatterjee/Documents/git/vs_workflow/DiffDock/diffdock_run/pdbqt_scrubbed/149664.pdbqt
     RDKit          3D

 22 24  0  0  1  0  0  0  0  0999 V2000
   17.2271   83.2777   70.1862 C   0  0  0  0  0  0  0  0  0  0  0  0
   16.3204   82.7250   71.0565 C   0  0  0  0  0  3  0  0  0  0  0  0
   15.0246   83.1929   71.0585 C   0  0  0  0  0  3  0  0  0  0  0  0
   14.6239   84.1915   70.2158 C   0  0  0  0  0  0  0  0  0  0  0  0
   15.5458   84.7331   69.3511 C   0  0  0  0  0  3  0  0  0  0  0  0
   16.8359   84.2807   69.3359 C   0  0  0  0  0  3  0  0  0  0  0  0
   18.6191   82.7505   70.2083 C   0  0  0  0  0  2  0  0  0  0  0  0
   19.5957   83.9119   70.4083 C   0  0  0  0  0  2  0  0  0  0  0  0
   20.9676   83.4354   69.9718 C   0  0  0  0  0  2  0  0  0  0  0  0
   21.2141   83.7977   68.5226 C   0  0  0  0  0  1  0  0  0  0  0  0
   13.2615   84.6263   70.2743 N   0  0  0  0  0  0  0  0  0  0  0  0
   12.7730   85.4207   71.3845 C   0  0  0  0  0  3  0  0  0  0  0  0
   11.8175   86.4167   70.9359 N   0  0  0  0  0  0  0  0  0  0  0  0
   12.1310   84.6045   72.4093 N   0  0  0  0  0  0  0  0  0  0  0  0
   10.5960   86.0958   70.7825 C   0  0  0  0  0  0  0  0  0  0  0  0
   10.9022   84.2396   72.3059 C   0  0  0  0  0  0  0  0  0  0  0  0
   10.1844   84.7093   71.0678 C   0  0  0  0  0  3  0  0  0  0  0  0
    9.9546   83.4958   73.0236 N   0  0  0  0  0  0  0  0  0  0  0  0
    8.7860   84.6683   71.5190 N   0  0  0  0  0  0  0  0  0  0  0  0
    8.7414   83.7190   72.5983 C   0  0  0  0  0  3  0  0  0  0  0  0
    9.6727   87.0429   70.3530 O   0  0  0  0  0  0  0  0  0  0  0  0
   10.1011   88.1253   69.5369 C   0  0  0  0  0  1  0  0  0  0  0  0
  1  6  2  0
  2  1  1  0
  2  3  2  0
  3  4  1  0
  4  5  2  0
  4 11  1  0
  6  5  1  0
  7  8  1  0
  7  1  1  0
  9 10  1  0
  9  8  1  0
 12 11  1  0
 12 13  1  0
 13 15  2  0
 14 16  2  0
 14 12  1  0
 15 21  1  0
 17 16  1  0
 17 15  1  0
 18 20  2  0
 18 16  1  0
 19 17  1  0
 20 19  1  0
 21 22  1  0
M  RAD  8   2   2   3   2   5   2   6   2   7   3   8   3   9   3  10   2
M  RAD  4  12   2  17   2  20   2  22   2
M  END
>  <REMARK>  (1) 
 SMILES CCCCc1ccc(Nc2nc(OC)c3[nH]cnc3n2)cc1
 SMILES IDX 5 1 6 2 7 3 8 4 21 5 22 6 4 7 3 8 2 9 1 10 9 11 10 13 11 14
 SMILES IDX 20 15 12 16 19 17 15 18 18 19 16 20 17 21 13 23 14 24
 H PARENT 9 12 16 22

>  <TORSDO>  (1) 
F 6

$$$$
