/home/pchatterjee/Documents/git/vs_workflow/DiffDock/diffdock_run/pdbqt_scrubbed/149664.pdbqt
     RDKit          3D

 22 24  0  0  1  0  0  0  0  0999 V2000
    3.5286   40.4141   48.8856 C   0  0  0  0  0  0  0  0  0  0  0  0
    3.7960   41.0533   50.0710 C   0  0  0  0  0  3  0  0  0  0  0  0
    4.9817   41.7415   50.2069 C   0  0  0  0  0  3  0  0  0  0  0  0
    5.8940   41.8013   49.1910 C   0  0  0  0  0  0  0  0  0  0  0  0
    5.6092   41.1550   48.0111 C   0  0  0  0  0  3  0  0  0  0  0  0
    4.4373   40.4674   47.8591 C   0  0  0  0  0  3  0  0  0  0  0  0
    2.2392   39.6792   48.7699 C   0  0  0  0  0  2  0  0  0  0  0  0
    1.0922   40.6865   48.6596 C   0  0  0  0  0  2  0  0  0  0  0  0
   -0.2068   39.9044   48.6878 C   0  0  0  0  0  2  0  0  0  0  0  0
   -1.2846   40.6467   47.9266 C   0  0  0  0  0  1  0  0  0  0  0  0
    7.1042   42.5350   49.4048 N   0  0  0  0  0  0  0  0  0  0  0  0
    7.2198   43.9255   49.0104 C   0  0  0  0  0  3  0  0  0  0  0  0
    6.4099   44.7800   49.8590 N   0  0  0  0  0  0  0  0  0  0  0  0
    8.5968   44.4042   49.0655 N   0  0  0  0  0  0  0  0  0  0  0  0
    6.8711   45.1815   50.9747 C   0  0  0  0  0  0  0  0  0  0  0  0
    9.1228   44.8132   50.1656 C   0  0  0  0  0  0  0  0  0  0  0  0
    8.2267   44.7627   51.3752 C   0  0  0  0  0  3  0  0  0  0  0  0
   10.3431   45.3245   50.6299 N   0  0  0  0  0  0  0  0  0  0  0  0
    8.8499   45.7820   52.2315 N   0  0  0  0  0  0  0  0  0  0  0  0
   10.2191   45.8818   51.8032 C   0  0  0  0  0  3  0  0  0  0  0  0
    6.1030   46.0005   51.7950 O   0  0  0  0  0  0  0  0  0  0  0  0
    4.7026   45.7792   51.8994 C   0  0  0  0  0  1  0  0  0  0  0  0
  1  6  2  0
  2  1  1  0
  2  3  2  0
  3  4  1  0
  4  5  2  0
  4 11  1  0
  6  5  1  0
  7  8  1  0
  7  1  1  0
  9 10  1  0
  9  8  1  0
 12 11  1  0
 12 13  1  0
 13 15  2  0
 14 16  2  0
 14 12  1  0
 15 21  1  0
 17 16  1  0
 17 15  1  0
 18 20  2  0
 18 16  1  0
 19 17  1  0
 20 19  1  0
 21 22  1  0
M  RAD  8   2   2   3   2   5   2   6   2   7   3   8   3   9   3  10   2
M  RAD  4  12   2  17   2  20   2  22   2
M  END
>  <REMARK>  (1) 
 SMILES CCCCc1ccc(Nc2nc(OC)c3[nH]cnc3n2)cc1
 SMILES IDX 5 1 6 2 7 3 8 4 21 5 22 6 4 7 3 8 2 9 1 10 9 11 10 13 11 14
 SMILES IDX 20 15 12 16 19 17 15 18 18 19 16 20 17 21 13 23 14 24
 H PARENT 9 12 16 22

>  <TORSDO>  (1) 
F 6

$$$$
