/home/pchatterjee/Documents/git/vs_workflow/DiffDock/diffdock_run/pdbqt_scrubbed/149664.pdbqt
     RDKit          3D

 22 24  0  0  1  0  0  0  0  0999 V2000
    3.5290   40.4899   48.7875 C   0  0  0  0  0  0  0  0  0  0  0  0
    4.4445   40.5276   47.7649 C   0  0  0  0  0  3  0  0  0  0  0  0
    5.6373   41.1889   47.9595 C   0  0  0  0  0  3  0  0  0  0  0  0
    5.9277   41.8058   49.1439 C   0  0  0  0  0  0  0  0  0  0  0  0
    4.9988   41.7577   50.1568 C   0  0  0  0  0  3  0  0  0  0  0  0
    3.8100   41.1058   49.9808 C   0  0  0  0  0  3  0  0  0  0  0  0
    2.2499   39.7677   48.5463 C   0  0  0  0  0  2  0  0  0  0  0  0
    1.1038   40.7798   48.4776 C   0  0  0  0  0  2  0  0  0  0  0  0
   -0.1934   39.9970   48.4101 C   0  0  0  0  0  2  0  0  0  0  0  0
   -1.3005   40.7512   49.1156 C   0  0  0  0  0  1  0  0  0  0  0  0
    7.1871   42.4735   49.2732 N   0  0  0  0  0  0  0  0  0  0  0  0
    7.3414   43.8662   48.9003 C   0  0  0  0  0  3  0  0  0  0  0  0
    6.5011   44.7234   49.7161 N   0  0  0  0  0  0  0  0  0  0  0  0
    8.7202   44.3249   49.0302 N   0  0  0  0  0  0  0  0  0  0  0  0
    6.9105   45.1070   50.8579 C   0  0  0  0  0  0  0  0  0  0  0  0
    9.1952   44.7153   50.1598 C   0  0  0  0  0  0  0  0  0  0  0  0
    8.2383   44.6652   51.3219 C   0  0  0  0  0  3  0  0  0  0  0  0
   10.3972   45.2046   50.6907 N   0  0  0  0  0  0  0  0  0  0  0  0
    8.8311   45.6669   52.2196 N   0  0  0  0  0  0  0  0  0  0  0  0
   10.2214   45.7517   51.8621 C   0  0  0  0  0  3  0  0  0  0  0  0
    6.1130   45.9285   51.6471 O   0  0  0  0  0  0  0  0  0  0  0  0
    4.6995   45.7793   51.6157 C   0  0  0  0  0  1  0  0  0  0  0  0
  1  6  2  0
  2  1  1  0
  2  3  2  0
  3  4  1  0
  4  5  2  0
  4 11  1  0
  6  5  1  0
  7  8  1  0
  7  1  1  0
  9 10  1  0
  9  8  1  0
 12 11  1  0
 12 13  1  0
 13 15  2  0
 14 16  2  0
 14 12  1  0
 15 21  1  0
 17 16  1  0
 17 15  1  0
 18 20  2  0
 18 16  1  0
 19 17  1  0
 20 19  1  0
 21 22  1  0
M  RAD  8   2   2   3   2   5   2   6   2   7   3   8   3   9   3  10   2
M  RAD  4  12   2  17   2  20   2  22   2
M  END
>  <REMARK>  (1) 
 SMILES CCCCc1ccc(Nc2nc(OC)c3[nH]cnc3n2)cc1
 SMILES IDX 5 1 6 2 7 3 8 4 21 5 22 6 4 7 3 8 2 9 1 10 9 11 10 13 11 14
 SMILES IDX 20 15 12 16 19 17 15 18 18 19 16 20 17 21 13 23 14 24
 H PARENT 9 12 16 22

>  <TORSDO>  (1) 
F 6

$$$$
