/home/pchatterjee/Documents/git/vs_workflow/DiffDock/diffdock_run/pdbqt_scrubbed/149664.pdbqt
     RDKit          3D

 22 24  0  0  1  0  0  0  0  0999 V2000
    3.4162   40.5952   48.9106 C   0  0  0  0  0  0  0  0  0  0  0  0
    4.3268   40.6549   47.8847 C   0  0  0  0  0  3  0  0  0  0  0  0
    5.5207   41.3116   48.0879 C   0  0  0  0  0  3  0  0  0  0  0  0
    5.8170   41.9026   49.2840 C   0  0  0  0  0  0  0  0  0  0  0  0
    4.8929   41.8326   50.3000 C   0  0  0  0  0  3  0  0  0  0  0  0
    3.7031   41.1849   50.1156 C   0  0  0  0  0  3  0  0  0  0  0  0
    2.1357   39.8786   48.6599 C   0  0  0  0  0  2  0  0  0  0  0  0
    1.0041   40.8999   48.5226 C   0  0  0  0  0  2  0  0  0  0  0  0
   -0.2904   40.1276   48.3553 C   0  0  0  0  0  2  0  0  0  0  0  0
   -1.4673   41.0784   48.3018 C   0  0  0  0  0  1  0  0  0  0  0  0
    7.0771   42.5671   49.4218 N   0  0  0  0  0  0  0  0  0  0  0  0
    7.2411   43.9553   49.0363 C   0  0  0  0  0  3  0  0  0  0  0  0
    6.4790   44.8338   49.9045 N   0  0  0  0  0  0  0  0  0  0  0  0
    8.6366   44.3791   49.0729 N   0  0  0  0  0  0  0  0  0  0  0  0
    6.9733   45.2076   51.0157 C   0  0  0  0  0  0  0  0  0  0  0  0
    9.1956   44.7580   50.1674 C   0  0  0  0  0  0  0  0  0  0  0  0
    8.3175   44.7326   51.3909 C   0  0  0  0  0  3  0  0  0  0  0  0
   10.4423   45.2171   50.6158 N   0  0  0  0  0  0  0  0  0  0  0  0
    8.9939   45.7195   52.2449 N   0  0  0  0  0  0  0  0  0  0  0  0
   10.3589   45.7691   51.7952 C   0  0  0  0  0  3  0  0  0  0  0  0
    6.2511   46.0492   51.8546 O   0  0  0  0  0  0  0  0  0  0  0  0
    4.8494   45.8633   52.0026 C   0  0  0  0  0  1  0  0  0  0  0  0
  1  6  2  0
  2  1  1  0
  2  3  2  0
  3  4  1  0
  4  5  2  0
  4 11  1  0
  6  5  1  0
  7  8  1  0
  7  1  1  0
  9 10  1  0
  9  8  1  0
 12 11  1  0
 12 13  1  0
 13 15  2  0
 14 16  2  0
 14 12  1  0
 15 21  1  0
 17 16  1  0
 17 15  1  0
 18 20  2  0
 18 16  1  0
 19 17  1  0
 20 19  1  0
 21 22  1  0
M  RAD  8   2   2   3   2   5   2   6   2   7   3   8   3   9   3  10   2
M  RAD  4  12   2  17   2  20   2  22   2
M  END
>  <REMARK>  (1) 
 SMILES CCCCc1ccc(Nc2nc(OC)c3[nH]cnc3n2)cc1
 SMILES IDX 5 1 6 2 7 3 8 4 21 5 22 6 4 7 3 8 2 9 1 10 9 11 10 13 11 14
 SMILES IDX 20 15 12 16 19 17 15 18 18 19 16 20 17 21 13 23 14 24
 H PARENT 9 12 16 22

>  <TORSDO>  (1) 
F 6

$$$$
