/home/pchatterjee/Documents/git/vs_workflow/DiffDock/diffdock_run/pdbqt_scrubbed/149664.pdbqt
     RDKit          3D

 22 24  0  0  1  0  0  0  0  0999 V2000
    3.3260   40.6610   48.8637 C   0  0  0  0  0  0  0  0  0  0  0  0
    4.2286   40.7174   47.8305 C   0  0  0  0  0  3  0  0  0  0  0  0
    5.4276   41.3674   48.0250 C   0  0  0  0  0  3  0  0  0  0  0  0
    5.7367   41.9549   49.2196 C   0  0  0  0  0  0  0  0  0  0  0  0
    4.8206   41.8883   50.2429 C   0  0  0  0  0  3  0  0  0  0  0  0
    3.6258   41.2473   50.0672 C   0  0  0  0  0  3  0  0  0  0  0  0
    2.0397   39.9516   48.6222 C   0  0  0  0  0  2  0  0  0  0  0  0
    0.8783   40.8539   49.0459 C   0  0  0  0  0  2  0  0  0  0  0  0
   -0.4083   40.0938   48.7875 C   0  0  0  0  0  2  0  0  0  0  0  0
   -1.6050   40.9418   49.1631 C   0  0  0  0  0  1  0  0  0  0  0  0
    7.0015   42.6124   49.3482 N   0  0  0  0  0  0  0  0  0  0  0  0
    7.1677   44.0028   48.9716 C   0  0  0  0  0  3  0  0  0  0  0  0
    6.4386   44.8796   49.8693 N   0  0  0  0  0  0  0  0  0  0  0  0
    8.5676   44.4135   48.9730 N   0  0  0  0  0  0  0  0  0  0  0  0
    6.9674   45.2379   50.9697 C   0  0  0  0  0  0  0  0  0  0  0  0
    9.1607   44.7763   50.0549 C   0  0  0  0  0  0  0  0  0  0  0  0
    8.3171   44.7469   51.3023 C   0  0  0  0  0  3  0  0  0  0  0  0
   10.4237   45.2196   50.4724 N   0  0  0  0  0  0  0  0  0  0  0  0
    9.0265   45.7191   52.1464 N   0  0  0  0  0  0  0  0  0  0  0  0
   10.3787   45.7606   51.6589 C   0  0  0  0  0  3  0  0  0  0  0  0
    6.2770   46.0778   51.8366 O   0  0  0  0  0  0  0  0  0  0  0  0
    4.8946   45.8546   52.0824 C   0  0  0  0  0  1  0  0  0  0  0  0
  1  6  2  0
  2  1  1  0
  2  3  2  0
  3  4  1  0
  4  5  2  0
  4 11  1  0
  6  5  1  0
  7  8  1  0
  7  1  1  0
  9 10  1  0
  9  8  1  0
 12 11  1  0
 12 13  1  0
 13 15  2  0
 14 16  2  0
 14 12  1  0
 15 21  1  0
 17 16  1  0
 17 15  1  0
 18 20  2  0
 18 16  1  0
 19 17  1  0
 20 19  1  0
 21 22  1  0
M  RAD  8   2   2   3   2   5   2   6   2   7   3   8   3   9   3  10   2
M  RAD  4  12   2  17   2  20   2  22   2
M  END
>  <REMARK>  (1) 
 SMILES CCCCc1ccc(Nc2nc(OC)c3[nH]cnc3n2)cc1
 SMILES IDX 5 1 6 2 7 3 8 4 21 5 22 6 4 7 3 8 2 9 1 10 9 11 10 13 11 14
 SMILES IDX 20 15 12 16 19 17 15 18 18 19 16 20 17 21 13 23 14 24
 H PARENT 9 12 16 22

>  <TORSDO>  (1) 
F 6

$$$$
