/home/pchatterjee/Documents/git/vs_workflow/DiffDock/diffdock_run/pdbqt_scrubbed/149664.pdbqt
     RDKit          3D

 22 24  0  0  1  0  0  0  0  0999 V2000
    3.5090   40.4394   48.8984 C   0  0  0  0  0  0  0  0  0  0  0  0
    4.4028   40.5687   47.8641 C   0  0  0  0  0  3  0  0  0  0  0  0
    5.5684   41.2730   48.0720 C   0  0  0  0  0  3  0  0  0  0  0  0
    5.8531   41.8435   49.2809 C   0  0  0  0  0  0  0  0  0  0  0  0
    4.9462   41.7036   50.3050 C   0  0  0  0  0  3  0  0  0  0  0  0
    3.7844   41.0080   50.1161 C   0  0  0  0  0  3  0  0  0  0  0  0
    2.2589   39.6728   48.6422 C   0  0  0  0  0  2  0  0  0  0  0  0
    1.0880   40.6484   48.5021 C   0  0  0  0  0  2  0  0  0  0  0  0
   -0.1779   39.8254   48.3605 C   0  0  0  0  0  2  0  0  0  0  0  0
   -1.2102   40.2688   49.3752 C   0  0  0  0  0  1  0  0  0  0  0  0
    7.0838   42.5603   49.4228 N   0  0  0  0  0  0  0  0  0  0  0  0
    7.1999   43.9443   49.0064 C   0  0  0  0  0  3  0  0  0  0  0  0
    6.3521   44.8061   49.8095 N   0  0  0  0  0  0  0  0  0  0  0  0
    8.5694   44.4382   49.1011 N   0  0  0  0  0  0  0  0  0  0  0  0
    6.7694   45.2331   50.9329 C   0  0  0  0  0  0  0  0  0  0  0  0
    9.0519   44.8731   50.2111 C   0  0  0  0  0  0  0  0  0  0  0  0
    8.1139   44.8359   51.3890 C   0  0  0  0  0  3  0  0  0  0  0  0
   10.2499   45.4055   50.7084 N   0  0  0  0  0  0  0  0  0  0  0  0
    8.6964   45.8774   52.2473 N   0  0  0  0  0  0  0  0  0  0  0  0
   10.0789   45.9833   51.8658 C   0  0  0  0  0  3  0  0  0  0  0  0
    5.9647   46.0593   51.7098 O   0  0  0  0  0  0  0  0  0  0  0  0
    4.5720   45.7932   51.8117 C   0  0  0  0  0  1  0  0  0  0  0  0
  1  6  2  0
  2  1  1  0
  2  3  2  0
  3  4  1  0
  4  5  2  0
  4 11  1  0
  6  5  1  0
  7  8  1  0
  7  1  1  0
  9 10  1  0
  9  8  1  0
 12 11  1  0
 12 13  1  0
 13 15  2  0
 14 16  2  0
 14 12  1  0
 15 21  1  0
 17 16  1  0
 17 15  1  0
 18 20  2  0
 18 16  1  0
 19 17  1  0
 20 19  1  0
 21 22  1  0
M  RAD  8   2   2   3   2   5   2   6   2   7   3   8   3   9   3  10   2
M  RAD  4  12   2  17   2  20   2  22   2
M  END
>  <REMARK>  (1) 
 SMILES CCCCc1ccc(Nc2nc(OC)c3[nH]cnc3n2)cc1
 SMILES IDX 5 1 6 2 7 3 8 4 21 5 22 6 4 7 3 8 2 9 1 10 9 11 10 13 11 14
 SMILES IDX 20 15 12 16 19 17 15 18 18 19 16 20 17 21 13 23 14 24
 H PARENT 9 12 16 22

>  <TORSDO>  (1) 
F 6

$$$$
