/home/pchatterjee/Documents/git/vs_workflow/DiffDock/diffdock_run/pdbqt_scrubbed/447655.pdbqt
     RDKit          3D

 28 31  0  0  1  0  0  0  0  0999 V2000
    7.1911   42.6666   48.8805 N   0  0  0  0  0  0  0  0  0  0  0  0
    5.8844   42.1278   48.6983 C   0  0  0  0  0  0  0  0  0  0  0  0
    4.1436   41.1434   47.3367 C   0  0  0  0  0  0  0  0  0  0  0  0
    3.2906   41.0778   48.4184 C   0  0  0  0  0  3  0  0  0  0  0  0
    5.4310   41.6646   47.4755 C   0  0  0  0  0  3  0  0  0  0  0  0
    3.7199   41.5335   49.6480 C   0  0  0  0  0  3  0  0  0  0  0  0
    5.0058   42.0466   49.7558 C   0  0  0  0  0  3  0  0  0  0  0  0
    3.5521   40.5530   45.7998 S   0  0  1  0  0  0  0  0  0  0  0  0
    2.7117   39.3244   45.9529 O   0  0  0  0  0  0  0  0  0  0  0  0
    2.7507   41.6699   45.1542 O   0  0  0  0  0  0  0  0  0  0  0  0
    4.9285   40.2583   44.7845 N   0  0  0  0  0  0  0  0  0  0  0  0
    7.6874   42.7530   50.2306 C   0  0  0  0  0  3  0  0  0  0  0  0
    6.8893   43.5361   51.1214 N   0  0  0  0  0  0  0  0  0  0  0  0
    9.0683   43.2118   50.1231 N   0  0  0  0  0  0  0  0  0  0  0  0
    7.1423   44.7980   51.2340 C   0  0  0  0  0  0  0  0  0  0  0  0
    9.3415   44.4673   50.2317 C   0  0  0  0  0  0  0  0  0  0  0  0
    8.2329   45.4586   50.4695 C   0  0  0  0  0  3  0  0  0  0  0  0
   10.5206   45.2686   50.1855 N   0  0  0  0  0  0  0  0  0  0  0  0
    8.9508   46.4438   51.2769 N   0  0  0  0  0  0  0  0  0  0  0  0
   10.3051   46.4068   50.7840 C   0  0  0  0  0  3  0  0  0  0  0  0
    6.3909   45.6063   52.0912 O   0  0  0  0  0  0  0  0  0  0  0  0
    5.2620   45.0533   52.7808 C   0  0  0  0  0  2  0  0  0  0  0  0
    4.2791   44.6373   51.6830 C   0  0  0  0  0  3  0  0  0  0  0  0
    3.5316   45.8149   51.1158 C   0  0  0  0  0  2  0  0  0  0  0  0
    3.3149   43.5774   52.1659 C   0  0  0  0  0  2  0  0  0  0  0  0
    2.6093   46.4832   52.0871 C   0  0  0  0  0  2  0  0  0  0  0  0
    2.1109   44.1347   52.8595 C   0  0  0  0  0  2  0  0  0  0  0  0
    2.2334   45.5847   53.2351 C   0  0  0  0  0  2  0  0  0  0  0  0
  2  1  1  0
  2  7  2  0
  3  5  2  0
  3  4  1  0
  4  6  2  0
  5  2  1  0
  6  7  1  0
  8 10  2  0
  8  3  1  0
  8  9  2  0
  8 11  1  6
 12  1  1  0
 12 14  1  0
 12 13  1  0
 13 15  2  0
 14 16  2  0
 15 17  1  0
 15 21  1  0
 16 18  1  0
 17 16  1  0
 17 19  1  0
 18 20  2  0
 20 19  1  0
 21 22  1  0
 23 25  1  0
 23 22  1  0
 24 23  1  0
 26 24  1  0
 27 25  1  0
 28 26  1  0
 28 27  1  0
M  RAD  8   4   2   5   2   6   2   7   2  12   2  17   2  20   2  22   3
M  RAD  6  23   2  24   3  25   3  26   3  27   3  28   3
M  END
>  <REMARK>  (1) 
 SMILES NS(=O)(=O)c1cccc(Nc2nc(OCC3CCCCC3)c3[nH]cnc3n2)c1
 SMILES IDX 10 1 9 3 5 4 6 5 28 6 7 7 8 8 2 9 3 10 4 11 1 12 11 15 12 16
 SMILES IDX 27 17 13 18 26 19 22 20 25 21 23 22 24 23 14 25 15 26 16 27
 SMILES IDX 17 28 21 29 18 30 20 31 19 32
 H PARENT 10 2 1 13 1 14 23 24

>  <TORSDO>  (1) 
F 7

$$$$
