/home/pchatterjee/Documents/git/vs_workflow/DiffDock/diffdock_run/pdbqt_scrubbed/447655.pdbqt
     RDKit          3D

 28 31  0  0  1  0  0  0  0  0999 V2000
    7.1056   42.9354   48.4765 N   0  0  0  0  0  0  0  0  0  0  0  0
    5.9430   42.2326   48.0458 C   0  0  0  0  0  0  0  0  0  0  0  0
    3.8074   41.1713   48.4531 C   0  0  0  0  0  0  0  0  0  0  0  0
    3.6783   40.8466   47.1190 C   0  0  0  0  0  3  0  0  0  0  0  0
    4.9314   41.8592   48.9133 C   0  0  0  0  0  3  0  0  0  0  0  0
    4.6738   41.2082   46.2347 C   0  0  0  0  0  3  0  0  0  0  0  0
    5.7804   41.8919   46.7213 C   0  0  0  0  0  3  0  0  0  0  0  0
    2.5182   40.6907   49.5337 S   0  0  1  0  0  0  0  0  0  0  0  0
    1.2709   40.3206   48.7945 O   0  0  0  0  0  0  0  0  0  0  0  0
    3.0192   39.5160   50.3556 O   0  0  0  0  0  0  0  0  0  0  0  0
    2.2381   42.0027   50.6347 N   0  0  0  0  0  0  0  0  0  0  0  0
    7.4716   42.8181   49.8653 C   0  0  0  0  0  3  0  0  0  0  0  0
    6.5799   43.4549   50.7835 N   0  0  0  0  0  0  0  0  0  0  0  0
    8.8481   43.2923   49.9601 N   0  0  0  0  0  0  0  0  0  0  0  0
    6.7991   44.6861   51.1081 C   0  0  0  0  0  0  0  0  0  0  0  0
    9.0879   44.5178   50.2817 C   0  0  0  0  0  0  0  0  0  0  0  0
    7.9447   45.4582   50.5591 C   0  0  0  0  0  3  0  0  0  0  0  0
   10.2519   45.3206   50.4690 N   0  0  0  0  0  0  0  0  0  0  0  0
    8.5664   46.3121   51.5701 N   0  0  0  0  0  0  0  0  0  0  0  0
    9.9614   46.3544   51.2086 C   0  0  0  0  0  3  0  0  0  0  0  0
    5.9565   45.3529   52.0015 O   0  0  0  0  0  0  0  0  0  0  0  0
    4.5397   45.1448   51.9315 C   0  0  0  0  0  2  0  0  0  0  0  0
    3.9151   46.3727   52.5997 C   0  0  0  0  0  3  0  0  0  0  0  0
    3.9910   46.3004   54.1018 C   0  0  0  0  0  2  0  0  0  0  0  0
    2.4885   46.5916   52.1488 C   0  0  0  0  0  2  0  0  0  0  0  0
    3.1756   45.2003   54.7062 C   0  0  0  0  0  2  0  0  0  0  0  0
    1.4850   45.8077   52.9361 C   0  0  0  0  0  2  0  0  0  0  0  0
    2.0824   44.7231   53.7878 C   0  0  0  0  0  2  0  0  0  0  0  0
  2  1  1  0
  2  7  2  0
  3  5  2  0
  3  4  1  0
  4  6  2  0
  5  2  1  0
  6  7  1  0
  8 10  2  0
  8  3  1  0
  8  9  2  0
  8 11  1  1
 12  1  1  0
 12 14  1  0
 12 13  1  0
 13 15  2  0
 14 16  2  0
 15 17  1  0
 15 21  1  0
 16 18  1  0
 17 16  1  0
 17 19  1  0
 18 20  2  0
 20 19  1  0
 21 22  1  0
 23 25  1  0
 23 22  1  0
 24 23  1  0
 26 24  1  0
 27 25  1  0
 28 26  1  0
 28 27  1  0
M  RAD  8   4   2   5   2   6   2   7   2  12   2  17   2  20   2  22   3
M  RAD  6  23   2  24   3  25   3  26   3  27   3  28   3
M  END
>  <REMARK>  (1) 
 SMILES NS(=O)(=O)c1cccc(Nc2nc(OCC3CCCCC3)c3[nH]cnc3n2)c1
 SMILES IDX 10 1 9 3 5 4 6 5 28 6 7 7 8 8 2 9 3 10 4 11 1 12 11 15 12 16
 SMILES IDX 27 17 13 18 26 19 22 20 25 21 23 22 24 23 14 25 15 26 16 27
 SMILES IDX 17 28 21 29 18 30 20 31 19 32
 H PARENT 10 2 1 13 1 14 23 24

>  <TORSDO>  (1) 
F 7

$$$$
