/home/pchatterjee/Documents/git/vs_workflow/DiffDock/diffdock_run/pdbqt_scrubbed/447655.pdbqt
     RDKit          3D

 28 31  0  0  1  0  0  0  0  0999 V2000
    7.0434   42.7155   48.6333 N   0  0  0  0  0  0  0  0  0  0  0  0
    5.8476   41.9805   48.3867 C   0  0  0  0  0  0  0  0  0  0  0  0
    3.5846   41.3241   48.9354 C   0  0  0  0  0  0  0  0  0  0  0  0
    3.5229   40.4979   47.8330 C   0  0  0  0  0  3  0  0  0  0  0  0
    4.7383   42.0601   49.2104 C   0  0  0  0  0  3  0  0  0  0  0  0
    4.6163   40.4019   46.9967 C   0  0  0  0  0  3  0  0  0  0  0  0
    5.7502   41.1458   47.2955 C   0  0  0  0  0  3  0  0  0  0  0  0
    2.1723   41.4111   49.9643 S   0  0  1  0  0  0  0  0  0  0  0  0
    0.9471   41.8175   49.2075 O   0  0  0  0  0  0  0  0  0  0  0  0
    1.9787   40.0447   50.5982 O   0  0  0  0  0  0  0  0  0  0  0  0
    2.5244   42.5251   51.2478 N   0  0  0  0  0  0  0  0  0  0  0  0
    7.5301   42.7492   49.9892 C   0  0  0  0  0  3  0  0  0  0  0  0
    6.7325   43.5080   50.9013 N   0  0  0  0  0  0  0  0  0  0  0  0
    8.9160   43.1982   49.9082 N   0  0  0  0  0  0  0  0  0  0  0  0
    6.9966   44.7626   51.0605 C   0  0  0  0  0  0  0  0  0  0  0  0
    9.2002   44.4463   50.0632 C   0  0  0  0  0  0  0  0  0  0  0  0
    8.0991   45.4393   50.3280 C   0  0  0  0  0  3  0  0  0  0  0  0
   10.3870   45.2373   50.0542 N   0  0  0  0  0  0  0  0  0  0  0  0
    8.8201   46.3883   51.1750 N   0  0  0  0  0  0  0  0  0  0  0  0
   10.1777   46.3557   50.6912 C   0  0  0  0  0  3  0  0  0  0  0  0
    6.2462   45.5472   51.9403 O   0  0  0  0  0  0  0  0  0  0  0  0
    5.1629   44.9569   52.6708 C   0  0  0  0  0  2  0  0  0  0  0  0
    4.1548   44.5070   51.6099 C   0  0  0  0  0  3  0  0  0  0  0  0
    3.3589   45.6606   51.0594 C   0  0  0  0  0  2  0  0  0  0  0  0
    3.2347   43.4271   52.1329 C   0  0  0  0  0  2  0  0  0  0  0  0
    2.4528   46.3134   52.0561 C   0  0  0  0  0  2  0  0  0  0  0  0
    2.0407   43.9595   52.8624 C   0  0  0  0  0  2  0  0  0  0  0  0
    2.1386   45.4153   53.2228 C   0  0  0  0  0  2  0  0  0  0  0  0
  2  1  1  0
  2  7  2  0
  3  5  2  0
  3  4  1  0
  4  6  2  0
  5  2  1  0
  6  7  1  0
  8 10  2  0
  8  3  1  0
  8  9  2  0
  8 11  1  1
 12  1  1  0
 12 14  1  0
 12 13  1  0
 13 15  2  0
 14 16  2  0
 15 17  1  0
 15 21  1  0
 16 18  1  0
 17 16  1  0
 17 19  1  0
 18 20  2  0
 20 19  1  0
 21 22  1  0
 23 25  1  0
 23 22  1  0
 24 23  1  0
 26 24  1  0
 27 25  1  0
 28 26  1  0
 28 27  1  0
M  RAD  8   4   2   5   2   6   2   7   2  12   2  17   2  20   2  22   3
M  RAD  6  23   2  24   3  25   3  26   3  27   3  28   3
M  END
>  <REMARK>  (1) 
 SMILES NS(=O)(=O)c1cccc(Nc2nc(OCC3CCCCC3)c3[nH]cnc3n2)c1
 SMILES IDX 10 1 9 3 5 4 6 5 28 6 7 7 8 8 2 9 3 10 4 11 1 12 11 15 12 16
 SMILES IDX 27 17 13 18 26 19 22 20 25 21 23 22 24 23 14 25 15 26 16 27
 SMILES IDX 17 28 21 29 18 30 20 31 19 32
 H PARENT 10 2 1 13 1 14 23 24

>  <TORSDO>  (1) 
F 7

$$$$
