/home/pchatterjee/Documents/git/vs_workflow/DiffDock/diffdock_run/pdbqt_scrubbed/447655.pdbqt
     RDKit          3D

 28 31  0  0  1  0  0  0  0  0999 V2000
    8.5863   62.4140   83.1910 N   0  0  0  0  0  0  0  0  0  0  0  0
    7.2763   62.8341   82.8185 C   0  0  0  0  0  0  0  0  0  0  0  0
    4.9064   62.4489   82.5215 C   0  0  0  0  0  0  0  0  0  0  0  0
    4.7219   63.7370   82.0648 C   0  0  0  0  0  3  0  0  0  0  0  0
    6.1742   62.0005   82.8956 C   0  0  0  0  0  3  0  0  0  0  0  0
    5.8056   64.5868   81.9790 C   0  0  0  0  0  3  0  0  0  0  0  0
    7.0547   64.1130   82.3582 C   0  0  0  0  0  3  0  0  0  0  0  0
    3.5012   61.4107   82.6117 S   0  0  1  0  0  0  0  0  0  0  0  0
    2.6180   61.5512   81.4118 O   0  0  0  0  0  0  0  0  0  0  0  0
    3.9926   59.9801   82.7474 O   0  0  0  0  0  0  0  0  0  0  0  0
    2.6520   61.8008   84.0742 N   0  0  0  0  0  0  0  0  0  0  0  0
    9.3628   63.3157   84.0037 C   0  0  0  0  0  3  0  0  0  0  0  0
    9.9144   64.4366   83.3087 N   0  0  0  0  0  0  0  0  0  0  0  0
   10.3626   62.4922   84.6755 N   0  0  0  0  0  0  0  0  0  0  0  0
   11.0902   64.3245   82.7854 C   0  0  0  0  0  0  0  0  0  0  0  0
   11.5416   62.3667   84.1687 C   0  0  0  0  0  0  0  0  0  0  0  0
   11.8845   63.0716   82.8827 C   0  0  0  0  0  3  0  0  0  0  0  0
   12.7402   61.6767   84.5174 N   0  0  0  0  0  0  0  0  0  0  0  0
   13.3031   63.3374   83.1167 N   0  0  0  0  0  0  0  0  0  0  0  0
   13.7581   62.2280   83.9171 C   0  0  0  0  0  3  0  0  0  0  0  0
   11.6729   65.3913   82.0961 O   0  0  0  0  0  0  0  0  0  0  0  0
   10.8370   66.3652   81.4569 C   0  0  0  0  0  2  0  0  0  0  0  0
   11.1457   67.6898   82.1600 C   0  0  0  0  0  3  0  0  0  0  0  0
   10.2127   68.7905   81.7297 C   0  0  0  0  0  2  0  0  0  0  0  0
   12.5860   68.1062   81.9644 C   0  0  0  0  0  2  0  0  0  0  0  0
   10.3536   69.1895   80.2939 C   0  0  0  0  0  2  0  0  0  0  0  0
   12.8222   68.8674   80.6970 C   0  0  0  0  0  2  0  0  0  0  0  0
   11.6865   68.7956   79.7154 C   0  0  0  0  0  2  0  0  0  0  0  0
  2  1  1  0
  2  7  2  0
  3  5  2  0
  3  4  1  0
  4  6  2  0
  5  2  1  0
  6  7  1  0
  8 10  2  0
  8  3  1  0
  8  9  2  0
  8 11  1  1
 12  1  1  0
 12 14  1  0
 12 13  1  0
 13 15  2  0
 14 16  2  0
 15 17  1  0
 15 21  1  0
 16 18  1  0
 17 16  1  0
 17 19  1  0
 18 20  2  0
 20 19  1  0
 21 22  1  0
 23 25  1  0
 23 22  1  0
 24 23  1  0
 26 24  1  0
 27 25  1  0
 28 26  1  0
 28 27  1  0
M  RAD  8   4   2   5   2   6   2   7   2  12   2  17   2  20   2  22   3
M  RAD  6  23   2  24   3  25   3  26   3  27   3  28   3
M  END
>  <REMARK>  (1) 
 SMILES NS(=O)(=O)c1cccc(Nc2nc(OCC3CCCCC3)c3[nH]cnc3n2)c1
 SMILES IDX 10 1 9 3 5 4 6 5 28 6 7 7 8 8 2 9 3 10 4 11 1 12 11 15 12 16
 SMILES IDX 27 17 13 18 26 19 22 20 25 21 23 22 24 23 14 25 15 26 16 27
 SMILES IDX 17 28 21 29 18 30 20 31 19 32
 H PARENT 10 2 1 13 1 14 23 24

>  <TORSDO>  (1) 
F 7

$$$$
