/home/pchatterjee/Documents/git/vs_workflow/DiffDock/diffdock_run/pdbqt_scrubbed/447655.pdbqt
     RDKit          3D

 28 31  0  0  1  0  0  0  0  0999 V2000
    7.0657   42.6599   49.1163 N   0  0  0  0  0  0  0  0  0  0  0  0
    5.7635   42.0871   49.0309 C   0  0  0  0  0  0  0  0  0  0  0  0
    4.0374   40.8538   47.8678 C   0  0  0  0  0  0  0  0  0  0  0  0
    3.1780   40.9846   48.9384 C   0  0  0  0  0  3  0  0  0  0  0  0
    5.3207   41.4010   47.9136 C   0  0  0  0  0  3  0  0  0  0  0  0
    3.5967   41.6645   50.0637 C   0  0  0  0  0  3  0  0  0  0  0  0
    4.8787   42.1981   50.0806 C   0  0  0  0  0  3  0  0  0  0  0  0
    3.4593   39.9832   46.4648 S   0  0  1  0  0  0  0  0  0  0  0  0
    4.5339   39.7829   45.4429 O   0  0  0  0  0  0  0  0  0  0  0  0
    2.9210   38.6455   46.9416 O   0  0  0  0  0  0  0  0  0  0  0  0
    2.1186   40.8703   45.8109 N   0  0  0  0  0  0  0  0  0  0  0  0
    7.6515   42.7759   50.4278 C   0  0  0  0  0  3  0  0  0  0  0  0
    6.8749   43.5117   51.3761 N   0  0  0  0  0  0  0  0  0  0  0  0
    8.9920   43.3143   50.2235 N   0  0  0  0  0  0  0  0  0  0  0  0
    7.0615   44.7863   51.4748 C   0  0  0  0  0  0  0  0  0  0  0  0
    9.1988   44.5837   50.3167 C   0  0  0  0  0  0  0  0  0  0  0  0
    8.0543   45.5089   50.6367 C   0  0  0  0  0  3  0  0  0  0  0  0
   10.3229   45.4523   50.1892 N   0  0  0  0  0  0  0  0  0  0  0  0
    8.7696   46.5347   51.3942 N   0  0  0  0  0  0  0  0  0  0  0  0
   10.0850   46.5764   50.8057 C   0  0  0  0  0  3  0  0  0  0  0  0
    6.3276   45.5499   52.3864 O   0  0  0  0  0  0  0  0  0  0  0  0
    4.9821   45.1728   52.7077 C   0  0  0  0  0  2  0  0  0  0  0  0
    4.0982   45.9419   51.7221 C   0  0  0  0  0  3  0  0  0  0  0  0
    3.8227   47.3477   52.1860 C   0  0  0  0  0  2  0  0  0  0  0  0
    2.8046   45.2112   51.4409 C   0  0  0  0  0  2  0  0  0  0  0  0
    3.0007   47.4332   53.4340 C   0  0  0  0  0  2  0  0  0  0  0  0
    1.7261   45.4978   52.4390 C   0  0  0  0  0  2  0  0  0  0  0  0
    2.2094   46.1781   53.6889 C   0  0  0  0  0  2  0  0  0  0  0  0
  2  1  1  0
  2  7  2  0
  3  5  2  0
  3  4  1  0
  4  6  2  0
  5  2  1  0
  6  7  1  0
  8 10  2  0
  8  3  1  0
  8  9  2  0
  8 11  1  6
 12  1  1  0
 12 14  1  0
 12 13  1  0
 13 15  2  0
 14 16  2  0
 15 17  1  0
 15 21  1  0
 16 18  1  0
 17 16  1  0
 17 19  1  0
 18 20  2  0
 20 19  1  0
 21 22  1  0
 23 25  1  0
 23 22  1  0
 24 23  1  0
 26 24  1  0
 27 25  1  0
 28 26  1  0
 28 27  1  0
M  RAD  8   4   2   5   2   6   2   7   2  12   2  17   2  20   2  22   3
M  RAD  6  23   2  24   3  25   3  26   3  27   3  28   3
M  END
>  <REMARK>  (1) 
 SMILES NS(=O)(=O)c1cccc(Nc2nc(OCC3CCCCC3)c3[nH]cnc3n2)c1
 SMILES IDX 10 1 9 3 5 4 6 5 28 6 7 7 8 8 2 9 3 10 4 11 1 12 11 15 12 16
 SMILES IDX 27 17 13 18 26 19 22 20 25 21 23 22 24 23 14 25 15 26 16 27
 SMILES IDX 17 28 21 29 18 30 20 31 19 32
 H PARENT 10 2 1 13 1 14 23 24

>  <TORSDO>  (1) 
F 7

$$$$
