/home/pchatterjee/Documents/git/vs_workflow/DiffDock/diffdock_run/pdbqt_scrubbed/447655.pdbqt
     RDKit          3D

 28 31  0  0  1  0  0  0  0  0999 V2000
    7.2194   42.6692   48.7025 N   0  0  0  0  0  0  0  0  0  0  0  0
    6.0824   41.9445   48.2408 C   0  0  0  0  0  0  0  0  0  0  0  0
    3.8868   40.9773   48.5524 C   0  0  0  0  0  0  0  0  0  0  0  0
    3.8754   40.5062   47.2563 C   0  0  0  0  0  3  0  0  0  0  0  0
    4.9822   41.6912   49.0412 C   0  0  0  0  0  3  0  0  0  0  0  0
    4.9609   40.7462   46.4390 C   0  0  0  0  0  3  0  0  0  0  0  0
    6.0362   41.4592   46.9527 C   0  0  0  0  0  3  0  0  0  0  0  0
    2.4870   40.6469   49.5483 S   0  0  1  0  0  0  0  0  0  0  0  0
    1.2070   40.9953   48.8559 O   0  0  0  0  0  0  0  0  0  0  0  0
    2.5144   39.1716   49.9076 O   0  0  0  0  0  0  0  0  0  0  0  0
    2.6715   41.5368   51.0269 N   0  0  0  0  0  0  0  0  0  0  0  0
    7.4187   42.7473   50.1276 C   0  0  0  0  0  3  0  0  0  0  0  0
    6.4909   43.5820   50.8250 N   0  0  0  0  0  0  0  0  0  0  0  0
    8.8128   43.1328   50.3183 N   0  0  0  0  0  0  0  0  0  0  0  0
    6.7807   44.8305   50.9873 C   0  0  0  0  0  0  0  0  0  0  0  0
    9.1228   44.3738   50.4811 C   0  0  0  0  0  0  0  0  0  0  0  0
    8.0433   45.4240   50.4738 C   0  0  0  0  0  3  0  0  0  0  0  0
   10.3253   45.1126   50.6879 N   0  0  0  0  0  0  0  0  0  0  0  0
    8.6228   46.3812   51.4150 N   0  0  0  0  0  0  0  0  0  0  0  0
   10.0473   46.2681   51.2245 C   0  0  0  0  0  3  0  0  0  0  0  0
    5.9070   45.6875   51.6619 O   0  0  0  0  0  0  0  0  0  0  0  0
    4.5075   45.6634   51.3511 C   0  0  0  0  0  2  0  0  0  0  0  0
    3.8541   44.8631   52.4810 C   0  0  0  0  0  3  0  0  0  0  0  0
    2.5398   44.2598   52.0614 C   0  0  0  0  0  2  0  0  0  0  0  0
    3.6824   45.6957   53.7314 C   0  0  0  0  0  2  0  0  0  0  0  0
    1.4693   45.2634   51.7659 C   0  0  0  0  0  2  0  0  0  0  0  0
    2.4225   46.5043   53.7438 C   0  0  0  0  0  2  0  0  0  0  0  0
    1.7382   46.5978   52.4090 C   0  0  0  0  0  2  0  0  0  0  0  0
  2  1  1  0
  2  7  2  0
  3  5  2  0
  3  4  1  0
  4  6  2  0
  5  2  1  0
  6  7  1  0
  8 10  2  0
  8  3  1  0
  8  9  2  0
  8 11  1  1
 12  1  1  0
 12 14  1  0
 12 13  1  0
 13 15  2  0
 14 16  2  0
 15 17  1  0
 15 21  1  0
 16 18  1  0
 17 16  1  0
 17 19  1  0
 18 20  2  0
 20 19  1  0
 21 22  1  0
 23 25  1  0
 23 22  1  0
 24 23  1  0
 26 24  1  0
 27 25  1  0
 28 26  1  0
 28 27  1  0
M  RAD  8   4   2   5   2   6   2   7   2  12   2  17   2  20   2  22   3
M  RAD  6  23   2  24   3  25   3  26   3  27   3  28   3
M  END
>  <REMARK>  (1) 
 SMILES NS(=O)(=O)c1cccc(Nc2nc(OCC3CCCCC3)c3[nH]cnc3n2)c1
 SMILES IDX 10 1 9 3 5 4 6 5 28 6 7 7 8 8 2 9 3 10 4 11 1 12 11 15 12 16
 SMILES IDX 27 17 13 18 26 19 22 20 25 21 23 22 24 23 14 25 15 26 16 27
 SMILES IDX 17 28 21 29 18 30 20 31 19 32
 H PARENT 10 2 1 13 1 14 23 24

>  <TORSDO>  (1) 
F 7

$$$$
