/home/pchatterjee/Documents/git/vs_workflow/DiffDock/diffdock_run/pdbqt_scrubbed/447655.pdbqt
     RDKit          3D

 28 31  0  0  1  0  0  0  0  0999 V2000
    7.0189   42.8148   48.4725 N   0  0  0  0  0  0  0  0  0  0  0  0
    5.8283   42.1343   48.0843 C   0  0  0  0  0  0  0  0  0  0  0  0
    3.7602   40.9817   48.5818 C   0  0  0  0  0  0  0  0  0  0  0  0
    3.5005   40.8016   47.2394 C   0  0  0  0  0  3  0  0  0  0  0  0
    4.9156   41.6432   49.0013 C   0  0  0  0  0  3  0  0  0  0  0  0
    4.3957   41.2825   46.3060 C   0  0  0  0  0  3  0  0  0  0  0  0
    5.5364   41.9364   46.7530 C   0  0  0  0  0  3  0  0  0  0  0  0
    2.5946   40.3538   49.7253 S   0  0  1  0  0  0  0  0  0  0  0  0
    1.3622   39.8397   49.0499 O   0  0  0  0  0  0  0  0  0  0  0  0
    3.2720   39.2463   50.5133 O   0  0  0  0  0  0  0  0  0  0  0  0
    2.2207   41.6245   50.8468 N   0  0  0  0  0  0  0  0  0  0  0  0
    7.4330   42.6892   49.8470 C   0  0  0  0  0  3  0  0  0  0  0  0
    6.5788   43.3282   50.7987 N   0  0  0  0  0  0  0  0  0  0  0  0
    8.8153   43.1536   49.8947 N   0  0  0  0  0  0  0  0  0  0  0  0
    6.8180   44.5565   51.1202 C   0  0  0  0  0  0  0  0  0  0  0  0
    9.0749   44.3761   50.2124 C   0  0  0  0  0  0  0  0  0  0  0  0
    7.9487   45.3231   50.5339 C   0  0  0  0  0  3  0  0  0  0  0  0
   10.2503   45.1701   50.3615 N   0  0  0  0  0  0  0  0  0  0  0  0
    8.6118   46.1686   51.5256 N   0  0  0  0  0  0  0  0  0  0  0  0
    9.9934   46.2029   51.1150 C   0  0  0  0  0  3  0  0  0  0  0  0
    6.0122   45.2253   52.0455 O   0  0  0  0  0  0  0  0  0  0  0  0
    4.5855   45.1158   51.9549 C   0  0  0  0  0  2  0  0  0  0  0  0
    4.0359   46.3215   52.7219 C   0  0  0  0  0  3  0  0  0  0  0  0
    4.1657   46.1521   54.2124 C   0  0  0  0  0  2  0  0  0  0  0  0
    2.6031   46.6214   52.3432 C   0  0  0  0  0  2  0  0  0  0  0  0
    3.3308   45.0473   54.7804 C   0  0  0  0  0  2  0  0  0  0  0  0
    1.5998   45.8274   53.1205 C   0  0  0  0  0  2  0  0  0  0  0  0
    2.1855   44.6698   53.8791 C   0  0  0  0  0  2  0  0  0  0  0  0
  2  1  1  0
  2  7  2  0
  3  5  2  0
  3  4  1  0
  4  6  2  0
  5  2  1  0
  6  7  1  0
  8 10  2  0
  8  3  1  0
  8  9  2  0
  8 11  1  1
 12  1  1  0
 12 14  1  0
 12 13  1  0
 13 15  2  0
 14 16  2  0
 15 17  1  0
 15 21  1  0
 16 18  1  0
 17 16  1  0
 17 19  1  0
 18 20  2  0
 20 19  1  0
 21 22  1  0
 23 25  1  0
 23 22  1  0
 24 23  1  0
 26 24  1  0
 27 25  1  0
 28 26  1  0
 28 27  1  0
M  RAD  8   4   2   5   2   6   2   7   2  12   2  17   2  20   2  22   3
M  RAD  6  23   2  24   3  25   3  26   3  27   3  28   3
M  END
>  <REMARK>  (1) 
 SMILES NS(=O)(=O)c1cccc(Nc2nc(OCC3CCCCC3)c3[nH]cnc3n2)c1
 SMILES IDX 10 1 9 3 5 4 6 5 28 6 7 7 8 8 2 9 3 10 4 11 1 12 11 15 12 16
 SMILES IDX 27 17 13 18 26 19 22 20 25 21 23 22 24 23 14 25 15 26 16 27
 SMILES IDX 17 28 21 29 18 30 20 31 19 32
 H PARENT 10 2 1 13 1 14 23 24

>  <TORSDO>  (1) 
F 7

$$$$
