/home/pchatterjee/Documents/git/vs_workflow/DiffDock/diffdock_run/pdbqt_scrubbed/447655.pdbqt
     RDKit          3D

 28 31  0  0  1  0  0  0  0  0999 V2000
    7.1988   42.8411   48.5279 N   0  0  0  0  0  0  0  0  0  0  0  0
    6.0548   42.1078   48.0981 C   0  0  0  0  0  0  0  0  0  0  0  0
    3.9721   40.9492   48.5142 C   0  0  0  0  0  0  0  0  0  0  0  0
    3.8249   40.6656   47.1727 C   0  0  0  0  0  3  0  0  0  0  0  0
    5.0788   41.6650   48.9738 C   0  0  0  0  0  3  0  0  0  0  0  0
    4.7849   41.0966   46.2802 C   0  0  0  0  0  3  0  0  0  0  0  0
    5.8749   41.8065   46.7663 C   0  0  0  0  0  3  0  0  0  0  0  0
    2.7279   40.3810   49.6050 S   0  0  1  0  0  0  0  0  0  0  0  0
    1.5428   39.8340   48.8733 O   0  0  0  0  0  0  0  0  0  0  0  0
    3.3450   39.3145   50.4930 O   0  0  0  0  0  0  0  0  0  0  0  0
    2.2832   41.7073   50.6323 N   0  0  0  0  0  0  0  0  0  0  0  0
    7.5511   42.7574   49.9227 C   0  0  0  0  0  3  0  0  0  0  0  0
    6.6536   43.4210   50.8159 N   0  0  0  0  0  0  0  0  0  0  0  0
    8.9288   43.2281   50.0185 N   0  0  0  0  0  0  0  0  0  0  0  0
    6.8752   44.6590   51.1114 C   0  0  0  0  0  0  0  0  0  0  0  0
    9.1710   44.4603   50.3113 C   0  0  0  0  0  0  0  0  0  0  0  0
    8.0294   45.4122   50.5540 C   0  0  0  0  0  3  0  0  0  0  0  0
   10.3367   45.2626   50.4894 N   0  0  0  0  0  0  0  0  0  0  0  0
    8.6453   46.2889   51.5489 N   0  0  0  0  0  0  0  0  0  0  0  0
   10.0438   46.3162   51.1998 C   0  0  0  0  0  3  0  0  0  0  0  0
    6.0272   45.3518   51.9796 O   0  0  0  0  0  0  0  0  0  0  0  0
    4.6731   44.9127   52.1505 C   0  0  0  0  0  2  0  0  0  0  0  0
    3.8225   45.8931   51.3385 C   0  0  0  0  0  3  0  0  0  0  0  0
    3.5363   47.1603   52.0998 C   0  0  0  0  0  2  0  0  0  0  0  0
    2.5365   45.2574   50.8607 C   0  0  0  0  0  2  0  0  0  0  0  0
    2.6758   46.9694   53.3096 C   0  0  0  0  0  2  0  0  0  0  0  0
    1.4280   45.3214   51.8649 C   0  0  0  0  0  2  0  0  0  0  0  0
    1.8736   45.6969   53.2502 C   0  0  0  0  0  2  0  0  0  0  0  0
  2  1  1  0
  2  7  2  0
  3  5  2  0
  3  4  1  0
  4  6  2  0
  5  2  1  0
  6  7  1  0
  8 10  2  0
  8  3  1  0
  8  9  2  0
  8 11  1  1
 12  1  1  0
 12 14  1  0
 12 13  1  0
 13 15  2  0
 14 16  2  0
 15 17  1  0
 15 21  1  0
 16 18  1  0
 17 16  1  0
 17 19  1  0
 18 20  2  0
 20 19  1  0
 21 22  1  0
 23 25  1  0
 23 22  1  0
 24 23  1  0
 26 24  1  0
 27 25  1  0
 28 26  1  0
 28 27  1  0
M  RAD  8   4   2   5   2   6   2   7   2  12   2  17   2  20   2  22   3
M  RAD  6  23   2  24   3  25   3  26   3  27   3  28   3
M  END
>  <REMARK>  (1) 
 SMILES NS(=O)(=O)c1cccc(Nc2nc(OCC3CCCCC3)c3[nH]cnc3n2)c1
 SMILES IDX 10 1 9 3 5 4 6 5 28 6 7 7 8 8 2 9 3 10 4 11 1 12 11 15 12 16
 SMILES IDX 27 17 13 18 26 19 22 20 25 21 23 22 24 23 14 25 15 26 16 27
 SMILES IDX 17 28 21 29 18 30 20 31 19 32
 H PARENT 10 2 1 13 1 14 23 24

>  <TORSDO>  (1) 
F 7

$$$$
