/home/pchatterjee/Documents/git/vs_workflow/DiffDock/diffdock_run/pdbqt_scrubbed/447655.pdbqt
     RDKit          3D

 28 31  0  0  1  0  0  0  0  0999 V2000
    7.2917   42.7625   48.5519 N   0  0  0  0  0  0  0  0  0  0  0  0
    6.1100   42.0544   48.1870 C   0  0  0  0  0  0  0  0  0  0  0  0
    3.8909   41.2081   48.6482 C   0  0  0  0  0  0  0  0  0  0  0  0
    3.8115   40.6417   47.3934 C   0  0  0  0  0  3  0  0  0  0  0  0
    5.0316   41.9094   49.0424 C   0  0  0  0  0  3  0  0  0  0  0  0
    4.8740   40.7728   46.5228 C   0  0  0  0  0  3  0  0  0  0  0  0
    5.9956   41.4758   46.9425 C   0  0  0  0  0  3  0  0  0  0  0  0
    2.5177   41.0139   49.7147 S   0  0  1  0  0  0  0  0  0  0  0  0
    1.2693   40.6617   48.9686 O   0  0  0  0  0  0  0  0  0  0  0  0
    2.8633   39.9277   50.7184 O   0  0  0  0  0  0  0  0  0  0  0  0
    2.3298   42.4919   50.6049 N   0  0  0  0  0  0  0  0  0  0  0  0
    7.6444   42.7832   49.9490 C   0  0  0  0  0  3  0  0  0  0  0  0
    6.7132   43.4562   50.7998 N   0  0  0  0  0  0  0  0  0  0  0  0
    8.9971   43.3261   50.0145 N   0  0  0  0  0  0  0  0  0  0  0  0
    6.8730   44.7196   51.0174 C   0  0  0  0  0  0  0  0  0  0  0  0
    9.1777   44.5846   50.2298 C   0  0  0  0  0  0  0  0  0  0  0  0
    7.9902   45.4925   50.4135 C   0  0  0  0  0  3  0  0  0  0  0  0
   10.3022   45.4528   50.3569 N   0  0  0  0  0  0  0  0  0  0  0  0
    8.5599   46.4586   51.3515 N   0  0  0  0  0  0  0  0  0  0  0  0
    9.9562   46.5328   51.0005 C   0  0  0  0  0  3  0  0  0  0  0  0
    5.9899   45.4226   51.8413 O   0  0  0  0  0  0  0  0  0  0  0  0
    4.7697   44.8020   52.2674 C   0  0  0  0  0  2  0  0  0  0  0  0
    3.7647   45.0675   51.1433 C   0  0  0  0  0  3  0  0  0  0  0  0
    3.2957   46.4982   51.1287 C   0  0  0  0  0  2  0  0  0  0  0  0
    2.5867   44.1219   51.2094 C   0  0  0  0  0  2  0  0  0  0  0  0
    2.4934   46.8943   52.3287 C   0  0  0  0  0  2  0  0  0  0  0  0
    1.4967   44.5867   52.1244 C   0  0  0  0  0  2  0  0  0  0  0  0
    1.8987   45.7084   53.0403 C   0  0  0  0  0  2  0  0  0  0  0  0
  2  1  1  0
  2  7  2  0
  3  5  2  0
  3  4  1  0
  4  6  2  0
  5  2  1  0
  6  7  1  0
  8 10  2  0
  8  3  1  0
  8  9  2  0
  8 11  1  1
 12  1  1  0
 12 14  1  0
 12 13  1  0
 13 15  2  0
 14 16  2  0
 15 17  1  0
 15 21  1  0
 16 18  1  0
 17 16  1  0
 17 19  1  0
 18 20  2  0
 20 19  1  0
 21 22  1  0
 23 25  1  0
 23 22  1  0
 24 23  1  0
 26 24  1  0
 27 25  1  0
 28 26  1  0
 28 27  1  0
M  RAD  8   4   2   5   2   6   2   7   2  12   2  17   2  20   2  22   3
M  RAD  6  23   2  24   3  25   3  26   3  27   3  28   3
M  END
>  <REMARK>  (1) 
 SMILES NS(=O)(=O)c1cccc(Nc2nc(OCC3CCCCC3)c3[nH]cnc3n2)c1
 SMILES IDX 10 1 9 3 5 4 6 5 28 6 7 7 8 8 2 9 3 10 4 11 1 12 11 15 12 16
 SMILES IDX 27 17 13 18 26 19 22 20 25 21 23 22 24 23 14 25 15 26 16 27
 SMILES IDX 17 28 21 29 18 30 20 31 19 32
 H PARENT 10 2 1 13 1 14 23 24

>  <TORSDO>  (1) 
F 7

$$$$
