/home/pchatterjee/Documents/git/vs_workflow/DiffDock/diffdock_run/pdbqt_scrubbed/447655.pdbqt
     RDKit          3D

 28 31  0  0  1  0  0  0  0  0999 V2000
    7.1198   42.7296   48.8452 N   0  0  0  0  0  0  0  0  0  0  0  0
    5.8596   42.0917   48.6554 C   0  0  0  0  0  0  0  0  0  0  0  0
    4.1693   41.0573   47.2675 C   0  0  0  0  0  0  0  0  0  0  0  0
    3.3589   40.8389   48.3618 C   0  0  0  0  0  3  0  0  0  0  0  0
    5.4105   41.6791   47.4130 C   0  0  0  0  0  3  0  0  0  0  0  0
    3.7849   41.2415   49.6110 C   0  0  0  0  0  3  0  0  0  0  0  0
    5.0243   41.8574   49.7251 C   0  0  0  0  0  3  0  0  0  0  0  0
    3.5840   40.5287   45.7059 S   0  0  1  0  0  0  0  0  0  0  0  0
    2.6706   39.3485   45.8157 O   0  0  0  0  0  0  0  0  0  0  0  0
    2.8651   41.7012   45.0618 O   0  0  0  0  0  0  0  0  0  0  0  0
    4.9665   40.1719   44.7192 N   0  0  0  0  0  0  0  0  0  0  0  0
    7.6208   42.8141   50.1937 C   0  0  0  0  0  3  0  0  0  0  0  0
    6.7988   43.5524   51.1010 N   0  0  0  0  0  0  0  0  0  0  0  0
    8.9824   43.3270   50.0857 N   0  0  0  0  0  0  0  0  0  0  0  0
    7.0043   44.8211   51.2319 C   0  0  0  0  0  0  0  0  0  0  0  0
    9.2082   44.5902   50.2123 C   0  0  0  0  0  0  0  0  0  0  0  0
    8.0641   45.5346   50.4718 C   0  0  0  0  0  3  0  0  0  0  0  0
   10.3555   45.4366   50.1720 N   0  0  0  0  0  0  0  0  0  0  0  0
    8.7489   46.5340   51.2904 N   0  0  0  0  0  0  0  0  0  0  0  0
   10.1005   46.5564   50.7895 C   0  0  0  0  0  3  0  0  0  0  0  0
    6.2278   45.5868   52.1058 O   0  0  0  0  0  0  0  0  0  0  0  0
    4.8092   45.3857   52.1572 C   0  0  0  0  0  2  0  0  0  0  0  0
    4.2467   46.6323   52.8454 C   0  0  0  0  0  3  0  0  0  0  0  0
    4.4928   46.6192   54.3309 C   0  0  0  0  0  2  0  0  0  0  0  0
    2.7754   46.8196   52.5513 C   0  0  0  0  0  2  0  0  0  0  0  0
    3.7664   45.5354   55.0646 C   0  0  0  0  0  2  0  0  0  0  0  0
    1.8783   46.0570   53.4760 C   0  0  0  0  0  2  0  0  0  0  0  0
    2.5834   45.0121   54.2944 C   0  0  0  0  0  2  0  0  0  0  0  0
  2  1  1  0
  2  7  2  0
  3  5  2  0
  3  4  1  0
  4  6  2  0
  5  2  1  0
  6  7  1  0
  8 10  2  0
  8  3  1  0
  8  9  2  0
  8 11  1  6
 12  1  1  0
 12 14  1  0
 12 13  1  0
 13 15  2  0
 14 16  2  0
 15 17  1  0
 15 21  1  0
 16 18  1  0
 17 16  1  0
 17 19  1  0
 18 20  2  0
 20 19  1  0
 21 22  1  0
 23 25  1  0
 23 22  1  0
 24 23  1  0
 26 24  1  0
 27 25  1  0
 28 26  1  0
 28 27  1  0
M  RAD  8   4   2   5   2   6   2   7   2  12   2  17   2  20   2  22   3
M  RAD  6  23   2  24   3  25   3  26   3  27   3  28   3
M  END
>  <REMARK>  (1) 
 SMILES NS(=O)(=O)c1cccc(Nc2nc(OCC3CCCCC3)c3[nH]cnc3n2)c1
 SMILES IDX 10 1 9 3 5 4 6 5 28 6 7 7 8 8 2 9 3 10 4 11 1 12 11 15 12 16
 SMILES IDX 27 17 13 18 26 19 22 20 25 21 23 22 24 23 14 25 15 26 16 27
 SMILES IDX 17 28 21 29 18 30 20 31 19 32
 H PARENT 10 2 1 13 1 14 23 24

>  <TORSDO>  (1) 
F 7

$$$$
