/home/pchatterjee/Documents/git/vs_workflow/DiffDock/diffdock_run/pdbqt_scrubbed/Z357964720.pdbqt
     RDKit          3D

 27 30  0  0  1  0  0  0  0  0999 V2000
    6.1256   62.8875   84.4899 C   0  0  0  0  0  0  0  0  0  0  0  0
    7.4205   63.3591   84.5668 C   0  0  0  0  0  3  0  0  0  0  0  0
    7.8132   64.4013   83.7478 C   0  0  0  0  0  3  0  0  0  0  0  0
    6.9102   64.9776   82.8461 C   0  0  0  0  0  0  0  0  0  0  0  0
    5.6162   64.5045   82.7708 C   0  0  0  0  0  3  0  0  0  0  0  0
    5.2198   63.4496   83.6003 C   0  0  0  0  0  3  0  0  0  0  0  0
    5.6971   61.5672   85.5551 S   0  0  1  0  0  0  0  0  0  0  0  0
    6.0024   60.2352   84.9595 O   0  0  0  0  0  0  0  0  0  0  0  0
    6.4218   61.6722   86.8695 O   0  0  0  0  0  0  0  0  0  0  0  0
    3.9866   61.6265   85.8561 N   0  0  0  0  0  0  0  0  0  0  0  0
    7.3894   66.0512   82.0322 N   0  0  0  0  0  0  0  0  0  0  0  0
    8.7458   66.4725   82.1210 C   0  0  0  0  0  0  0  0  0  0  0  0
    9.4478   66.0619   83.0918 N   0  0  0  0  0  0  0  0  0  0  0  0
    9.2413   67.3505   81.0880 N   0  0  0  0  0  2  0  0  0  0  0  0
   10.8008   66.4011   83.2995 C   0  0  0  0  0  3  0  0  0  0  0  0
   10.6215   67.7793   81.1783 C   0  0  0  0  0  0  0  0  0  0  0  0
   11.3172   67.2932   82.2567 C   0  0  0  0  0  0  0  0  0  0  0  0
   11.1696   68.6205   80.2269 C   0  0  0  0  0  3  0  0  0  0  0  0
   12.6436   67.6880   82.3688 C   0  0  0  0  0  3  0  0  0  0  0  0
   12.5090   68.9993   80.3693 C   0  0  0  0  0  3  0  0  0  0  0  0
   13.2061   68.5179   81.4416 C   0  0  0  0  0  3  0  0  0  0  0  0
   11.7059   65.2220   83.3416 C   0  0  0  0  0  0  0  0  0  0  0  0
   11.4073   64.0917   84.1122 C   0  0  0  0  0  3  0  0  0  0  0  0
   12.8896   65.1527   82.6362 C   0  0  0  0  0  3  0  0  0  0  0  0
   12.2314   63.0062   84.1567 C   0  0  0  0  0  3  0  0  0  0  0  0
   13.7332   64.0686   82.6679 C   0  0  0  0  0  3  0  0  0  0  0  0
   13.3959   62.9877   83.4372 C   0  0  0  0  0  3  0  0  0  0  0  0
  1  2  2  0
  1  7  1  0
  3  2  1  0
  4  3  2  0
  5  4  1  0
  5  6  2  0
  6  1  1  0
  7 10  1  1
  7  9  2  0
  8  7  2  0
 11  4  1  0
 12 11  1  0
 13 12  2  0
 14 12  1  0
 15 22  1  0
 15 13  1  0
 16 14  1  0
 17 15  1  0
 17 16  2  0
 18 16  1  0
 19 17  1  0
 20 18  2  0
 21 19  2  0
 21 20  1  0
 22 23  2  0
 24 22  1  0
 25 23  1  0
 26 27  1  0
 26 24  2  0
 27 25  2  0
M  RAD  8   2   2   3   2   5   2   6   2  14   2  15   2  18   2  19   2
M  RAD  7  20   2  21   2  23   2  24   2  25   2  26   2  27   2
M  END
>  <REMARK>  (1) 
 SMILES NS(=O)(=O)c1ccc(Nc2nc(-c3ccccc3)c3ccccc3n2)cc1
 SMILES IDX 5 1 6 2 7 3 8 4 26 5 27 6 2 7 3 8 4 9 1 10 9 13 10 15 11 16
 SMILES IDX 25 17 12 18 24 19 19 20 23 21 20 22 22 23 21 24 13 25 14 26
 SMILES IDX 18 27 15 28 17 29 16 30
 H PARENT 1 11 1 12 9 14

>  <TORSDO>  (1) 
F 5

$$$$
