/home/pchatterjee/Documents/git/vs_workflow/DiffDock/diffdock_run/pdbqt_scrubbed/Z357964720.pdbqt
     RDKit          3D

 27 30  0  0  1  0  0  0  0  0999 V2000
    3.5861   40.4266   48.9410 C   0  0  0  0  0  0  0  0  0  0  0  0
    4.6144   40.0504   48.1007 C   0  0  0  0  0  3  0  0  0  0  0  0
    5.8045   40.7533   48.1272 C   0  0  0  0  0  3  0  0  0  0  0  0
    5.9716   41.8381   48.9966 C   0  0  0  0  0  0  0  0  0  0  0  0
    4.9423   42.2125   49.8358 C   0  0  0  0  0  3  0  0  0  0  0  0
    3.7381   41.5003   49.8081 C   0  0  0  0  0  3  0  0  0  0  0  0
    2.1085   39.4933   48.8548 S   0  0  1  0  0  0  0  0  0  0  0  0
    1.8050   39.0375   47.4684 O   0  0  0  0  0  0  0  0  0  0  0  0
    2.1786   38.2814   49.7438 O   0  0  0  0  0  0  0  0  0  0  0  0
    0.7868   40.4924   49.3786 N   0  0  0  0  0  0  0  0  0  0  0  0
    7.2304   42.5158   48.9670 N   0  0  0  0  0  0  0  0  0  0  0  0
    7.4253   43.7067   49.7213 C   0  0  0  0  0  0  0  0  0  0  0  0
    6.4288   44.4564   49.9423 N   0  0  0  0  0  0  0  0  0  0  0  0
    8.7605   43.9880   50.1919 N   0  0  0  0  0  2  0  0  0  0  0  0
    6.4819   45.6615   50.6728 C   0  0  0  0  0  3  0  0  0  0  0  0
    8.9590   45.1999   50.9594 C   0  0  0  0  0  0  0  0  0  0  0  0
    7.8333   45.9596   51.1571 C   0  0  0  0  0  0  0  0  0  0  0  0
   10.2090   45.5387   51.4450 C   0  0  0  0  0  3  0  0  0  0  0  0
    7.9940   47.1279   51.8902 C   0  0  0  0  0  3  0  0  0  0  0  0
   10.3364   46.7225   52.1798 C   0  0  0  0  0  3  0  0  0  0  0  0
    9.2185   47.4826   52.3794 C   0  0  0  0  0  3  0  0  0  0  0  0
    5.5886   45.6717   51.8617 C   0  0  0  0  0  0  0  0  0  0  0  0
    6.0622   45.3570   53.1412 C   0  0  0  0  0  3  0  0  0  0  0  0
    4.2470   45.9867   51.7958 C   0  0  0  0  0  3  0  0  0  0  0  0
    5.2503   45.3638   54.2367 C   0  0  0  0  0  3  0  0  0  0  0  0
    3.4127   45.9992   52.8876 C   0  0  0  0  0  3  0  0  0  0  0  0
    3.9246   45.6839   54.1174 C   0  0  0  0  0  3  0  0  0  0  0  0
  1  2  2  0
  1  7  1  0
  3  2  1  0
  4  3  2  0
  5  4  1  0
  5  6  2  0
  6  1  1  0
  7 10  1  1
  7  9  2  0
  8  7  2  0
 11  4  1  0
 12 11  1  0
 13 12  2  0
 14 12  1  0
 15 22  1  0
 15 13  1  0
 16 14  1  0
 17 15  1  0
 17 16  2  0
 18 16  1  0
 19 17  1  0
 20 18  2  0
 21 19  2  0
 21 20  1  0
 22 23  2  0
 24 22  1  0
 25 23  1  0
 26 27  1  0
 26 24  2  0
 27 25  2  0
M  RAD  8   2   2   3   2   5   2   6   2  14   2  15   2  18   2  19   2
M  RAD  7  20   2  21   2  23   2  24   2  25   2  26   2  27   2
M  END
>  <REMARK>  (1) 
 SMILES NS(=O)(=O)c1ccc(Nc2nc(-c3ccccc3)c3ccccc3n2)cc1
 SMILES IDX 5 1 6 2 7 3 8 4 26 5 27 6 2 7 3 8 4 9 1 10 9 13 10 15 11 16
 SMILES IDX 25 17 12 18 24 19 19 20 23 21 20 22 22 23 21 24 13 25 14 26
 SMILES IDX 18 27 15 28 17 29 16 30
 H PARENT 1 11 1 12 9 14

>  <TORSDO>  (1) 
F 5

$$$$
