/home/pchatterjee/Documents/git/vs_workflow/DiffDock/diffdock_run/pdbqt_scrubbed/Z357964720.pdbqt
     RDKit          3D

 27 30  0  0  1  0  0  0  0  0999 V2000
    3.5653   40.6412   48.6192 C   0  0  0  0  0  0  0  0  0  0  0  0
    4.5515   40.3815   47.6891 C   0  0  0  0  0  3  0  0  0  0  0  0
    5.7377   41.0896   47.7416 C   0  0  0  0  0  3  0  0  0  0  0  0
    5.9431   42.0628   48.7271 C   0  0  0  0  0  0  0  0  0  0  0  0
    4.9558   42.3209   49.6560 C   0  0  0  0  0  3  0  0  0  0  0  0
    3.7556   41.6036   49.6019 C   0  0  0  0  0  3  0  0  0  0  0  0
    2.0903   39.7085   48.4939 S   0  0  1  0  0  0  0  0  0  0  0  0
    2.1954   38.3859   49.1736 O   0  0  0  0  0  0  0  0  0  0  0  0
    0.9250   40.4518   49.0885 O   0  0  0  0  0  0  0  0  0  0  0  0
    1.7611   39.4091   46.8141 N   0  0  0  0  0  0  0  0  0  0  0  0
    7.1951   42.7535   48.7174 N   0  0  0  0  0  0  0  0  0  0  0  0
    7.4113   43.8652   49.5792 C   0  0  0  0  0  0  0  0  0  0  0  0
    6.4331   44.6215   49.8530 N   0  0  0  0  0  0  0  0  0  0  0  0
    8.7458   44.0627   50.0923 N   0  0  0  0  0  2  0  0  0  0  0  0
    6.5082   45.7537   50.6904 C   0  0  0  0  0  3  0  0  0  0  0  0
    8.9658   45.1940   50.9693 C   0  0  0  0  0  0  0  0  0  0  0  0
    7.8593   45.9662   51.2189 C   0  0  0  0  0  0  0  0  0  0  0  0
   10.2167   45.4499   51.5013 C   0  0  0  0  0  3  0  0  0  0  0  0
    8.0409   47.0583   52.0570 C   0  0  0  0  0  3  0  0  0  0  0  0
   10.3655   46.5584   52.3420 C   0  0  0  0  0  3  0  0  0  0  0  0
    9.2666   47.3306   52.5938 C   0  0  0  0  0  3  0  0  0  0  0  0
    5.5956   45.6835   51.8625 C   0  0  0  0  0  0  0  0  0  0  0  0
    4.2954   46.2006   51.8153 C   0  0  0  0  0  3  0  0  0  0  0  0
    5.9546   45.1127   53.0662 C   0  0  0  0  0  3  0  0  0  0  0  0
    3.4520   46.1406   52.8850 C   0  0  0  0  0  3  0  0  0  0  0  0
    5.1196   45.0425   54.1553 C   0  0  0  0  0  3  0  0  0  0  0  0
    3.8573   45.5630   54.0581 C   0  0  0  0  0  3  0  0  0  0  0  0
  1  2  2  0
  1  7  1  0
  3  2  1  0
  4  3  2  0
  5  4  1  0
  5  6  2  0
  6  1  1  0
  7 10  1  6
  7  9  2  0
  8  7  2  0
 11  4  1  0
 12 11  1  0
 13 12  2  0
 14 12  1  0
 15 22  1  0
 15 13  1  0
 16 14  1  0
 17 15  1  0
 17 16  2  0
 18 16  1  0
 19 17  1  0
 20 18  2  0
 21 19  2  0
 21 20  1  0
 22 23  2  0
 24 22  1  0
 25 23  1  0
 26 27  1  0
 26 24  2  0
 27 25  2  0
M  RAD  8   2   2   3   2   5   2   6   2  14   2  15   2  18   2  19   2
M  RAD  7  20   2  21   2  23   2  24   2  25   2  26   2  27   2
M  END
>  <REMARK>  (1) 
 SMILES NS(=O)(=O)c1ccc(Nc2nc(-c3ccccc3)c3ccccc3n2)cc1
 SMILES IDX 5 1 6 2 7 3 8 4 26 5 27 6 2 7 3 8 4 9 1 10 9 13 10 15 11 16
 SMILES IDX 25 17 12 18 24 19 19 20 23 21 20 22 22 23 21 24 13 25 14 26
 SMILES IDX 18 27 15 28 17 29 16 30
 H PARENT 1 11 1 12 9 14

>  <TORSDO>  (1) 
F 5

$$$$
