/home/pchatterjee/Documents/git/vs_workflow/DiffDock/diffdock_run/pdbqt_scrubbed/Z357964720.pdbqt
     RDKit          3D

 27 30  0  0  1  0  0  0  0  0999 V2000
   14.4423   88.4823   65.1101 C   0  0  0  0  0  0  0  0  0  0  0  0
   15.1868   87.4658   65.6738 C   0  0  0  0  0  3  0  0  0  0  0  0
   14.7717   86.9006   66.8653 C   0  0  0  0  0  3  0  0  0  0  0  0
   13.6074   87.3508   67.4995 C   0  0  0  0  0  0  0  0  0  0  0  0
   12.8647   88.3671   66.9343 C   0  0  0  0  0  3  0  0  0  0  0  0
   13.2857   88.9384   65.7283 C   0  0  0  0  0  3  0  0  0  0  0  0
   15.0256   89.1513   63.6023 S   0  0  1  0  0  0  0  0  0  0  0  0
   15.6057   88.1108   62.7062 O   0  0  0  0  0  0  0  0  0  0  0  0
   13.9232   89.8531   62.8566 O   0  0  0  0  0  0  0  0  0  0  0  0
   16.2813   90.3008   63.9512 N   0  0  0  0  0  0  0  0  0  0  0  0
   13.2422   86.7178   68.7286 N   0  0  0  0  0  0  0  0  0  0  0  0
   14.0354   85.6618   69.2585 C   0  0  0  0  0  0  0  0  0  0  0  0
   14.9845   85.2030   68.5566 N   0  0  0  0  0  0  0  0  0  0  0  0
   13.7048   85.1749   70.5765 N   0  0  0  0  0  2  0  0  0  0  0  0
   15.8451   84.1610   68.9594 C   0  0  0  0  0  3  0  0  0  0  0  0
   14.5119   84.1003   71.1158 C   0  0  0  0  0  0  0  0  0  0  0  0
   15.5203   83.6568   70.2974 C   0  0  0  0  0  0  0  0  0  0  0  0
   14.2576   83.5800   72.3719 C   0  0  0  0  0  3  0  0  0  0  0  0
   16.3107   82.6265   70.7889 C   0  0  0  0  0  3  0  0  0  0  0  0
   15.0728   82.5424   72.8373 C   0  0  0  0  0  3  0  0  0  0  0  0
   16.0783   82.0972   72.0261 C   0  0  0  0  0  3  0  0  0  0  0  0
   17.2786   84.5556   68.9865 C   0  0  0  0  0  0  0  0  0  0  0  0
   18.1320   84.3046   67.9052 C   0  0  0  0  0  3  0  0  0  0  0  0
   17.8676   85.1889   70.0615 C   0  0  0  0  0  3  0  0  0  0  0  0
   19.4475   84.6629   67.9215 C   0  0  0  0  0  3  0  0  0  0  0  0
   19.1908   85.5579   70.0971 C   0  0  0  0  0  3  0  0  0  0  0  0
   19.9837   85.2898   69.0140 C   0  0  0  0  0  3  0  0  0  0  0  0
  1  2  2  0
  1  7  1  0
  3  2  1  0
  4  3  2  0
  5  4  1  0
  5  6  2  0
  6  1  1  0
  7 10  1  1
  7  9  2  0
  8  7  2  0
 11  4  1  0
 12 11  1  0
 13 12  2  0
 14 12  1  0
 15 22  1  0
 15 13  1  0
 16 14  1  0
 17 15  1  0
 17 16  2  0
 18 16  1  0
 19 17  1  0
 20 18  2  0
 21 19  2  0
 21 20  1  0
 22 23  2  0
 24 22  1  0
 25 23  1  0
 26 27  1  0
 26 24  2  0
 27 25  2  0
M  RAD  8   2   2   3   2   5   2   6   2  14   2  15   2  18   2  19   2
M  RAD  7  20   2  21   2  23   2  24   2  25   2  26   2  27   2
M  END
>  <REMARK>  (1) 
 SMILES NS(=O)(=O)c1ccc(Nc2nc(-c3ccccc3)c3ccccc3n2)cc1
 SMILES IDX 5 1 6 2 7 3 8 4 26 5 27 6 2 7 3 8 4 9 1 10 9 13 10 15 11 16
 SMILES IDX 25 17 12 18 24 19 19 20 23 21 20 22 22 23 21 24 13 25 14 26
 SMILES IDX 18 27 15 28 17 29 16 30
 H PARENT 1 11 1 12 9 14

>  <TORSDO>  (1) 
F 5

$$$$
