/home/pchatterjee/Documents/git/vs_workflow/DiffDock/diffdock_run/pdbqt_scrubbed/Z357964720.pdbqt
     RDKit          3D

 27 30  0  0  1  0  0  0  0  0999 V2000
    3.6749   40.8908   48.7313 C   0  0  0  0  0  0  0  0  0  0  0  0
    4.0065   41.7266   49.7785 C   0  0  0  0  0  3  0  0  0  0  0  0
    5.2185   42.3914   49.7590 C   0  0  0  0  0  3  0  0  0  0  0  0
    6.1061   42.2226   48.6892 C   0  0  0  0  0  0  0  0  0  0  0  0
    5.7725   41.3866   47.6434 C   0  0  0  0  0  3  0  0  0  0  0  0
    4.5455   40.7142   47.6642 C   0  0  0  0  0  3  0  0  0  0  0  0
    2.1261   40.0817   48.8213 S   0  0  1  0  0  0  0  0  0  0  0  0
    1.4689   39.9638   47.4884 O   0  0  0  0  0  0  0  0  0  0  0  0
    2.2676   38.7000   49.4000 O   0  0  0  0  0  0  0  0  0  0  0  0
    1.0714   41.0089   49.8448 N   0  0  0  0  0  0  0  0  0  0  0  0
    7.3402   42.9431   48.7397 N   0  0  0  0  0  0  0  0  0  0  0  0
    7.5333   43.9748   49.7008 C   0  0  0  0  0  0  0  0  0  0  0  0
    6.5773   44.7704   49.9391 N   0  0  0  0  0  0  0  0  0  0  0  0
    8.8201   44.0500   50.3502 N   0  0  0  0  0  2  0  0  0  0  0  0
    6.6338   45.8332   50.8643 C   0  0  0  0  0  3  0  0  0  0  0  0
    9.0167   45.0998   51.3282 C   0  0  0  0  0  0  0  0  0  0  0  0
    7.9364   45.9213   51.5317 C   0  0  0  0  0  0  0  0  0  0  0  0
   10.2218   45.2372   51.9930 C   0  0  0  0  0  3  0  0  0  0  0  0
    8.0964   46.9373   52.4645 C   0  0  0  0  0  3  0  0  0  0  0  0
   10.3498   46.2714   52.9267 C   0  0  0  0  0  3  0  0  0  0  0  0
    9.2769   47.0922   53.1330 C   0  0  0  0  0  3  0  0  0  0  0  0
    5.6082   45.7381   51.9369 C   0  0  0  0  0  0  0  0  0  0  0  0
    4.3314   46.2927   51.7861 C   0  0  0  0  0  3  0  0  0  0  0  0
    5.8327   45.1066   53.1429 C   0  0  0  0  0  3  0  0  0  0  0  0
    3.3850   46.2102   52.7643 C   0  0  0  0  0  3  0  0  0  0  0  0
    4.8925   45.0129   54.1406 C   0  0  0  0  0  3  0  0  0  0  0  0
    3.6585   45.5719   53.9440 C   0  0  0  0  0  3  0  0  0  0  0  0
  1  2  2  0
  1  7  1  0
  3  2  1  0
  4  3  2  0
  5  4  1  0
  5  6  2  0
  6  1  1  0
  7 10  1  1
  7  9  2  0
  8  7  2  0
 11  4  1  0
 12 11  1  0
 13 12  2  0
 14 12  1  0
 15 22  1  0
 15 13  1  0
 16 14  1  0
 17 15  1  0
 17 16  2  0
 18 16  1  0
 19 17  1  0
 20 18  2  0
 21 19  2  0
 21 20  1  0
 22 23  2  0
 24 22  1  0
 25 23  1  0
 26 27  1  0
 26 24  2  0
 27 25  2  0
M  RAD  8   2   2   3   2   5   2   6   2  14   2  15   2  18   2  19   2
M  RAD  7  20   2  21   2  23   2  24   2  25   2  26   2  27   2
M  END
>  <REMARK>  (1) 
 SMILES NS(=O)(=O)c1ccc(Nc2nc(-c3ccccc3)c3ccccc3n2)cc1
 SMILES IDX 5 1 6 2 7 3 8 4 26 5 27 6 2 7 3 8 4 9 1 10 9 13 10 15 11 16
 SMILES IDX 25 17 12 18 24 19 19 20 23 21 20 22 22 23 21 24 13 25 14 26
 SMILES IDX 18 27 15 28 17 29 16 30
 H PARENT 1 11 1 12 9 14

>  <TORSDO>  (1) 
F 5

$$$$
