/home/pchatterjee/Documents/git/vs_workflow/DiffDock/diffdock_run/pdbqt_scrubbed/Z357964720.pdbqt
     RDKit          3D

 27 30  0  0  1  0  0  0  0  0999 V2000
    5.7531   62.5850   83.9182 C   0  0  0  0  0  0  0  0  0  0  0  0
    4.9805   63.2627   82.9968 C   0  0  0  0  0  3  0  0  0  0  0  0
    5.5151   64.3504   82.3316 C   0  0  0  0  0  3  0  0  0  0  0  0
    6.8279   64.7657   82.5858 C   0  0  0  0  0  0  0  0  0  0  0  0
    7.5984   64.0868   83.5073 C   0  0  0  0  0  3  0  0  0  0  0  0
    7.0563   62.9860   84.1800 C   0  0  0  0  0  3  0  0  0  0  0  0
    5.0133   61.2185   84.7226 S   0  0  1  0  0  0  0  0  0  0  0  0
    4.4099   60.2523   83.7612 O   0  0  0  0  0  0  0  0  0  0  0  0
    6.0141   60.4784   85.5679 O   0  0  0  0  0  0  0  0  0  0  0  0
    3.7383   61.8000   85.7502 N   0  0  0  0  0  0  0  0  0  0  0  0
    7.3107   65.8986   81.8591 N   0  0  0  0  0  0  0  0  0  0  0  0
    8.6461   66.3557   82.0413 C   0  0  0  0  0  0  0  0  0  0  0  0
    9.3038   65.9303   83.0365 N   0  0  0  0  0  0  0  0  0  0  0  0
    9.1722   67.2850   81.0703 N   0  0  0  0  0  2  0  0  0  0  0  0
   10.6315   66.3009   83.3344 C   0  0  0  0  0  3  0  0  0  0  0  0
   10.5310   67.7501   81.2557 C   0  0  0  0  0  0  0  0  0  0  0  0
   11.1786   67.2453   82.3553 C   0  0  0  0  0  0  0  0  0  0  0  0
   11.1061   68.6412   80.3678 C   0  0  0  0  0  3  0  0  0  0  0  0
   12.4836   67.6742   82.5581 C   0  0  0  0  0  3  0  0  0  0  0  0
   12.4227   69.0533   80.6012 C   0  0  0  0  0  3  0  0  0  0  0  0
   13.0720   68.5535   81.6948 C   0  0  0  0  0  3  0  0  0  0  0  0
   11.5690   65.1479   83.3880 C   0  0  0  0  0  0  0  0  0  0  0  0
   12.7292   65.1052   82.6053 C   0  0  0  0  0  3  0  0  0  0  0  0
   11.3706   64.0500   84.1998 C   0  0  0  0  0  3  0  0  0  0  0  0
   13.5943   64.0521   82.6482 C   0  0  0  0  0  3  0  0  0  0  0  0
   12.2301   62.9795   84.2572 C   0  0  0  0  0  3  0  0  0  0  0  0
   13.3512   62.9859   83.4717 C   0  0  0  0  0  3  0  0  0  0  0  0
  1  2  2  0
  1  7  1  0
  3  2  1  0
  4  3  2  0
  5  4  1  0
  5  6  2  0
  6  1  1  0
  7 10  1  1
  7  9  2  0
  8  7  2  0
 11  4  1  0
 12 11  1  0
 13 12  2  0
 14 12  1  0
 15 22  1  0
 15 13  1  0
 16 14  1  0
 17 15  1  0
 17 16  2  0
 18 16  1  0
 19 17  1  0
 20 18  2  0
 21 19  2  0
 21 20  1  0
 22 23  2  0
 24 22  1  0
 25 23  1  0
 26 27  1  0
 26 24  2  0
 27 25  2  0
M  RAD  8   2   2   3   2   5   2   6   2  14   2  15   2  18   2  19   2
M  RAD  7  20   2  21   2  23   2  24   2  25   2  26   2  27   2
M  END
>  <REMARK>  (1) 
 SMILES NS(=O)(=O)c1ccc(Nc2nc(-c3ccccc3)c3ccccc3n2)cc1
 SMILES IDX 5 1 6 2 7 3 8 4 26 5 27 6 2 7 3 8 4 9 1 10 9 13 10 15 11 16
 SMILES IDX 25 17 12 18 24 19 19 20 23 21 20 22 22 23 21 24 13 25 14 26
 SMILES IDX 18 27 15 28 17 29 16 30
 H PARENT 1 11 1 12 9 14

>  <TORSDO>  (1) 
F 5

$$$$
