/home/pchatterjee/Documents/git/vs_workflow/DiffDock/diffdock_run/pdbqt_scrubbed/Z357964720.pdbqt
     RDKit          3D

 27 30  0  0  1  0  0  0  0  0999 V2000
    5.1926   67.2047   84.8842 C   0  0  0  0  0  0  0  0  0  0  0  0
    4.7251   65.9939   84.4145 C   0  0  0  0  0  3  0  0  0  0  0  0
    5.5785   65.1622   83.7138 C   0  0  0  0  0  3  0  0  0  0  0  0
    6.9066   65.5389   83.4793 C   0  0  0  0  0  0  0  0  0  0  0  0
    7.3719   66.7498   83.9497 C   0  0  0  0  0  3  0  0  0  0  0  0
    6.5071   67.5908   84.6588 C   0  0  0  0  0  3  0  0  0  0  0  0
    4.0587   68.2069   85.7625 S   0  0  1  0  0  0  0  0  0  0  0  0
    2.6862   67.6254   85.7851 O   0  0  0  0  0  0  0  0  0  0  0  0
    4.5051   68.4147   87.1843 O   0  0  0  0  0  0  0  0  0  0  0  0
    3.9588   69.7544   84.9783 N   0  0  0  0  0  0  0  0  0  0  0  0
    7.7288   64.6264   82.7472 N   0  0  0  0  0  0  0  0  0  0  0  0
    9.1284   64.8543   82.6279 C   0  0  0  0  0  0  0  0  0  0  0  0
    9.5572   65.4906   81.6204 N   0  0  0  0  0  0  0  0  0  0  0  0
    9.9802   64.3405   83.6738 N   0  0  0  0  0  2  0  0  0  0  0  0
   10.9152   65.7847   81.3795 C   0  0  0  0  0  3  0  0  0  0  0  0
   11.4045   64.5724   83.5525 C   0  0  0  0  0  0  0  0  0  0  0  0
   11.7921   65.2682   82.4350 C   0  0  0  0  0  0  0  0  0  0  0  0
   12.2855   64.1112   84.5139 C   0  0  0  0  0  3  0  0  0  0  0  0
   13.1528   65.5052   82.2926 C   0  0  0  0  0  3  0  0  0  0  0  0
   13.6501   64.3670   84.3401 C   0  0  0  0  0  3  0  0  0  0  0  0
   14.0412   65.0595   83.2289 C   0  0  0  0  0  3  0  0  0  0  0  0
   11.1933   67.2412   81.2659 C   0  0  0  0  0  0  0  0  0  0  0  0
   12.4984   67.7468   81.3048 C   0  0  0  0  0  3  0  0  0  0  0  0
   10.2028   68.1899   81.1160 C   0  0  0  0  0  3  0  0  0  0  0  0
   12.7625   69.0805   81.2013 C   0  0  0  0  0  3  0  0  0  0  0  0
   10.4485   69.5377   81.0100 C   0  0  0  0  0  3  0  0  0  0  0  0
   11.7426   69.9817   81.0538 C   0  0  0  0  0  3  0  0  0  0  0  0
  1  2  2  0
  1  7  1  0
  3  2  1  0
  4  3  2  0
  5  4  1  0
  5  6  2  0
  6  1  1  0
  7 10  1  6
  7  9  2  0
  8  7  2  0
 11  4  1  0
 12 11  1  0
 13 12  2  0
 14 12  1  0
 15 22  1  0
 15 13  1  0
 16 14  1  0
 17 15  1  0
 17 16  2  0
 18 16  1  0
 19 17  1  0
 20 18  2  0
 21 19  2  0
 21 20  1  0
 22 23  2  0
 24 22  1  0
 25 23  1  0
 26 27  1  0
 26 24  2  0
 27 25  2  0
M  RAD  8   2   2   3   2   5   2   6   2  14   2  15   2  18   2  19   2
M  RAD  7  20   2  21   2  23   2  24   2  25   2  26   2  27   2
M  END
>  <REMARK>  (1) 
 SMILES NS(=O)(=O)c1ccc(Nc2nc(-c3ccccc3)c3ccccc3n2)cc1
 SMILES IDX 5 1 6 2 7 3 8 4 26 5 27 6 2 7 3 8 4 9 1 10 9 13 10 15 11 16
 SMILES IDX 25 17 12 18 24 19 19 20 23 21 20 22 22 23 21 24 13 25 14 26
 SMILES IDX 18 27 15 28 17 29 16 30
 H PARENT 1 11 1 12 9 14

>  <TORSDO>  (1) 
F 5

$$$$
