/home/pchatterjee/Documents/git/vs_workflow/DiffDock/diffdock_run/pdbqt_scrubbed/Z357964720.pdbqt
     RDKit          3D

 27 30  0  0  1  0  0  0  0  0999 V2000
    6.1158   62.2471   83.9440 C   0  0  0  0  0  0  0  0  0  0  0  0
    7.3745   62.7843   84.1231 C   0  0  0  0  0  3  0  0  0  0  0  0
    7.7121   63.9554   83.4704 C   0  0  0  0  0  3  0  0  0  0  0  0
    6.7898   64.5956   82.6337 C   0  0  0  0  0  0  0  0  0  0  0  0
    5.5320   64.0568   82.4560 C   0  0  0  0  0  3  0  0  0  0  0  0
    5.1914   62.8715   83.1171 C   0  0  0  0  0  3  0  0  0  0  0  0
    5.7563   60.7641   84.8001 S   0  0  1  0  0  0  0  0  0  0  0  0
    5.4166   59.6438   83.8772 O   0  0  0  0  0  0  0  0  0  0  0  0
    6.9182   60.3343   85.6541 O   0  0  0  0  0  0  0  0  0  0  0  0
    4.3800   61.0325   85.8265 N   0  0  0  0  0  0  0  0  0  0  0  0
    7.2115   65.8024   81.9930 N   0  0  0  0  0  0  0  0  0  0  0  0
    8.5433   66.2768   82.1555 C   0  0  0  0  0  0  0  0  0  0  0  0
    9.2261   65.8493   83.1327 N   0  0  0  0  0  0  0  0  0  0  0  0
    9.0372   67.2255   81.1862 N   0  0  0  0  0  2  0  0  0  0  0  0
   10.5538   66.2358   83.4098 C   0  0  0  0  0  3  0  0  0  0  0  0
   10.3924   67.7083   81.3515 C   0  0  0  0  0  0  0  0  0  0  0  0
   11.0683   67.1999   82.4322 C   0  0  0  0  0  0  0  0  0  0  0  0
   10.9374   68.6185   80.4639 C   0  0  0  0  0  3  0  0  0  0  0  0
   12.3705   67.6455   82.6155 C   0  0  0  0  0  3  0  0  0  0  0  0
   12.2521   69.0471   80.6773 C   0  0  0  0  0  3  0  0  0  0  0  0
   12.9294   68.5437   81.7521 C   0  0  0  0  0  3  0  0  0  0  0  0
   11.5088   65.0961   83.4314 C   0  0  0  0  0  0  0  0  0  0  0  0
   12.8289   65.2332   82.9851 C   0  0  0  0  0  3  0  0  0  0  0  0
   11.1727   63.8373   83.8853 C   0  0  0  0  0  3  0  0  0  0  0  0
   13.7112   64.1937   83.0013 C   0  0  0  0  0  3  0  0  0  0  0  0
   12.0469   62.7775   83.9096 C   0  0  0  0  0  3  0  0  0  0  0  0
   13.3272   62.9631   83.4621 C   0  0  0  0  0  3  0  0  0  0  0  0
  1  2  2  0
  1  7  1  0
  3  2  1  0
  4  3  2  0
  5  4  1  0
  5  6  2  0
  6  1  1  0
  7 10  1  1
  7  9  2  0
  8  7  2  0
 11  4  1  0
 12 11  1  0
 13 12  2  0
 14 12  1  0
 15 22  1  0
 15 13  1  0
 16 14  1  0
 17 15  1  0
 17 16  2  0
 18 16  1  0
 19 17  1  0
 20 18  2  0
 21 19  2  0
 21 20  1  0
 22 23  2  0
 24 22  1  0
 25 23  1  0
 26 27  1  0
 26 24  2  0
 27 25  2  0
M  RAD  8   2   2   3   2   5   2   6   2  14   2  15   2  18   2  19   2
M  RAD  7  20   2  21   2  23   2  24   2  25   2  26   2  27   2
M  END
>  <REMARK>  (1) 
 SMILES NS(=O)(=O)c1ccc(Nc2nc(-c3ccccc3)c3ccccc3n2)cc1
 SMILES IDX 5 1 6 2 7 3 8 4 26 5 27 6 2 7 3 8 4 9 1 10 9 13 10 15 11 16
 SMILES IDX 25 17 12 18 24 19 19 20 23 21 20 22 22 23 21 24 13 25 14 26
 SMILES IDX 18 27 15 28 17 29 16 30
 H PARENT 1 11 1 12 9 14

>  <TORSDO>  (1) 
F 5

$$$$
