/home/pchatterjee/Documents/git/vs_workflow/DiffDock/diffdock_run/pdbqt_scrubbed/Z357964720.pdbqt
     RDKit          3D

 27 30  0  0  1  0  0  0  0  0999 V2000
    3.4080   40.7504   48.7331 C   0  0  0  0  0  0  0  0  0  0  0  0
    4.3804   40.4333   47.8063 C   0  0  0  0  0  3  0  0  0  0  0  0
    5.5978   41.0870   47.8488 C   0  0  0  0  0  3  0  0  0  0  0  0
    5.8484   42.0631   48.8210 C   0  0  0  0  0  0  0  0  0  0  0  0
    4.8749   42.3785   49.7465 C   0  0  0  0  0  3  0  0  0  0  0  0
    3.6430   41.7162   49.7026 C   0  0  0  0  0  3  0  0  0  0  0  0
    1.8917   39.8844   48.6209 S   0  0  1  0  0  0  0  0  0  0  0  0
    1.4130   39.7576   47.2149 O   0  0  0  0  0  0  0  0  0  0  0  0
    2.0107   38.5024   49.2038 O   0  0  0  0  0  0  0  0  0  0  0  0
    0.6821   40.7610   49.5087 N   0  0  0  0  0  0  0  0  0  0  0  0
    7.1307   42.6955   48.8015 N   0  0  0  0  0  0  0  0  0  0  0  0
    7.4105   43.7837   49.6749 C   0  0  0  0  0  0  0  0  0  0  0  0
    6.4802   44.5982   49.9489 N   0  0  0  0  0  0  0  0  0  0  0  0
    8.7511   43.8917   50.1989 N   0  0  0  0  0  2  0  0  0  0  0  0
    6.6208   45.7160   50.7971 C   0  0  0  0  0  3  0  0  0  0  0  0
    9.0359   44.9990   51.0877 C   0  0  0  0  0  0  0  0  0  0  0  0
    7.9787   45.8377   51.3368 C   0  0  0  0  0  0  0  0  0  0  0  0
   10.2965   45.1704   51.6305 C   0  0  0  0  0  3  0  0  0  0  0  0
    8.2230   46.9087   52.1860 C   0  0  0  0  0  3  0  0  0  0  0  0
   10.5091   46.2598   52.4824 C   0  0  0  0  0  3  0  0  0  0  0  0
    9.4595   47.0980   52.7337 C   0  0  0  0  0  3  0  0  0  0  0  0
    5.6970   45.6937   51.9622 C   0  0  0  0  0  0  0  0  0  0  0  0
    4.4257   46.2776   51.9051 C   0  0  0  0  0  3  0  0  0  0  0  0
    6.0167   45.1056   53.1687 C   0  0  0  0  0  3  0  0  0  0  0  0
    3.5722   46.2618   52.9685 C   0  0  0  0  0  3  0  0  0  0  0  0
    5.1710   45.0792   54.2513 C   0  0  0  0  0  3  0  0  0  0  0  0
    3.9381   45.6644   54.1446 C   0  0  0  0  0  3  0  0  0  0  0  0
  1  2  2  0
  1  7  1  0
  3  2  1  0
  4  3  2  0
  5  4  1  0
  5  6  2  0
  6  1  1  0
  7 10  1  1
  7  9  2  0
  8  7  2  0
 11  4  1  0
 12 11  1  0
 13 12  2  0
 14 12  1  0
 15 22  1  0
 15 13  1  0
 16 14  1  0
 17 15  1  0
 17 16  2  0
 18 16  1  0
 19 17  1  0
 20 18  2  0
 21 19  2  0
 21 20  1  0
 22 23  2  0
 24 22  1  0
 25 23  1  0
 26 27  1  0
 26 24  2  0
 27 25  2  0
M  RAD  8   2   2   3   2   5   2   6   2  14   2  15   2  18   2  19   2
M  RAD  7  20   2  21   2  23   2  24   2  25   2  26   2  27   2
M  END
>  <REMARK>  (1) 
 SMILES NS(=O)(=O)c1ccc(Nc2nc(-c3ccccc3)c3ccccc3n2)cc1
 SMILES IDX 5 1 6 2 7 3 8 4 26 5 27 6 2 7 3 8 4 9 1 10 9 13 10 15 11 16
 SMILES IDX 25 17 12 18 24 19 19 20 23 21 20 22 22 23 21 24 13 25 14 26
 SMILES IDX 18 27 15 28 17 29 16 30
 H PARENT 1 11 1 12 9 14

>  <TORSDO>  (1) 
F 5

$$$$
