/home/pchatterjee/Documents/git/vs_workflow/DiffDock/diffdock_run/pdbqt_scrubbed/Z357964720.pdbqt
     RDKit          3D

 27 30  0  0  1  0  0  0  0  0999 V2000
    7.5383   58.0273   83.0542 C   0  0  0  0  0  0  0  0  0  0  0  0
    8.7289   58.1530   83.7412 C   0  0  0  0  0  3  0  0  0  0  0  0
    9.7280   58.9580   83.2265 C   0  0  0  0  0  3  0  0  0  0  0  0
    9.5401   59.6423   82.0194 C   0  0  0  0  0  0  0  0  0  0  0  0
    8.3492   59.5153   81.3343 C   0  0  0  0  0  3  0  0  0  0  0  0
    7.3386   58.7002   81.8562 C   0  0  0  0  0  3  0  0  0  0  0  0
    6.3181   56.9928   83.7630 S   0  0  1  0  0  0  0  0  0  0  0  0
    6.7770   55.5805   83.8932 O   0  0  0  0  0  0  0  0  0  0  0  0
    5.9146   57.4840   85.1268 O   0  0  0  0  0  0  0  0  0  0  0  0
    4.9183   56.9957   82.7334 N   0  0  0  0  0  0  0  0  0  0  0  0
   10.6188   60.4556   81.5507 N   0  0  0  0  0  0  0  0  0  0  0  0
   11.8580   60.4816   82.2499 C   0  0  0  0  0  0  0  0  0  0  0  0
   11.8696   60.1740   83.4783 N   0  0  0  0  0  0  0  0  0  0  0  0
   13.0360   60.8610   81.5070 N   0  0  0  0  0  2  0  0  0  0  0  0
   13.0246   60.1586   84.2874 C   0  0  0  0  0  3  0  0  0  0  0  0
   14.2971   60.8875   82.2184 C   0  0  0  0  0  0  0  0  0  0  0  0
   14.2293   60.5422   83.5449 C   0  0  0  0  0  0  0  0  0  0  0  0
   15.4699   61.2407   81.5759 C   0  0  0  0  0  3  0  0  0  0  0  0
   15.4240   60.5589   84.2523 C   0  0  0  0  0  3  0  0  0  0  0  0
   16.6563   61.2473   82.3177 C   0  0  0  0  0  3  0  0  0  0  0  0
   16.5941   60.9043   83.6390 C   0  0  0  0  0  3  0  0  0  0  0  0
   13.3014   58.8308   84.8969 C   0  0  0  0  0  0  0  0  0  0  0  0
   12.6725   58.4170   86.0775 C   0  0  0  0  0  3  0  0  0  0  0  0
   14.1847   57.9200   84.3547 C   0  0  0  0  0  3  0  0  0  0  0  0
   12.9203   57.2014   86.6433 C   0  0  0  0  0  3  0  0  0  0  0  0
   14.4479   56.6908   84.9094 C   0  0  0  0  0  3  0  0  0  0  0  0
   13.8068   56.3332   86.0648 C   0  0  0  0  0  3  0  0  0  0  0  0
  1  2  2  0
  1  7  1  0
  3  2  1  0
  4  3  2  0
  5  4  1  0
  5  6  2  0
  6  1  1  0
  7 10  1  6
  7  9  2  0
  8  7  2  0
 11  4  1  0
 12 11  1  0
 13 12  2  0
 14 12  1  0
 15 22  1  0
 15 13  1  0
 16 14  1  0
 17 15  1  0
 17 16  2  0
 18 16  1  0
 19 17  1  0
 20 18  2  0
 21 19  2  0
 21 20  1  0
 22 23  2  0
 24 22  1  0
 25 23  1  0
 26 27  1  0
 26 24  2  0
 27 25  2  0
M  RAD  8   2   2   3   2   5   2   6   2  14   2  15   2  18   2  19   2
M  RAD  7  20   2  21   2  23   2  24   2  25   2  26   2  27   2
M  END
>  <REMARK>  (1) 
 SMILES NS(=O)(=O)c1ccc(Nc2nc(-c3ccccc3)c3ccccc3n2)cc1
 SMILES IDX 5 1 6 2 7 3 8 4 26 5 27 6 2 7 3 8 4 9 1 10 9 13 10 15 11 16
 SMILES IDX 25 17 12 18 24 19 19 20 23 21 20 22 22 23 21 24 13 25 14 26
 SMILES IDX 18 27 15 28 17 29 16 30
 H PARENT 1 11 1 12 9 14

>  <TORSDO>  (1) 
F 5

$$$$
