/home/pchatterjee/Documents/git/vs_workflow/DiffDock/diffdock_run/pdbqt_scrubbed/Z16226176.pdbqt
     RDKit          3D

 24 27  0  0  0  0  0  0  0  0999 V2000
    6.0337   42.3355   49.0150 C   0  0  0  0  0  2  0  0  0  0  0  0
    4.6334   41.7835   49.0502 C   0  0  0  0  0  0  0  0  0  0  0  0
    4.2513   40.9367   47.9684 N   0  0  0  0  0  0  0  0  0  0  0  0
    3.8511   42.0683   49.9998 O   0  0  0  0  0  0  0  0  0  0  0  0
    4.4053   41.3585   46.5929 C   0  0  0  0  0  2  0  0  0  0  0  0
    3.1427   41.0716   45.8184 C   0  0  0  0  0  3  0  0  0  0  0  0
    3.3083   41.0247   44.3430 C   0  0  0  0  0  2  0  0  0  0  0  0
    1.9400   41.7972   46.3212 C   0  0  0  0  0  2  0  0  0  0  0  0
    2.8741   42.2279   43.5862 C   0  0  0  0  0  2  0  0  0  0  0  0
    1.1623   42.5193   45.2703 C   0  0  0  0  0  2  0  0  0  0  0  0
    2.1241   43.2539   44.3672 C   0  0  0  0  0  2  0  0  0  0  0  0
    6.0052   43.7507   50.1789 S   0  0  0  0  0  0  0  0  0  0  0  0
    7.7096   44.3196   50.2788 C   0  0  0  0  0  0  0  0  0  0  0  0
    8.6990   43.8941   49.5032 N   0  0  0  0  0  0  0  0  0  0  0  0
    8.2253   45.2327   51.1265 N   0  0  0  0  0  0  0  0  0  0  0  0
    9.8134   44.5432   49.8745 N   0  0  0  0  0  0  0  0  0  0  0  0
    7.8855   46.0551   52.1392 C   0  0  0  0  0  0  0  0  0  0  0  0
    9.5413   45.3845   50.8867 C   0  0  0  0  0  0  0  0  0  0  0  0
    6.7082   46.3225   52.7982 C   0  0  0  0  0  3  0  0  0  0  0  0
    9.0052   46.7430   52.5523 C   0  0  0  0  0  0  0  0  0  0  0  0
   10.0023   46.3059   51.7611 N   0  0  0  0  0  0  0  0  0  0  0  0
    6.6771   47.2424   53.8227 C   0  0  0  0  0  3  0  0  0  0  0  0
    8.9860   47.6652   53.5757 C   0  0  0  0  0  3  0  0  0  0  0  0
    7.8022   47.9245   54.2276 C   0  0  0  0  0  3  0  0  0  0  0  0
  2  1  1  0
  3  2  1  0
  4  2  2  0
  5  3  1  0
  6  5  1  0
  6  7  1  0
  8  6  1  0
  9  7  1  0
 10  8  1  0
 10 11  1  0
 11  9  1  0
 12  1  1  0
 13 12  1  0
 14 13  2  0
 15 13  1  0
 16 14  1  0
 17 15  1  0
 17 19  2  0
 18 16  2  0
 18 15  1  0
 20 17  1  0
 21 20  1  0
 21 18  1  0
 22 19  1  0
 23 20  2  0
 23 24  1  0
 24 22  2  0
M  RAD  8   1   3   5   3   6   2   7   3   8   3   9   3  10   3  11   3
M  RAD  4  19   2  22   2  23   2  24   2
M  END
>  <REMARK>  (1) 
 SMILES O=C(CSc1nnc2[nH]c3ccccc3n12)NCC1CCCCC1
 SMILES IDX 3 1 2 2 17 3 1 4 18 6 19 7 20 8 24 9 21 10 23 11 22 12 4 13
 SMILES IDX 5 14 6 15 16 16 7 17 15 18 8 19 14 20 10 21 9 22 13 23 11 24
 SMILES IDX 12 25
 H PARENT 17 5 9 26

>  <TORSDO>  (1) 
F 5

$$$$
