/home/pchatterjee/Documents/git/vs_workflow/DiffDock/diffdock_run/pdbqt_scrubbed/Z16226176.pdbqt
     RDKit          3D

 24 27  0  0  0  0  0  0  0  0999 V2000
    5.3650   42.3653   50.5929 C   0  0  0  0  0  2  0  0  0  0  0  0
    4.7836   41.4890   49.5153 C   0  0  0  0  0  0  0  0  0  0  0  0
    4.0085   42.1388   48.5101 N   0  0  0  0  0  0  0  0  0  0  0  0
    4.9841   40.2423   49.5192 O   0  0  0  0  0  0  0  0  0  0  0  0
    2.6871   41.6663   48.1572 C   0  0  0  0  0  2  0  0  0  0  0  0
    2.7132   41.0273   46.7906 C   0  0  0  0  0  3  0  0  0  0  0  0
    3.8439   41.4464   45.9233 C   0  0  0  0  0  2  0  0  0  0  0  0
    1.3776   40.9409   46.1316 C   0  0  0  0  0  2  0  0  0  0  0  0
    3.5386   42.4503   44.8707 C   0  0  0  0  0  2  0  0  0  0  0  0
    1.3394   41.4527   44.7290 C   0  0  0  0  0  2  0  0  0  0  0  0
    2.0939   42.7591   44.6638 C   0  0  0  0  0  2  0  0  0  0  0  0
    5.7740   43.9370   49.7440 S   0  0  0  0  0  0  0  0  0  0  0  0
    7.5258   44.2052   50.0567 C   0  0  0  0  0  0  0  0  0  0  0  0
    8.5138   43.5738   49.4347 N   0  0  0  0  0  0  0  0  0  0  0  0
    8.0844   45.0582   50.9392 N   0  0  0  0  0  0  0  0  0  0  0  0
    9.6698   44.0378   49.9341 N   0  0  0  0  0  0  0  0  0  0  0  0
    7.7709   45.9794   51.8722 C   0  0  0  0  0  0  0  0  0  0  0  0
    9.4259   44.9658   50.8752 C   0  0  0  0  0  0  0  0  0  0  0  0
    6.5863   46.4820   52.3579 C   0  0  0  0  0  3  0  0  0  0  0  0
    8.9338   46.4829   52.4125 C   0  0  0  0  0  0  0  0  0  0  0  0
    9.9291   45.8379   51.7766 N   0  0  0  0  0  0  0  0  0  0  0  0
    6.5901   47.4460   53.3414 C   0  0  0  0  0  3  0  0  0  0  0  0
    8.9496   47.4471   53.3965 C   0  0  0  0  0  3  0  0  0  0  0  0
    7.7581   47.9424   53.8746 C   0  0  0  0  0  3  0  0  0  0  0  0
  2  1  1  0
  3  2  1  0
  4  2  2  0
  5  3  1  0
  6  5  1  0
  6  7  1  0
  8  6  1  0
  9  7  1  0
 10  8  1  0
 10 11  1  0
 11  9  1  0
 12  1  1  0
 13 12  1  0
 14 13  2  0
 15 13  1  0
 16 14  1  0
 17 15  1  0
 17 19  2  0
 18 16  2  0
 18 15  1  0
 20 17  1  0
 21 20  1  0
 21 18  1  0
 22 19  1  0
 23 20  2  0
 23 24  1  0
 24 22  2  0
M  RAD  8   1   3   5   3   6   2   7   3   8   3   9   3  10   3  11   3
M  RAD  4  19   2  22   2  23   2  24   2
M  END
>  <REMARK>  (1) 
 SMILES O=C(CSc1nnc2[nH]c3ccccc3n12)NCC1CCCCC1
 SMILES IDX 3 1 2 2 17 3 1 4 18 6 19 7 20 8 24 9 21 10 23 11 22 12 4 13
 SMILES IDX 5 14 6 15 16 16 7 17 15 18 8 19 14 20 10 21 9 22 13 23 11 24
 SMILES IDX 12 25
 H PARENT 17 5 9 26

>  <TORSDO>  (1) 
F 5

$$$$
