/home/pchatterjee/Documents/git/vs_workflow/DiffDock/diffdock_run/pdbqt_scrubbed/Z16226176.pdbqt
     RDKit          3D

 24 27  0  0  0  0  0  0  0  0999 V2000
    6.3672   41.8786   49.2489 C   0  0  0  0  0  2  0  0  0  0  0  0
    4.9582   41.3562   49.1551 C   0  0  0  0  0  0  0  0  0  0  0  0
    4.2151   41.7225   47.9945 N   0  0  0  0  0  0  0  0  0  0  0  0
    4.4766   40.6309   50.0699 O   0  0  0  0  0  0  0  0  0  0  0  0
    4.5405   41.1824   46.6921 C   0  0  0  0  0  2  0  0  0  0  0  0
    3.2772   40.8180   45.9519 C   0  0  0  0  0  3  0  0  0  0  0  0
    3.4851   40.2721   44.5863 C   0  0  0  0  0  2  0  0  0  0  0  0
    2.1745   41.8118   46.1006 C   0  0  0  0  0  2  0  0  0  0  0  0
    3.2546   41.2066   43.4538 C   0  0  0  0  0  2  0  0  0  0  0  0
    1.5451   42.2424   44.8164 C   0  0  0  0  0  2  0  0  0  0  0  0
    2.6329   42.5162   43.8056 C   0  0  0  0  0  2  0  0  0  0  0  0
    6.2349   43.3919   50.2737 S   0  0  0  0  0  0  0  0  0  0  0  0
    7.8764   44.1292   50.2485 C   0  0  0  0  0  0  0  0  0  0  0  0
    8.8839   43.7139   49.4910 N   0  0  0  0  0  0  0  0  0  0  0  0
    8.3194   45.1790   50.9695 N   0  0  0  0  0  0  0  0  0  0  0  0
    9.9371   44.5052   49.7472 N   0  0  0  0  0  0  0  0  0  0  0  0
    7.9245   46.0762   51.8949 C   0  0  0  0  0  0  0  0  0  0  0  0
    9.6077   45.4275   50.6676 C   0  0  0  0  0  0  0  0  0  0  0  0
    6.7429   46.3039   52.5611 C   0  0  0  0  0  3  0  0  0  0  0  0
    8.9802   46.9113   52.1881 C   0  0  0  0  0  0  0  0  0  0  0  0
    9.9961   46.4834   51.4161 N   0  0  0  0  0  0  0  0  0  0  0  0
    6.6457   47.3284   53.4763 C   0  0  0  0  0  3  0  0  0  0  0  0
    8.8945   47.9391   53.1015 C   0  0  0  0  0  3  0  0  0  0  0  0
    7.7071   48.1572   53.7618 C   0  0  0  0  0  3  0  0  0  0  0  0
  2  1  1  0
  3  2  1  0
  4  2  2  0
  5  3  1  0
  6  5  1  0
  6  7  1  0
  8  6  1  0
  9  7  1  0
 10  8  1  0
 10 11  1  0
 11  9  1  0
 12  1  1  0
 13 12  1  0
 14 13  2  0
 15 13  1  0
 16 14  1  0
 17 15  1  0
 17 19  2  0
 18 16  2  0
 18 15  1  0
 20 17  1  0
 21 20  1  0
 21 18  1  0
 22 19  1  0
 23 20  2  0
 23 24  1  0
 24 22  2  0
M  RAD  8   1   3   5   3   6   2   7   3   8   3   9   3  10   3  11   3
M  RAD  4  19   2  22   2  23   2  24   2
M  END
>  <REMARK>  (1) 
 SMILES O=C(CSc1nnc2[nH]c3ccccc3n12)NCC1CCCCC1
 SMILES IDX 3 1 2 2 17 3 1 4 18 6 19 7 20 8 24 9 21 10 23 11 22 12 4 13
 SMILES IDX 5 14 6 15 16 16 7 17 15 18 8 19 14 20 10 21 9 22 13 23 11 24
 SMILES IDX 12 25
 H PARENT 17 5 9 26

>  <TORSDO>  (1) 
F 5

$$$$
