/home/pchatterjee/Documents/git/vs_workflow/DiffDock/diffdock_run/pdbqt_scrubbed/Z16226176.pdbqt
     RDKit          3D

 24 27  0  0  0  0  0  0  0  0999 V2000
    7.8578   47.4805   52.3026 C   0  0  0  0  0  2  0  0  0  0  0  0
    7.4418   47.6172   53.7431 C   0  0  0  0  0  0  0  0  0  0  0  0
    6.0421   47.5740   54.0125 N   0  0  0  0  0  0  0  0  0  0  0  0
    8.3052   47.7622   54.6532 O   0  0  0  0  0  0  0  0  0  0  0  0
    5.3088   46.3269   53.9820 C   0  0  0  0  0  2  0  0  0  0  0  0
    3.8584   46.5703   54.3187 C   0  0  0  0  0  3  0  0  0  0  0  0
    3.0793   45.3515   54.6562 C   0  0  0  0  0  2  0  0  0  0  0  0
    3.1816   47.5557   53.4261 C   0  0  0  0  0  2  0  0  0  0  0  0
    2.1968   44.8095   53.5900 C   0  0  0  0  0  2  0  0  0  0  0  0
    1.8779   47.0942   52.8621 C   0  0  0  0  0  2  0  0  0  0  0  0
    2.0282   45.6700   52.3833 C   0  0  0  0  0  2  0  0  0  0  0  0
    9.1897   46.2220   52.3205 S   0  0  0  0  0  0  0  0  0  0  0  0
    9.0160   45.3225   50.7716 C   0  0  0  0  0  0  0  0  0  0  0  0
    9.8934   45.3477   49.7761 N   0  0  0  0  0  0  0  0  0  0  0  0
    8.0040   44.5137   50.3972 N   0  0  0  0  0  0  0  0  0  0  0  0
    9.4208   44.5589   48.7986 N   0  0  0  0  0  0  0  0  0  0  0  0
    6.8267   44.0155   50.8252 C   0  0  0  0  0  0  0  0  0  0  0  0
    8.2418   44.0275   49.1646 C   0  0  0  0  0  0  0  0  0  0  0  0
    6.0922   44.1584   51.9792 C   0  0  0  0  0  3  0  0  0  0  0  0
    6.3050   43.1972   49.8475 C   0  0  0  0  0  0  0  0  0  0  0  0
    7.2004   43.2286   48.8433 N   0  0  0  0  0  0  0  0  0  0  0  0
    4.8909   43.5012   52.1259 C   0  0  0  0  0  3  0  0  0  0  0  0
    5.1045   42.5349   49.9832 C   0  0  0  0  0  3  0  0  0  0  0  0
    4.3785   42.6856   51.1424 C   0  0  0  0  0  3  0  0  0  0  0  0
  2  1  1  0
  3  2  1  0
  4  2  2  0
  5  3  1  0
  6  5  1  0
  6  7  1  0
  8  6  1  0
  9  7  1  0
 10  8  1  0
 10 11  1  0
 11  9  1  0
 12  1  1  0
 13 12  1  0
 14 13  2  0
 15 13  1  0
 16 14  1  0
 17 15  1  0
 17 19  2  0
 18 16  2  0
 18 15  1  0
 20 17  1  0
 21 20  1  0
 21 18  1  0
 22 19  1  0
 23 20  2  0
 23 24  1  0
 24 22  2  0
M  RAD  8   1   3   5   3   6   2   7   3   8   3   9   3  10   3  11   3
M  RAD  4  19   2  22   2  23   2  24   2
M  END
>  <REMARK>  (1) 
 SMILES O=C(CSc1nnc2[nH]c3ccccc3n12)NCC1CCCCC1
 SMILES IDX 3 1 2 2 17 3 1 4 18 6 19 7 20 8 24 9 21 10 23 11 22 12 4 13
 SMILES IDX 5 14 6 15 16 16 7 17 15 18 8 19 14 20 10 21 9 22 13 23 11 24
 SMILES IDX 12 25
 H PARENT 17 5 9 26

>  <TORSDO>  (1) 
F 5

$$$$
