/home/pchatterjee/Documents/git/vs_workflow/DiffDock/diffdock_run/pdbqt_scrubbed/Z16226176.pdbqt
     RDKit          3D

 24 27  0  0  0  0  0  0  0  0999 V2000
    8.0029   47.5340   52.5614 C   0  0  0  0  0  2  0  0  0  0  0  0
    7.4036   47.6835   53.9345 C   0  0  0  0  0  0  0  0  0  0  0  0
    6.0801   47.1838   54.1136 N   0  0  0  0  0  0  0  0  0  0  0  0
    8.0571   48.2275   54.8681 O   0  0  0  0  0  0  0  0  0  0  0  0
    5.1379   47.1407   53.0162 C   0  0  0  0  0  2  0  0  0  0  0  0
    3.7393   46.9311   53.5420 C   0  0  0  0  0  3  0  0  0  0  0  0
    3.5981   45.8297   54.5286 C   0  0  0  0  0  2  0  0  0  0  0  0
    2.6758   47.0188   52.4995 C   0  0  0  0  0  2  0  0  0  0  0  0
    3.0351   44.5508   54.0220 C   0  0  0  0  0  2  0  0  0  0  0  0
    1.7093   45.8801   52.4966 C   0  0  0  0  0  2  0  0  0  0  0  0
    2.4759   44.5870   52.6396 C   0  0  0  0  0  2  0  0  0  0  0  0
    9.1809   46.1389   52.7175 S   0  0  0  0  0  0  0  0  0  0  0  0
    8.9680   45.1659   51.2187 C   0  0  0  0  0  0  0  0  0  0  0  0
    9.8843   45.0233   50.2691 N   0  0  0  0  0  0  0  0  0  0  0  0
    7.8839   44.4574   50.8431 N   0  0  0  0  0  0  0  0  0  0  0  0
    9.3635   44.2323   49.3183 N   0  0  0  0  0  0  0  0  0  0  0  0
    6.6383   44.1286   51.2402 C   0  0  0  0  0  0  0  0  0  0  0  0
    8.1149   43.8668   49.6555 C   0  0  0  0  0  0  0  0  0  0  0  0
    5.8770   44.4315   52.3450 C   0  0  0  0  0  3  0  0  0  0  0  0
    6.0653   43.3140   50.2885 C   0  0  0  0  0  0  0  0  0  0  0  0
    7.0005   43.1750   49.3308 N   0  0  0  0  0  0  0  0  0  0  0  0
    4.6007   43.9295   52.4701 C   0  0  0  0  0  3  0  0  0  0  0  0
    4.7897   42.8062   50.4030 C   0  0  0  0  0  3  0  0  0  0  0  0
    4.0375   43.1162   51.5128 C   0  0  0  0  0  3  0  0  0  0  0  0
  2  1  1  0
  3  2  1  0
  4  2  2  0
  5  3  1  0
  6  5  1  0
  6  7  1  0
  8  6  1  0
  9  7  1  0
 10  8  1  0
 10 11  1  0
 11  9  1  0
 12  1  1  0
 13 12  1  0
 14 13  2  0
 15 13  1  0
 16 14  1  0
 17 15  1  0
 17 19  2  0
 18 16  2  0
 18 15  1  0
 20 17  1  0
 21 20  1  0
 21 18  1  0
 22 19  1  0
 23 20  2  0
 23 24  1  0
 24 22  2  0
M  RAD  8   1   3   5   3   6   2   7   3   8   3   9   3  10   3  11   3
M  RAD  4  19   2  22   2  23   2  24   2
M  END
>  <REMARK>  (1) 
 SMILES O=C(CSc1nnc2[nH]c3ccccc3n12)NCC1CCCCC1
 SMILES IDX 3 1 2 2 17 3 1 4 18 6 19 7 20 8 24 9 21 10 23 11 22 12 4 13
 SMILES IDX 5 14 6 15 16 16 7 17 15 18 8 19 14 20 10 21 9 22 13 23 11 24
 SMILES IDX 12 25
 H PARENT 17 5 9 26

>  <TORSDO>  (1) 
F 5

$$$$
