/home/pchatterjee/Documents/git/vs_workflow/DiffDock/diffdock_run/pdbqt_scrubbed/Z16226176.pdbqt
     RDKit          3D

 24 27  0  0  0  0  0  0  0  0999 V2000
    6.4508   42.5486   48.7261 C   0  0  0  0  0  2  0  0  0  0  0  0
    5.2014   41.7588   49.0127 C   0  0  0  0  0  0  0  0  0  0  0  0
    4.6615   40.9999   47.9329 N   0  0  0  0  0  0  0  0  0  0  0  0
    4.6730   41.7805   50.1595 O   0  0  0  0  0  0  0  0  0  0  0  0
    3.2971   40.5187   47.9605 C   0  0  0  0  0  2  0  0  0  0  0  0
    2.8156   40.2455   46.5570 C   0  0  0  0  0  3  0  0  0  0  0  0
    1.5207   39.5233   46.4671 C   0  0  0  0  0  2  0  0  0  0  0  0
    3.8860   39.7925   45.6218 C   0  0  0  0  0  2  0  0  0  0  0  0
    1.5891   38.0698   46.1645 C   0  0  0  0  0  2  0  0  0  0  0  0
    3.5546   38.5618   44.8431 C   0  0  0  0  0  2  0  0  0  0  0  0
    2.9303   37.5480   45.7719 C   0  0  0  0  0  2  0  0  0  0  0  0
    6.3848   43.9621   49.8905 S   0  0  0  0  0  0  0  0  0  0  0  0
    8.1012   44.4092   50.1946 C   0  0  0  0  0  0  0  0  0  0  0  0
    9.1403   43.9393   49.5156 N   0  0  0  0  0  0  0  0  0  0  0  0
    8.5789   45.2596   51.1257 N   0  0  0  0  0  0  0  0  0  0  0  0
   10.2469   44.4991   50.0284 N   0  0  0  0  0  0  0  0  0  0  0  0
    8.1839   46.0737   52.1251 C   0  0  0  0  0  0  0  0  0  0  0  0
    9.9204   45.3273   51.0353 C   0  0  0  0  0  0  0  0  0  0  0  0
    6.9611   46.4024   52.6623 C   0  0  0  0  0  3  0  0  0  0  0  0
    9.2937   46.6707   52.6814 C   0  0  0  0  0  0  0  0  0  0  0  0
   10.3413   46.1890   51.9873 N   0  0  0  0  0  0  0  0  0  0  0  0
    6.8774   47.2920   53.7102 C   0  0  0  0  0  3  0  0  0  0  0  0
    9.2220   47.5619   53.7297 C   0  0  0  0  0  3  0  0  0  0  0  0
    7.9930   47.8830   54.2589 C   0  0  0  0  0  3  0  0  0  0  0  0
  2  1  1  0
  3  2  1  0
  4  2  2  0
  5  3  1  0
  6  5  1  0
  6  7  1  0
  8  6  1  0
  9  7  1  0
 10  8  1  0
 10 11  1  0
 11  9  1  0
 12  1  1  0
 13 12  1  0
 14 13  2  0
 15 13  1  0
 16 14  1  0
 17 15  1  0
 17 19  2  0
 18 16  2  0
 18 15  1  0
 20 17  1  0
 21 20  1  0
 21 18  1  0
 22 19  1  0
 23 20  2  0
 23 24  1  0
 24 22  2  0
M  RAD  8   1   3   5   3   6   2   7   3   8   3   9   3  10   3  11   3
M  RAD  4  19   2  22   2  23   2  24   2
M  END
>  <REMARK>  (1) 
 SMILES O=C(CSc1nnc2[nH]c3ccccc3n12)NCC1CCCCC1
 SMILES IDX 3 1 2 2 17 3 1 4 18 6 19 7 20 8 24 9 21 10 23 11 22 12 4 13
 SMILES IDX 5 14 6 15 16 16 7 17 15 18 8 19 14 20 10 21 9 22 13 23 11 24
 SMILES IDX 12 25
 H PARENT 17 5 9 26

>  <TORSDO>  (1) 
F 5

$$$$
