/home/pchatterjee/Documents/git/vs_workflow/DiffDock/diffdock_run/pdbqt_scrubbed/Z16226176.pdbqt
     RDKit          3D

 24 27  0  0  0  0  0  0  0  0999 V2000
    8.3023   47.2578   52.7809 C   0  0  0  0  0  2  0  0  0  0  0  0
    7.7526   47.0023   54.1591 C   0  0  0  0  0  0  0  0  0  0  0  0
    6.4857   47.5831   54.4613 N   0  0  0  0  0  0  0  0  0  0  0  0
    8.3970   46.3053   54.9920 O   0  0  0  0  0  0  0  0  0  0  0  0
    5.4570   47.7102   53.4517 C   0  0  0  0  0  2  0  0  0  0  0  0
    4.9674   46.3449   53.0360 C   0  0  0  0  0  3  0  0  0  0  0  0
    4.2126   46.3113   51.7572 C   0  0  0  0  0  2  0  0  0  0  0  0
    4.4029   45.5328   54.1529 C   0  0  0  0  0  2  0  0  0  0  0  0
    2.7320   46.2330   51.8603 C   0  0  0  0  0  2  0  0  0  0  0  0
    3.0631   44.9344   53.8742 C   0  0  0  0  0  2  0  0  0  0  0  0
    2.1861   45.9782   53.2250 C   0  0  0  0  0  2  0  0  0  0  0  0
    9.5951   45.9795   52.5515 S   0  0  0  0  0  0  0  0  0  0  0  0
    9.1540   45.1234   51.0313 C   0  0  0  0  0  0  0  0  0  0  0  0
    9.9533   44.9789   49.9816 N   0  0  0  0  0  0  0  0  0  0  0  0
    7.9856   44.5188   50.7352 N   0  0  0  0  0  0  0  0  0  0  0  0
    9.2776   44.2901   49.0489 N   0  0  0  0  0  0  0  0  0  0  0  0
    6.7663   44.2532   51.2453 C   0  0  0  0  0  0  0  0  0  0  0  0
    8.0463   43.9920   49.4978 C   0  0  0  0  0  0  0  0  0  0  0  0
    6.1492   44.5363   52.4414 C   0  0  0  0  0  3  0  0  0  0  0  0
    6.0369   43.5446   50.3160 C   0  0  0  0  0  0  0  0  0  0  0  0
    6.8544   43.4028   49.2564 N   0  0  0  0  0  0  0  0  0  0  0  0
    4.8579   44.1181   52.6749 C   0  0  0  0  0  3  0  0  0  0  0  0
    4.7449   43.1212   50.5385 C   0  0  0  0  0  3  0  0  0  0  0  0
    4.1378   43.4104   51.7392 C   0  0  0  0  0  3  0  0  0  0  0  0
  2  1  1  0
  3  2  1  0
  4  2  2  0
  5  3  1  0
  6  5  1  0
  6  7  1  0
  8  6  1  0
  9  7  1  0
 10  8  1  0
 10 11  1  0
 11  9  1  0
 12  1  1  0
 13 12  1  0
 14 13  2  0
 15 13  1  0
 16 14  1  0
 17 15  1  0
 17 19  2  0
 18 16  2  0
 18 15  1  0
 20 17  1  0
 21 20  1  0
 21 18  1  0
 22 19  1  0
 23 20  2  0
 23 24  1  0
 24 22  2  0
M  RAD  8   1   3   5   3   6   2   7   3   8   3   9   3  10   3  11   3
M  RAD  4  19   2  22   2  23   2  24   2
M  END
>  <REMARK>  (1) 
 SMILES O=C(CSc1nnc2[nH]c3ccccc3n12)NCC1CCCCC1
 SMILES IDX 3 1 2 2 17 3 1 4 18 6 19 7 20 8 24 9 21 10 23 11 22 12 4 13
 SMILES IDX 5 14 6 15 16 16 7 17 15 18 8 19 14 20 10 21 9 22 13 23 11 24
 SMILES IDX 12 25
 H PARENT 17 5 9 26

>  <TORSDO>  (1) 
F 5

$$$$
