/home/pchatterjee/Documents/git/vs_workflow/DiffDock/diffdock_run/pdbqt_scrubbed/Z16226176.pdbqt
     RDKit          3D

 24 27  0  0  0  0  0  0  0  0999 V2000
    7.0360   46.2247   53.2594 C   0  0  0  0  0  2  0  0  0  0  0  0
    6.1618   47.2907   53.8646 C   0  0  0  0  0  0  0  0  0  0  0  0
    6.4916   47.7162   55.1851 N   0  0  0  0  0  0  0  0  0  0  0  0
    5.1891   47.7715   53.2185 O   0  0  0  0  0  0  0  0  0  0  0  0
    7.8487   47.6424   55.6817 C   0  0  0  0  0  2  0  0  0  0  0  0
    8.6939   48.7158   55.0415 C   0  0  0  0  0  3  0  0  0  0  0  0
    9.0360   48.4783   53.6157 C   0  0  0  0  0  2  0  0  0  0  0  0
    9.8001   49.2189   55.9070 C   0  0  0  0  0  2  0  0  0  0  0  0
   10.4040   47.9693   53.3356 C   0  0  0  0  0  2  0  0  0  0  0  0
   11.1409   49.2514   55.2499 C   0  0  0  0  0  2  0  0  0  0  0  0
   11.3462   47.9616   54.4920 C   0  0  0  0  0  2  0  0  0  0  0  0
    6.9949   46.5571   51.4577 S   0  0  0  0  0  0  0  0  0  0  0  0
    7.6546   45.0721   50.6843 C   0  0  0  0  0  0  0  0  0  0  0  0
    8.9422   44.8401   50.4608 N   0  0  0  0  0  0  0  0  0  0  0  0
    6.9673   44.0050   50.2292 N   0  0  0  0  0  0  0  0  0  0  0  0
    9.0416   43.6382   49.8722 N   0  0  0  0  0  0  0  0  0  0  0  0
    5.7153   43.5209   50.1040 C   0  0  0  0  0  0  0  0  0  0  0  0
    7.8207   43.0981   49.7176 C   0  0  0  0  0  0  0  0  0  0  0  0
    4.4695   43.9960   50.4415 C   0  0  0  0  0  3  0  0  0  0  0  0
    5.7721   42.2833   49.5016 C   0  0  0  0  0  0  0  0  0  0  0  0
    7.0798   42.0566   49.2790 N   0  0  0  0  0  0  0  0  0  0  0  0
    3.3439   43.2475   50.1780 C   0  0  0  0  0  3  0  0  0  0  0  0
    4.6530   41.5258   49.2331 C   0  0  0  0  0  3  0  0  0  0  0  0
    3.4119   42.0116   49.5755 C   0  0  0  0  0  3  0  0  0  0  0  0
  2  1  1  0
  3  2  1  0
  4  2  2  0
  5  3  1  0
  6  5  1  0
  6  7  1  0
  8  6  1  0
  9  7  1  0
 10  8  1  0
 10 11  1  0
 11  9  1  0
 12  1  1  0
 13 12  1  0
 14 13  2  0
 15 13  1  0
 16 14  1  0
 17 15  1  0
 17 19  2  0
 18 16  2  0
 18 15  1  0
 20 17  1  0
 21 20  1  0
 21 18  1  0
 22 19  1  0
 23 20  2  0
 23 24  1  0
 24 22  2  0
M  RAD  8   1   3   5   3   6   2   7   3   8   3   9   3  10   3  11   3
M  RAD  4  19   2  22   2  23   2  24   2
M  END
>  <REMARK>  (1) 
 SMILES O=C(CSc1nnc2[nH]c3ccccc3n12)NCC1CCCCC1
 SMILES IDX 3 1 2 2 17 3 1 4 18 6 19 7 20 8 24 9 21 10 23 11 22 12 4 13
 SMILES IDX 5 14 6 15 16 16 7 17 15 18 8 19 14 20 10 21 9 22 13 23 11 24
 SMILES IDX 12 25
 H PARENT 17 5 9 26

>  <TORSDO>  (1) 
F 5

$$$$
