/home/pchatterjee/Documents/git/vs_workflow/DiffDock/diffdock_run/pdbqt_scrubbed/Z16226176.pdbqt
     RDKit          3D

 24 27  0  0  0  0  0  0  0  0999 V2000
    6.0023   42.3248   48.9401 C   0  0  0  0  0  2  0  0  0  0  0  0
    4.6242   41.7411   49.1045 C   0  0  0  0  0  0  0  0  0  0  0  0
    3.7390   41.8660   47.9935 N   0  0  0  0  0  0  0  0  0  0  0  0
    4.2881   41.1729   50.1810 O   0  0  0  0  0  0  0  0  0  0  0  0
    4.1210   41.4134   46.6733 C   0  0  0  0  0  2  0  0  0  0  0  0
    2.9480   40.7520   45.9927 C   0  0  0  0  0  3  0  0  0  0  0  0
    3.2698   40.0620   44.7173 C   0  0  0  0  0  2  0  0  0  0  0  0
    1.6985   41.5670   46.0010 C   0  0  0  0  0  2  0  0  0  0  0  0
    2.9183   40.7810   43.4648 C   0  0  0  0  0  2  0  0  0  0  0  0
    1.0368   41.7084   44.6695 C   0  0  0  0  0  2  0  0  0  0  0  0
    2.0891   42.0100   43.6294 C   0  0  0  0  0  2  0  0  0  0  0  0
    6.0312   43.7725   50.0634 S   0  0  0  0  0  0  0  0  0  0  0  0
    7.7411   44.3334   50.0734 C   0  0  0  0  0  0  0  0  0  0  0  0
    8.6771   43.9321   49.2223 N   0  0  0  0  0  0  0  0  0  0  0  0
    8.3140   45.2159   50.9168 N   0  0  0  0  0  0  0  0  0  0  0  0
    9.8159   44.5655   49.5434 N   0  0  0  0  0  0  0  0  0  0  0  0
    8.0432   46.0042   51.9764 C   0  0  0  0  0  0  0  0  0  0  0  0
    9.6128   45.3725   50.5988 C   0  0  0  0  0  0  0  0  0  0  0  0
    6.9116   46.2521   52.7178 C   0  0  0  0  0  3  0  0  0  0  0  0
    9.1902   46.6750   52.3401 C   0  0  0  0  0  0  0  0  0  0  0  0
   10.1327   46.2625   51.4726 N   0  0  0  0  0  0  0  0  0  0  0  0
    6.9501   47.1366   53.7727 C   0  0  0  0  0  3  0  0  0  0  0  0
    9.2405   47.5619   53.3932 C   0  0  0  0  0  3  0  0  0  0  0  0
    8.1018   47.8018   54.1278 C   0  0  0  0  0  3  0  0  0  0  0  0
  2  1  1  0
  3  2  1  0
  4  2  2  0
  5  3  1  0
  6  5  1  0
  6  7  1  0
  8  6  1  0
  9  7  1  0
 10  8  1  0
 10 11  1  0
 11  9  1  0
 12  1  1  0
 13 12  1  0
 14 13  2  0
 15 13  1  0
 16 14  1  0
 17 15  1  0
 17 19  2  0
 18 16  2  0
 18 15  1  0
 20 17  1  0
 21 20  1  0
 21 18  1  0
 22 19  1  0
 23 20  2  0
 23 24  1  0
 24 22  2  0
M  RAD  8   1   3   5   3   6   2   7   3   8   3   9   3  10   3  11   3
M  RAD  4  19   2  22   2  23   2  24   2
M  END
>  <REMARK>  (1) 
 SMILES O=C(CSc1nnc2[nH]c3ccccc3n12)NCC1CCCCC1
 SMILES IDX 3 1 2 2 17 3 1 4 18 6 19 7 20 8 24 9 21 10 23 11 22 12 4 13
 SMILES IDX 5 14 6 15 16 16 7 17 15 18 8 19 14 20 10 21 9 22 13 23 11 24
 SMILES IDX 12 25
 H PARENT 17 5 9 26

>  <TORSDO>  (1) 
F 5

$$$$
