/home/pchatterjee/Documents/git/vs_workflow/DiffDock/diffdock_run/pdbqt_scrubbed/Z16226176.pdbqt
     RDKit          3D

 24 27  0  0  0  0  0  0  0  0999 V2000
    6.5040   42.0735   48.9504 C   0  0  0  0  0  2  0  0  0  0  0  0
    5.0929   41.5780   48.7772 C   0  0  0  0  0  0  0  0  0  0  0  0
    4.8115   40.8500   47.5838 N   0  0  0  0  0  0  0  0  0  0  0  0
    4.2161   41.8063   49.6570 O   0  0  0  0  0  0  0  0  0  0  0  0
    3.4734   40.3894   47.2819 C   0  0  0  0  0  2  0  0  0  0  0  0
    2.6848   41.4896   46.6154 C   0  0  0  0  0  3  0  0  0  0  0  0
    1.2492   41.1836   46.3880 C   0  0  0  0  0  2  0  0  0  0  0  0
    3.4001   42.1568   45.4889 C   0  0  0  0  0  2  0  0  0  0  0  0
    0.8635   40.7883   45.0082 C   0  0  0  0  0  2  0  0  0  0  0  0
    2.6092   42.2694   44.2270 C   0  0  0  0  0  2  0  0  0  0  0  0
    1.9162   40.9538   43.9644 C   0  0  0  0  0  2  0  0  0  0  0  0
    6.3640   43.4763   50.1212 S   0  0  0  0  0  0  0  0  0  0  0  0
    8.0386   44.1076   50.3105 C   0  0  0  0  0  0  0  0  0  0  0  0
    9.0968   43.6663   49.6419 N   0  0  0  0  0  0  0  0  0  0  0  0
    8.4609   45.0907   51.1312 N   0  0  0  0  0  0  0  0  0  0  0  0
   10.1600   44.3753   50.0514 N   0  0  0  0  0  0  0  0  0  0  0  0
    8.0204   45.9651   52.0579 C   0  0  0  0  0  0  0  0  0  0  0  0
    9.7866   45.2708   50.9814 C   0  0  0  0  0  0  0  0  0  0  0  0
    6.7885   46.2349   52.6070 C   0  0  0  0  0  3  0  0  0  0  0  0
    9.0846   46.7158   52.5068 C   0  0  0  0  0  0  0  0  0  0  0  0
   10.1520   46.2621   51.8241 N   0  0  0  0  0  0  0  0  0  0  0  0
    6.6520   47.2177   53.5621 C   0  0  0  0  0  3  0  0  0  0  0  0
    8.9600   47.7012   53.4615 C   0  0  0  0  0  3  0  0  0  0  0  0
    7.7224   47.9622   54.0037 C   0  0  0  0  0  3  0  0  0  0  0  0
  2  1  1  0
  3  2  1  0
  4  2  2  0
  5  3  1  0
  6  5  1  0
  6  7  1  0
  8  6  1  0
  9  7  1  0
 10  8  1  0
 10 11  1  0
 11  9  1  0
 12  1  1  0
 13 12  1  0
 14 13  2  0
 15 13  1  0
 16 14  1  0
 17 15  1  0
 17 19  2  0
 18 16  2  0
 18 15  1  0
 20 17  1  0
 21 20  1  0
 21 18  1  0
 22 19  1  0
 23 20  2  0
 23 24  1  0
 24 22  2  0
M  RAD  8   1   3   5   3   6   2   7   3   8   3   9   3  10   3  11   3
M  RAD  4  19   2  22   2  23   2  24   2
M  END
>  <REMARK>  (1) 
 SMILES O=C(CSc1nnc2[nH]c3ccccc3n12)NCC1CCCCC1
 SMILES IDX 3 1 2 2 17 3 1 4 18 6 19 7 20 8 24 9 21 10 23 11 22 12 4 13
 SMILES IDX 5 14 6 15 16 16 7 17 15 18 8 19 14 20 10 21 9 22 13 23 11 24
 SMILES IDX 12 25
 H PARENT 17 5 9 26

>  <TORSDO>  (1) 
F 5

$$$$
