/home/pchatterjee/Documents/git/vs_workflow/DiffDock/diffdock_run/pdbqt_scrubbed/Z16226228.pdbqt
     RDKit          3D

 24 24  0  0  1  0  0  0  0  0999 V2000
    4.9884   40.8479   48.8716 O   0  0  0  0  0  0  0  0  0  0  0  0
    4.3404   41.8674   49.1986 C   0  0  0  0  0  0  0  0  0  0  0  0
    2.9304   41.8388   49.1587 N   0  0  0  0  0  0  0  0  0  0  0  0
    5.1137   43.0885   49.6235 C   0  0  0  0  0  2  0  0  0  0  0  0
    6.4730   42.5884   50.7138 S   0  0  0  0  0  0  0  0  0  0  0  0
    7.9274   43.5663   50.5029 C   0  0  0  0  0  0  0  0  0  0  0  0
    8.9149   43.2700   49.6183 N   0  0  0  0  0  0  0  0  0  0  0  0
    8.3144   44.7053   51.1245 N   0  0  0  0  0  0  0  0  0  0  0  0
    9.8614   44.2103   49.7148 N   0  0  0  0  0  0  0  0  0  0  0  0
    7.9343   45.5938   52.0625 C   0  0  0  0  0  0  0  0  0  0  0  0
    9.4913   45.1092   50.6542 C   0  0  0  0  0  0  0  0  0  0  0  0
    6.8000   45.6685   52.8738 C   0  0  0  0  0  3  0  0  0  0  0  0
    8.8904   46.5865   52.1933 C   0  0  0  0  0  0  0  0  0  0  0  0
    9.8617   46.2570   51.2937 N   0  0  0  0  0  0  0  0  0  0  0  0
    6.6698   46.7125   53.7656 C   0  0  0  0  0  3  0  0  0  0  0  0
    8.7406   47.6237   53.0930 C   0  0  0  0  0  3  0  0  0  0  0  0
    7.6218   47.7010   53.8958 C   0  0  0  0  0  3  0  0  0  0  0  0
    2.3054   40.5906   48.7277 C   0  0  0  0  0  3  0  0  0  0  0  0
    2.0515   39.6872   49.9327 C   0  0  0  0  0  1  0  0  0  0  0  0
    6.0198   43.7479   50.6742 *   0  0  0  0  0  0  0  0  0  0  0  0
    1.0017   40.8966   48.0329 C   0  0  0  0  0  2  0  0  0  0  0  0
    0.4197   42.1282   48.6785 C   0  0  0  0  0  2  0  0  0  0  0  0
    0.0121   41.8448   50.1187 C   0  0  0  0  0  1  0  0  0  0  0  0
    6.0198   43.7479   50.6742 *   0  0  0  0  0  0  0  0  0  0  0  0
  1  2  2  0
  2  3  1  0
  2  4  1  0
  4  5  1  0
  5  6  1  0
  6  8  1  0
  7  6  2  0
  7  9  1  0
  8 11  1  0
  8 10  1  0
  9 11  2  0
 10 13  2  0
 11 14  1  0
 12 10  1  0
 12 15  2  0
 13 16  1  0
 14 13  1  0
 15 17  1  0
 17 16  2  0
 18  3  1  0
 18 19  1  0
 21 18  1  0
 22 21  1  0
 22 23  1  0
M  RAD  8   4   3  12   2  15   2  16   2  17   2  18   2  19   2  21   3
M  RAD  2  22   3  23   2
V   20 *
V   24 *
M  END
>  <REMARK>  (1) 
 SMILES O=C(CSc1nnc2[nH]c3ccccc3n12)NC1CCCCCC1
 SMILES IDX 1 1 2 2 17 3 3 5 4 6 5 7 6 8 16 9 7 10 15 11 8 12 14 13
 SMILES IDX 10 14 9 15 13 16 11 17 12 18 18 20 19 21 20 22 24 24 23 25
 SMILES IDX 22 26 21 27
 H PARENT 17 4 9 19
 Flexibility Score:   98.900

>  <TORSDO>  (1) 
F 4

$$$$
