/home/pchatterjee/Documents/git/vs_workflow/DiffDock/diffdock_run/pdbqt_scrubbed/Z16226228.pdbqt
     RDKit          3D

 24 24  0  0  1  0  0  0  0  0999 V2000
    5.1240   40.8031   48.7670 O   0  0  0  0  0  0  0  0  0  0  0  0
    4.4451   41.8068   49.0798 C   0  0  0  0  0  0  0  0  0  0  0  0
    3.0373   41.7439   49.0117 N   0  0  0  0  0  0  0  0  0  0  0  0
    5.1798   43.0466   49.5187 C   0  0  0  0  0  2  0  0  0  0  0  0
    6.5288   42.5804   50.6365 S   0  0  0  0  0  0  0  0  0  0  0  0
    7.9630   43.5932   50.4535 C   0  0  0  0  0  0  0  0  0  0  0  0
    8.9748   43.3204   49.5891 N   0  0  0  0  0  0  0  0  0  0  0  0
    8.3096   44.7416   51.0814 N   0  0  0  0  0  0  0  0  0  0  0  0
    9.8961   44.2835   49.7035 N   0  0  0  0  0  0  0  0  0  0  0  0
    7.8894   45.6212   52.0107 C   0  0  0  0  0  0  0  0  0  0  0  0
    9.4856   45.1737   50.6343 C   0  0  0  0  0  0  0  0  0  0  0  0
    6.7377   45.6689   52.7991 C   0  0  0  0  0  3  0  0  0  0  0  0
    8.8183   46.6370   52.1594 C   0  0  0  0  0  0  0  0  0  0  0  0
    9.8152   46.3306   51.2798 N   0  0  0  0  0  0  0  0  0  0  0  0
    6.5644   46.7100   53.6869 C   0  0  0  0  0  3  0  0  0  0  0  0
    8.6254   47.6708   53.0548 C   0  0  0  0  0  3  0  0  0  0  0  0
    7.4893   47.7214   53.8350 C   0  0  0  0  0  3  0  0  0  0  0  0
    2.4515   40.4805   48.5698 C   0  0  0  0  0  3  0  0  0  0  0  0
    2.1956   39.5721   49.7704 C   0  0  0  0  0  1  0  0  0  0  0  0
    6.0485   43.7285   50.5865 *   0  0  0  0  0  0  0  0  0  0  0  0
    1.1549   40.7543   47.8487 C   0  0  0  0  0  2  0  0  0  0  0  0
    0.5303   41.9718   48.4813 C   0  0  0  0  0  2  0  0  0  0  0  0
    0.1011   41.6796   49.9133 C   0  0  0  0  0  1  0  0  0  0  0  0
    6.0485   43.7285   50.5865 *   0  0  0  0  0  0  0  0  0  0  0  0
  1  2  2  0
  2  3  1  0
  2  4  1  0
  4  5  1  0
  5  6  1  0
  6  8  1  0
  7  6  2  0
  7  9  1  0
  8 11  1  0
  8 10  1  0
  9 11  2  0
 10 13  2  0
 11 14  1  0
 12 10  1  0
 12 15  2  0
 13 16  1  0
 14 13  1  0
 15 17  1  0
 17 16  2  0
 18  3  1  0
 18 19  1  0
 21 18  1  0
 22 21  1  0
 22 23  1  0
M  RAD  8   4   3  12   2  15   2  16   2  17   2  18   2  19   2  21   3
M  RAD  2  22   3  23   2
V   20 *
V   24 *
M  END
>  <REMARK>  (1) 
 SMILES O=C(CSc1nnc2[nH]c3ccccc3n12)NC1CCCCCC1
 SMILES IDX 1 1 2 2 17 3 3 5 4 6 5 7 6 8 16 9 7 10 15 11 8 12 14 13
 SMILES IDX 10 14 9 15 13 16 11 17 12 18 18 20 19 21 20 22 24 24 23 25
 SMILES IDX 22 26 21 27
 H PARENT 17 4 9 19
 Flexibility Score:   98.900

>  <TORSDO>  (1) 
F 4

$$$$
