/home/pchatterjee/Documents/git/vs_workflow/DiffDock/diffdock_run/pdbqt_scrubbed/Z16226228.pdbqt
     RDKit          3D

 24 24  0  0  1  0  0  0  0  0999 V2000
    5.0471   40.8834   48.8448 O   0  0  0  0  0  0  0  0  0  0  0  0
    4.4156   41.9093   49.1838 C   0  0  0  0  0  0  0  0  0  0  0  0
    3.0050   41.8987   49.1585 N   0  0  0  0  0  0  0  0  0  0  0  0
    5.2087   43.1182   49.6070 C   0  0  0  0  0  2  0  0  0  0  0  0
    6.5729   42.5951   50.6804 S   0  0  0  0  0  0  0  0  0  0  0  0
    8.0373   43.5556   50.4593 C   0  0  0  0  0  0  0  0  0  0  0  0
    9.0116   43.2516   49.5628 N   0  0  0  0  0  0  0  0  0  0  0  0
    8.4451   44.6862   51.0828 N   0  0  0  0  0  0  0  0  0  0  0  0
    9.9710   44.1793   49.6544 N   0  0  0  0  0  0  0  0  0  0  0  0
    8.0861   45.5744   52.0294 C   0  0  0  0  0  0  0  0  0  0  0  0
    9.6221   45.0778   50.6023 C   0  0  0  0  0  0  0  0  0  0  0  0
    6.9615   45.6592   52.8529 C   0  0  0  0  0  3  0  0  0  0  0  0
    9.0561   46.5543   52.1553 C   0  0  0  0  0  0  0  0  0  0  0  0
   10.0137   46.2173   51.2439 N   0  0  0  0  0  0  0  0  0  0  0  0
    6.8538   46.6999   53.7515 C   0  0  0  0  0  3  0  0  0  0  0  0
    8.9288   47.5884   53.0620 C   0  0  0  0  0  3  0  0  0  0  0  0
    7.8196   47.6755   53.8769 C   0  0  0  0  0  3  0  0  0  0  0  0
    2.3598   40.6608   48.7276 C   0  0  0  0  0  3  0  0  0  0  0  0
    2.1069   39.7543   49.9305 C   0  0  0  0  0  1  0  0  0  0  0  0
    6.1340   43.7604   50.6516 *   0  0  0  0  0  0  0  0  0  0  0  0
    1.0529   40.9870   48.0482 C   0  0  0  0  0  2  0  0  0  0  0  0
    0.4932   42.2224   48.7063 C   0  0  0  0  0  2  0  0  0  0  0  0
    0.0972   41.9364   50.1492 C   0  0  0  0  0  1  0  0  0  0  0  0
    6.1340   43.7604   50.6516 *   0  0  0  0  0  0  0  0  0  0  0  0
  1  2  2  0
  2  3  1  0
  2  4  1  0
  4  5  1  0
  5  6  1  0
  6  8  1  0
  7  6  2  0
  7  9  1  0
  8 11  1  0
  8 10  1  0
  9 11  2  0
 10 13  2  0
 11 14  1  0
 12 10  1  0
 12 15  2  0
 13 16  1  0
 14 13  1  0
 15 17  1  0
 17 16  2  0
 18  3  1  0
 18 19  1  0
 21 18  1  0
 22 21  1  0
 22 23  1  0
M  RAD  8   4   3  12   2  15   2  16   2  17   2  18   2  19   2  21   3
M  RAD  2  22   3  23   2
V   20 *
V   24 *
M  END
>  <REMARK>  (1) 
 SMILES O=C(CSc1nnc2[nH]c3ccccc3n12)NC1CCCCCC1
 SMILES IDX 1 1 2 2 17 3 3 5 4 6 5 7 6 8 16 9 7 10 15 11 8 12 14 13
 SMILES IDX 10 14 9 15 13 16 11 17 12 18 18 20 19 21 20 22 24 24 23 25
 SMILES IDX 22 26 21 27
 H PARENT 17 4 9 19
 Flexibility Score:   98.900

>  <TORSDO>  (1) 
F 4

$$$$
