/home/pchatterjee/Documents/git/vs_workflow/DiffDock/diffdock_run/pdbqt_scrubbed/Z16226228.pdbqt
     RDKit          3D

 24 24  0  0  1  0  0  0  0  0999 V2000
    4.9074   40.9155   48.9010 O   0  0  0  0  0  0  0  0  0  0  0  0
    4.2748   41.9484   49.2158 C   0  0  0  0  0  0  0  0  0  0  0  0
    2.8642   41.9343   49.1950 N   0  0  0  0  0  0  0  0  0  0  0  0
    5.0666   43.1693   49.6056 C   0  0  0  0  0  2  0  0  0  0  0  0
    6.4351   42.6765   50.6878 S   0  0  0  0  0  0  0  0  0  0  0  0
    7.8968   43.6341   50.4378 C   0  0  0  0  0  0  0  0  0  0  0  0
    8.8691   43.3093   49.5464 N   0  0  0  0  0  0  0  0  0  0  0  0
    8.3041   44.7810   51.0311 N   0  0  0  0  0  0  0  0  0  0  0  0
    9.8268   44.2410   49.6114 N   0  0  0  0  0  0  0  0  0  0  0  0
    7.9461   45.6923   51.9559 C   0  0  0  0  0  0  0  0  0  0  0  0
    9.4788   45.1626   50.5372 C   0  0  0  0  0  0  0  0  0  0  0  0
    6.8237   45.7957   52.7803 C   0  0  0  0  0  3  0  0  0  0  0  0
    8.9144   46.6770   52.0538 C   0  0  0  0  0  0  0  0  0  0  0  0
    9.8700   46.3189   51.1484 N   0  0  0  0  0  0  0  0  0  0  0  0
    6.7166   46.8587   53.6525 C   0  0  0  0  0  3  0  0  0  0  0  0
    8.7877   47.7336   52.9343 C   0  0  0  0  0  3  0  0  0  0  0  0
    7.6807   47.8393   53.7501 C   0  0  0  0  0  3  0  0  0  0  0  0
    2.2202   40.6845   48.7978 C   0  0  0  0  0  3  0  0  0  0  0  0
    1.9729   39.8085   50.0240 C   0  0  0  0  0  1  0  0  0  0  0  0
    5.9937   43.8398   50.6306 *   0  0  0  0  0  0  0  0  0  0  0  0
    0.9106   40.9907   48.1142 C   0  0  0  0  0  2  0  0  0  0  0  0
    0.3504   42.2413   48.7424 C   0  0  0  0  0  2  0  0  0  0  0  0
   -0.0407   41.9914   50.1933 C   0  0  0  0  0  1  0  0  0  0  0  0
    5.9937   43.8398   50.6306 *   0  0  0  0  0  0  0  0  0  0  0  0
  1  2  2  0
  2  3  1  0
  2  4  1  0
  4  5  1  0
  5  6  1  0
  6  8  1  0
  7  6  2  0
  7  9  1  0
  8 11  1  0
  8 10  1  0
  9 11  2  0
 10 13  2  0
 11 14  1  0
 12 10  1  0
 12 15  2  0
 13 16  1  0
 14 13  1  0
 15 17  1  0
 17 16  2  0
 18  3  1  0
 18 19  1  0
 21 18  1  0
 22 21  1  0
 22 23  1  0
M  RAD  8   4   3  12   2  15   2  16   2  17   2  18   2  19   2  21   3
M  RAD  2  22   3  23   2
V   20 *
V   24 *
M  END
>  <REMARK>  (1) 
 SMILES O=C(CSc1nnc2[nH]c3ccccc3n12)NC1CCCCCC1
 SMILES IDX 1 1 2 2 17 3 3 5 4 6 5 7 6 8 16 9 7 10 15 11 8 12 14 13
 SMILES IDX 10 14 9 15 13 16 11 17 12 18 18 20 19 21 20 22 24 24 23 25
 SMILES IDX 22 26 21 27
 H PARENT 17 4 9 19
 Flexibility Score:   98.900

>  <TORSDO>  (1) 
F 4

$$$$
