/home/pchatterjee/Documents/git/vs_workflow/DiffDock/diffdock_run/pdbqt_scrubbed/Z16226228.pdbqt
     RDKit          3D

 24 24  0  0  1  0  0  0  0  0999 V2000
    4.9841   40.8415   48.8984 O   0  0  0  0  0  0  0  0  0  0  0  0
    4.3270   41.8473   49.2489 C   0  0  0  0  0  0  0  0  0  0  0  0
    2.9173   41.7934   49.2471 N   0  0  0  0  0  0  0  0  0  0  0  0
    5.0896   43.0799   49.6598 C   0  0  0  0  0  2  0  0  0  0  0  0
    6.4869   42.5986   50.7098 S   0  0  0  0  0  0  0  0  0  0  0  0
    7.9172   43.6038   50.4652 C   0  0  0  0  0  0  0  0  0  0  0  0
    8.8853   43.3303   49.5523 N   0  0  0  0  0  0  0  0  0  0  0  0
    8.3004   44.7462   51.0827 N   0  0  0  0  0  0  0  0  0  0  0  0
    9.8171   44.2870   49.6286 N   0  0  0  0  0  0  0  0  0  0  0  0
    7.9302   45.6226   52.0360 C   0  0  0  0  0  0  0  0  0  0  0  0
    9.4567   45.1739   50.5830 C   0  0  0  0  0  0  0  0  0  0  0  0
    6.8174   45.6724   52.8782 C   0  0  0  0  0  3  0  0  0  0  0  0
    8.8716   46.6318   52.1466 C   0  0  0  0  0  0  0  0  0  0  0  0
    9.8238   46.3248   51.2190 N   0  0  0  0  0  0  0  0  0  0  0  0
    6.6928   46.7090   53.7794 C   0  0  0  0  0  3  0  0  0  0  0  0
    8.7277   47.6611   53.0562 C   0  0  0  0  0  3  0  0  0  0  0  0
    7.6301   47.7138   53.8896 C   0  0  0  0  0  3  0  0  0  0  0  0
    2.3033   40.5364   48.8259 C   0  0  0  0  0  3  0  0  0  0  0  0
    2.0986   39.6221   50.0320 C   0  0  0  0  0  1  0  0  0  0  0  0
    6.0121   43.7499   50.6894 *   0  0  0  0  0  0  0  0  0  0  0  0
    0.9758   40.8225   48.1686 C   0  0  0  0  0  2  0  0  0  0  0  0
    0.3895   42.0398   48.8371 C   0  0  0  0  0  2  0  0  0  0  0  0
    0.0266   41.7413   50.2862 C   0  0  0  0  0  1  0  0  0  0  0  0
    6.0121   43.7499   50.6894 *   0  0  0  0  0  0  0  0  0  0  0  0
  1  2  2  0
  2  3  1  0
  2  4  1  0
  4  5  1  0
  5  6  1  0
  6  8  1  0
  7  6  2  0
  7  9  1  0
  8 11  1  0
  8 10  1  0
  9 11  2  0
 10 13  2  0
 11 14  1  0
 12 10  1  0
 12 15  2  0
 13 16  1  0
 14 13  1  0
 15 17  1  0
 17 16  2  0
 18  3  1  0
 18 19  1  0
 21 18  1  0
 22 21  1  0
 22 23  1  0
M  RAD  8   4   3  12   2  15   2  16   2  17   2  18   2  19   2  21   3
M  RAD  2  22   3  23   2
V   20 *
V   24 *
M  END
>  <REMARK>  (1) 
 SMILES O=C(CSc1nnc2[nH]c3ccccc3n12)NC1CCCCCC1
 SMILES IDX 1 1 2 2 17 3 3 5 4 6 5 7 6 8 16 9 7 10 15 11 8 12 14 13
 SMILES IDX 10 14 9 15 13 16 11 17 12 18 18 20 19 21 20 22 24 24 23 25
 SMILES IDX 22 26 21 27
 H PARENT 17 4 9 19
 Flexibility Score:   98.900

>  <TORSDO>  (1) 
F 4

$$$$
