/home/pchatterjee/Documents/git/vs_workflow/DiffDock/diffdock_run/pdbqt_scrubbed/Z16226228.pdbqt
     RDKit          3D

 24 24  0  0  1  0  0  0  0  0999 V2000
    5.0010   40.8804   48.8884 O   0  0  0  0  0  0  0  0  0  0  0  0
    4.3514   41.8995   49.2135 C   0  0  0  0  0  0  0  0  0  0  0  0
    2.9413   41.8565   49.2108 N   0  0  0  0  0  0  0  0  0  0  0  0
    5.1231   43.1357   49.5956 C   0  0  0  0  0  2  0  0  0  0  0  0
    6.5152   42.6690   50.6591 S   0  0  0  0  0  0  0  0  0  0  0  0
    7.9536   43.6569   50.3924 C   0  0  0  0  0  0  0  0  0  0  0  0
    8.9208   43.3537   49.4879 N   0  0  0  0  0  0  0  0  0  0  0  0
    8.3450   44.8108   50.9828 N   0  0  0  0  0  0  0  0  0  0  0  0
    9.8600   44.3047   49.5425 N   0  0  0  0  0  0  0  0  0  0  0  0
    7.9803   45.7128   51.9140 C   0  0  0  0  0  0  0  0  0  0  0  0
    9.5052   45.2173   50.4746 C   0  0  0  0  0  0  0  0  0  0  0  0
    6.8668   45.7917   52.7531 C   0  0  0  0  0  3  0  0  0  0  0  0
    8.9294   46.7170   52.0016 C   0  0  0  0  0  0  0  0  0  0  0  0
    9.8804   46.3803   51.0832 N   0  0  0  0  0  0  0  0  0  0  0  0
    6.7491   46.8508   53.6287 C   0  0  0  0  0  3  0  0  0  0  0  0
    8.7924   47.7692   52.8858 C   0  0  0  0  0  3  0  0  0  0  0  0
    7.6941   47.8506   53.7160 C   0  0  0  0  0  3  0  0  0  0  0  0
    2.3180   40.5945   48.8193 C   0  0  0  0  0  3  0  0  0  0  0  0
    2.1045   39.7113   50.0468 C   0  0  0  0  0  1  0  0  0  0  0  0
    6.0494   43.8232   50.6101 *   0  0  0  0  0  0  0  0  0  0  0  0
    0.9937   40.8750   48.1532 C   0  0  0  0  0  2  0  0  0  0  0  0
    0.4161   42.1127   48.7912 C   0  0  0  0  0  2  0  0  0  0  0  0
    0.0489   41.8522   50.2464 C   0  0  0  0  0  1  0  0  0  0  0  0
    6.0494   43.8232   50.6101 *   0  0  0  0  0  0  0  0  0  0  0  0
  1  2  2  0
  2  3  1  0
  2  4  1  0
  4  5  1  0
  5  6  1  0
  6  8  1  0
  7  6  2  0
  7  9  1  0
  8 11  1  0
  8 10  1  0
  9 11  2  0
 10 13  2  0
 11 14  1  0
 12 10  1  0
 12 15  2  0
 13 16  1  0
 14 13  1  0
 15 17  1  0
 17 16  2  0
 18  3  1  0
 18 19  1  0
 21 18  1  0
 22 21  1  0
 22 23  1  0
M  RAD  8   4   3  12   2  15   2  16   2  17   2  18   2  19   2  21   3
M  RAD  2  22   3  23   2
V   20 *
V   24 *
M  END
>  <REMARK>  (1) 
 SMILES O=C(CSc1nnc2[nH]c3ccccc3n12)NC1CCCCCC1
 SMILES IDX 1 1 2 2 17 3 3 5 4 6 5 7 6 8 16 9 7 10 15 11 8 12 14 13
 SMILES IDX 10 14 9 15 13 16 11 17 12 18 18 20 19 21 20 22 24 24 23 25
 SMILES IDX 22 26 21 27
 H PARENT 17 4 9 19
 Flexibility Score:   98.900

>  <TORSDO>  (1) 
F 4

$$$$
