/home/pchatterjee/Documents/git/vs_workflow/DiffDock/diffdock_run/pdbqt_scrubbed/Z16226228.pdbqt
     RDKit          3D

 24 24  0  0  1  0  0  0  0  0999 V2000
    4.9747   40.8487   48.9028 O   0  0  0  0  0  0  0  0  0  0  0  0
    4.3215   41.8681   49.2197 C   0  0  0  0  0  0  0  0  0  0  0  0
    2.9117   41.8319   49.1799 N   0  0  0  0  0  0  0  0  0  0  0  0
    5.0885   43.0972   49.6326 C   0  0  0  0  0  2  0  0  0  0  0  0
    6.4502   42.6148   50.7279 S   0  0  0  0  0  0  0  0  0  0  0  0
    7.8997   43.5979   50.5075 C   0  0  0  0  0  0  0  0  0  0  0  0
    8.8888   43.2979   49.6259 N   0  0  0  0  0  0  0  0  0  0  0  0
    8.2807   44.7449   51.1179 N   0  0  0  0  0  0  0  0  0  0  0  0
    9.8305   44.2439   49.7133 N   0  0  0  0  0  0  0  0  0  0  0  0
    7.8960   45.6406   52.0471 C   0  0  0  0  0  0  0  0  0  0  0  0
    9.4557   45.1501   50.6438 C   0  0  0  0  0  0  0  0  0  0  0  0
    6.7613   45.7176   52.8575 C   0  0  0  0  0  3  0  0  0  0  0  0
    8.8471   46.6394   52.1682 C   0  0  0  0  0  0  0  0  0  0  0  0
    9.8202   46.3060   51.2720 N   0  0  0  0  0  0  0  0  0  0  0  0
    6.6257   46.7696   53.7390 C   0  0  0  0  0  3  0  0  0  0  0  0
    8.6919   47.6846   53.0577 C   0  0  0  0  0  3  0  0  0  0  0  0
    7.5726   47.7642   53.8596 C   0  0  0  0  0  3  0  0  0  0  0  0
    2.2931   40.5764   48.7612 C   0  0  0  0  0  3  0  0  0  0  0  0
    2.0436   39.6836   49.9749 C   0  0  0  0  0  1  0  0  0  0  0  0
    5.9912   43.7715   50.6768 *   0  0  0  0  0  0  0  0  0  0  0  0
    0.9880   40.8689   48.0633 C   0  0  0  0  0  2  0  0  0  0  0  0
    0.3996   42.1038   48.6967 C   0  0  0  0  0  2  0  0  0  0  0  0
   -0.0067   41.8326   50.1396 C   0  0  0  0  0  1  0  0  0  0  0  0
    5.9912   43.7715   50.6768 *   0  0  0  0  0  0  0  0  0  0  0  0
  1  2  2  0
  2  3  1  0
  2  4  1  0
  4  5  1  0
  5  6  1  0
  6  8  1  0
  7  6  2  0
  7  9  1  0
  8 11  1  0
  8 10  1  0
  9 11  2  0
 10 13  2  0
 11 14  1  0
 12 10  1  0
 12 15  2  0
 13 16  1  0
 14 13  1  0
 15 17  1  0
 17 16  2  0
 18  3  1  0
 18 19  1  0
 21 18  1  0
 22 21  1  0
 22 23  1  0
M  RAD  8   4   3  12   2  15   2  16   2  17   2  18   2  19   2  21   3
M  RAD  2  22   3  23   2
V   20 *
V   24 *
M  END
>  <REMARK>  (1) 
 SMILES O=C(CSc1nnc2[nH]c3ccccc3n12)NC1CCCCCC1
 SMILES IDX 1 1 2 2 17 3 3 5 4 6 5 7 6 8 16 9 7 10 15 11 8 12 14 13
 SMILES IDX 10 14 9 15 13 16 11 17 12 18 18 20 19 21 20 22 24 24 23 25
 SMILES IDX 22 26 21 27
 H PARENT 17 4 9 19
 Flexibility Score:   98.900

>  <TORSDO>  (1) 
F 4

$$$$
