/home/pchatterjee/Documents/git/vs_workflow/DiffDock/diffdock_run/pdbqt_scrubbed/Z16226228.pdbqt
     RDKit          3D

 24 24  0  0  1  0  0  0  0  0999 V2000
    5.0137   40.8878   48.8588 O   0  0  0  0  0  0  0  0  0  0  0  0
    4.3659   41.9039   49.1963 C   0  0  0  0  0  0  0  0  0  0  0  0
    2.9557   41.8636   49.1926 N   0  0  0  0  0  0  0  0  0  0  0  0
    5.1397   43.1338   49.5942 C   0  0  0  0  0  2  0  0  0  0  0  0
    6.5305   42.6513   50.6523 S   0  0  0  0  0  0  0  0  0  0  0  0
    7.9709   43.6397   50.3986 C   0  0  0  0  0  0  0  0  0  0  0  0
    8.9378   43.3461   49.4907 N   0  0  0  0  0  0  0  0  0  0  0  0
    8.3641   44.7854   51.0034 N   0  0  0  0  0  0  0  0  0  0  0  0
    9.8787   44.2946   49.5575 N   0  0  0  0  0  0  0  0  0  0  0  0
    8.0008   45.6764   51.9458 C   0  0  0  0  0  0  0  0  0  0  0  0
    9.5253   45.1961   50.5009 C   0  0  0  0  0  0  0  0  0  0  0  0
    6.8870   45.7468   52.7853 C   0  0  0  0  0  3  0  0  0  0  0  0
    8.9517   46.6777   52.0462 C   0  0  0  0  0  0  0  0  0  0  0  0
    9.9024   46.3507   51.1241 N   0  0  0  0  0  0  0  0  0  0  0  0
    6.7710   46.7950   53.6741 C   0  0  0  0  0  3  0  0  0  0  0  0
    8.8163   47.7189   52.9435 C   0  0  0  0  0  3  0  0  0  0  0  0
    7.7178   47.7920   53.7742 C   0  0  0  0  0  3  0  0  0  0  0  0
    2.3302   40.6078   48.7850 C   0  0  0  0  0  3  0  0  0  0  0  0
    2.1146   39.7097   50.0013 C   0  0  0  0  0  1  0  0  0  0  0  0
    6.0668   43.8068   50.6175 *   0  0  0  0  0  0  0  0  0  0  0  0
    1.0067   40.8990   48.1220 C   0  0  0  0  0  2  0  0  0  0  0  0
    0.4311   42.1297   48.7752 C   0  0  0  0  0  2  0  0  0  0  0  0
    0.0629   41.8517   50.2270 C   0  0  0  0  0  1  0  0  0  0  0  0
    6.0668   43.8068   50.6175 *   0  0  0  0  0  0  0  0  0  0  0  0
  1  2  2  0
  2  3  1  0
  2  4  1  0
  4  5  1  0
  5  6  1  0
  6  8  1  0
  7  6  2  0
  7  9  1  0
  8 11  1  0
  8 10  1  0
  9 11  2  0
 10 13  2  0
 11 14  1  0
 12 10  1  0
 12 15  2  0
 13 16  1  0
 14 13  1  0
 15 17  1  0
 17 16  2  0
 18  3  1  0
 18 19  1  0
 21 18  1  0
 22 21  1  0
 22 23  1  0
M  RAD  8   4   3  12   2  15   2  16   2  17   2  18   2  19   2  21   3
M  RAD  2  22   3  23   2
V   20 *
V   24 *
M  END
>  <REMARK>  (1) 
 SMILES O=C(CSc1nnc2[nH]c3ccccc3n12)NC1CCCCCC1
 SMILES IDX 1 1 2 2 17 3 3 5 4 6 5 7 6 8 16 9 7 10 15 11 8 12 14 13
 SMILES IDX 10 14 9 15 13 16 11 17 12 18 18 20 19 21 20 22 24 24 23 25
 SMILES IDX 22 26 21 27
 H PARENT 17 4 9 19
 Flexibility Score:   98.900

>  <TORSDO>  (1) 
F 4

$$$$
