/home/pchatterjee/Documents/git/vs_workflow/DiffDock/diffdock_run/pdbqt_scrubbed/Z16226228.pdbqt
     RDKit          3D

 24 24  0  0  1  0  0  0  0  0999 V2000
    5.1789   40.7697   48.8482 O   0  0  0  0  0  0  0  0  0  0  0  0
    4.4965   41.7738   49.1522 C   0  0  0  0  0  0  0  0  0  0  0  0
    3.0883   41.6945   49.1194 N   0  0  0  0  0  0  0  0  0  0  0  0
    5.2277   43.0317   49.5427 C   0  0  0  0  0  2  0  0  0  0  0  0
    6.6079   42.6076   50.6391 S   0  0  0  0  0  0  0  0  0  0  0  0
    8.0260   43.6305   50.3969 C   0  0  0  0  0  0  0  0  0  0  0  0
    9.0201   43.3468   49.5155 N   0  0  0  0  0  0  0  0  0  0  0  0
    8.3747   44.7978   50.9878 N   0  0  0  0  0  0  0  0  0  0  0  0
    9.9332   44.3220   49.5840 N   0  0  0  0  0  0  0  0  0  0  0  0
    7.9669   45.6958   51.9049 C   0  0  0  0  0  0  0  0  0  0  0  0
    9.5349   45.2309   50.5021 C   0  0  0  0  0  0  0  0  0  0  0  0
    6.8337   45.7512   52.7191 C   0  0  0  0  0  3  0  0  0  0  0  0
    8.8879   46.7247   52.0062 C   0  0  0  0  0  0  0  0  0  0  0  0
    9.8669   46.4069   51.1108 N   0  0  0  0  0  0  0  0  0  0  0  0
    6.6700   46.8122   53.5849 C   0  0  0  0  0  3  0  0  0  0  0  0
    8.7048   47.7784   52.8802 C   0  0  0  0  0  3  0  0  0  0  0  0
    7.5869   47.8366   53.6858 C   0  0  0  0  0  3  0  0  0  0  0  0
    2.5062   40.4145   48.7230 C   0  0  0  0  0  3  0  0  0  0  0  0
    2.2888   39.5336   49.9515 C   0  0  0  0  0  1  0  0  0  0  0  0
    6.1138   43.7491   50.5723 *   0  0  0  0  0  0  0  0  0  0  0  0
    1.1900   40.6566   48.0266 C   0  0  0  0  0  2  0  0  0  0  0  0
    0.5671   41.8829   48.6436 C   0  0  0  0  0  2  0  0  0  0  0  0
    0.1752   41.6220   50.0923 C   0  0  0  0  0  1  0  0  0  0  0  0
    6.1138   43.7491   50.5723 *   0  0  0  0  0  0  0  0  0  0  0  0
  1  2  2  0
  2  3  1  0
  2  4  1  0
  4  5  1  0
  5  6  1  0
  6  8  1  0
  7  6  2  0
  7  9  1  0
  8 11  1  0
  8 10  1  0
  9 11  2  0
 10 13  2  0
 11 14  1  0
 12 10  1  0
 12 15  2  0
 13 16  1  0
 14 13  1  0
 15 17  1  0
 17 16  2  0
 18  3  1  0
 18 19  1  0
 21 18  1  0
 22 21  1  0
 22 23  1  0
M  RAD  8   4   3  12   2  15   2  16   2  17   2  18   2  19   2  21   3
M  RAD  2  22   3  23   2
V   20 *
V   24 *
M  END
>  <REMARK>  (1) 
 SMILES O=C(CSc1nnc2[nH]c3ccccc3n12)NC1CCCCCC1
 SMILES IDX 1 1 2 2 17 3 3 5 4 6 5 7 6 8 16 9 7 10 15 11 8 12 14 13
 SMILES IDX 10 14 9 15 13 16 11 17 12 18 18 20 19 21 20 22 24 24 23 25
 SMILES IDX 22 26 21 27
 H PARENT 17 4 9 19
 Flexibility Score:   98.900

>  <TORSDO>  (1) 
F 4

$$$$
