/home/pchatterjee/Documents/git/vs_workflow/DiffDock/diffdock_run/pdbqt_scrubbed/Z16226228.pdbqt
     RDKit          3D

 24 24  0  0  1  0  0  0  0  0999 V2000
    5.0039   40.8828   48.7627 O   0  0  0  0  0  0  0  0  0  0  0  0
    4.3495   41.9036   49.0722 C   0  0  0  0  0  0  0  0  0  0  0  0
    2.9414   41.8798   48.9885 N   0  0  0  0  0  0  0  0  0  0  0  0
    5.1132   43.1209   49.5243 C   0  0  0  0  0  2  0  0  0  0  0  0
    6.4364   42.6133   50.6550 S   0  0  0  0  0  0  0  0  0  0  0  0
    7.8998   43.5869   50.4920 C   0  0  0  0  0  0  0  0  0  0  0  0
    8.9133   43.2896   49.6376 N   0  0  0  0  0  0  0  0  0  0  0  0
    8.2710   44.7228   51.1284 N   0  0  0  0  0  0  0  0  0  0  0  0
    9.8595   44.2264   49.7661 N   0  0  0  0  0  0  0  0  0  0  0  0
    7.8650   45.6101   52.0567 C   0  0  0  0  0  0  0  0  0  0  0  0
    9.4633   45.1240   50.6960 C   0  0  0  0  0  0  0  0  0  0  0  0
    6.7063   45.6866   52.8325 C   0  0  0  0  0  3  0  0  0  0  0  0
    8.8198   46.5993   52.2198 C   0  0  0  0  0  0  0  0  0  0  0  0
    9.8175   46.2689   51.3499 N   0  0  0  0  0  0  0  0  0  0  0  0
    6.5519   46.7286   53.7228 C   0  0  0  0  0  3  0  0  0  0  0  0
    8.6455   47.6345   53.1173 C   0  0  0  0  0  3  0  0  0  0  0  0
    7.5027   47.7135   53.8852 C   0  0  0  0  0  3  0  0  0  0  0  0
    2.3259   40.6348   48.5349 C   0  0  0  0  0  3  0  0  0  0  0  0
    2.0317   39.7292   49.7289 C   0  0  0  0  0  1  0  0  0  0  0  0
    5.9885   43.7744   50.6045 *   0  0  0  0  0  0  0  0  0  0  0  0
    1.0454   40.9471   47.8008 C   0  0  0  0  0  2  0  0  0  0  0  0
    0.4477   42.1790   48.4315 C   0  0  0  0  0  2  0  0  0  0  0  0
   -0.0053   41.8931   49.8575 C   0  0  0  0  0  1  0  0  0  0  0  0
    5.9885   43.7744   50.6045 *   0  0  0  0  0  0  0  0  0  0  0  0
  1  2  2  0
  2  3  1  0
  2  4  1  0
  4  5  1  0
  5  6  1  0
  6  8  1  0
  7  6  2  0
  7  9  1  0
  8 11  1  0
  8 10  1  0
  9 11  2  0
 10 13  2  0
 11 14  1  0
 12 10  1  0
 12 15  2  0
 13 16  1  0
 14 13  1  0
 15 17  1  0
 17 16  2  0
 18  3  1  0
 18 19  1  0
 21 18  1  0
 22 21  1  0
 22 23  1  0
M  RAD  8   4   3  12   2  15   2  16   2  17   2  18   2  19   2  21   3
M  RAD  2  22   3  23   2
V   20 *
V   24 *
M  END
>  <REMARK>  (1) 
 SMILES O=C(CSc1nnc2[nH]c3ccccc3n12)NC1CCCCCC1
 SMILES IDX 1 1 2 2 17 3 3 5 4 6 5 7 6 8 16 9 7 10 15 11 8 12 14 13
 SMILES IDX 10 14 9 15 13 16 11 17 12 18 18 20 19 21 20 22 24 24 23 25
 SMILES IDX 22 26 21 27
 H PARENT 17 4 9 19
 Flexibility Score:   98.900

>  <TORSDO>  (1) 
F 4

$$$$
