/home/pchatterjee/Documents/git/vs_workflow/DiffDock/diffdock_run/pdbqt_scrubbed/Z1198960055.pdbqt
     RDKit          3D

 24 27  0  0  0  0  0  0  0  0999 V2000
    2.5857   44.4717   52.3436 C   0  0  0  0  0  0  0  0  0  0  0  0
    1.8763   45.4038   53.1116 C   0  0  0  0  0  3  0  0  0  0  0  0
    0.5303   45.2212   53.3813 C   0  0  0  0  0  3  0  0  0  0  0  0
   -0.1524   44.1201   52.9041 C   0  0  0  0  0  3  0  0  0  0  0  0
    0.5225   43.2009   52.1526 C   0  0  0  0  0  3  0  0  0  0  0  0
    1.8855   43.4011   51.8880 C   0  0  0  0  0  0  0  0  0  0  0  0
    3.9804   44.7513   52.1233 C   0  0  0  0  0  0  0  0  0  0  0  0
    4.7620   45.7312   52.7367 N   0  0  0  0  0  0  0  0  0  0  0  0
    4.5753   44.0150   51.2593 O   0  0  0  0  0  0  0  0  0  0  0  0
    6.1704   45.8890   52.4736 C   0  0  0  0  0  0  0  0  0  0  0  0
   10.2924   45.0077   50.4405 C   0  0  0  0  0  0  0  0  0  0  0  0
    8.9527   44.4128   50.2723 C   0  0  0  0  0  2  0  0  0  0  0  0
   10.2548   46.0442   51.4263 N   0  0  0  0  0  0  0  0  0  0  0  0
    8.1259   45.1799   51.2354 C   0  0  0  0  0  0  0  0  0  0  0  0
    8.8975   46.1185   51.8927 C   0  0  0  0  0  0  0  0  0  0  0  0
    6.7631   45.0634   51.5240 C   0  0  0  0  0  3  0  0  0  0  0  0
    8.2990   46.9317   52.8324 C   0  0  0  0  0  3  0  0  0  0  0  0
    6.9491   46.8076   53.1101 C   0  0  0  0  0  3  0  0  0  0  0  0
   11.3039   44.6315   49.7912 O   0  0  0  0  0  0  0  0  0  0  0  0
    2.4808   42.4184   51.1114 O   0  0  0  0  0  0  0  0  0  0  0  0
    1.8377   41.9197   49.9404 C   0  0  0  0  0  2  0  0  0  0  0  0
    2.8509   40.9898   49.2845 C   0  0  0  0  0  3  0  0  0  0  0  0
    2.3810   39.5427   49.2405 C   0  0  0  0  0  2  0  0  0  0  0  0
    3.4858   39.9030   50.1850 C   0  0  0  0  0  2  0  0  0  0  0  0
  1  6  2  0
  2  3  2  0
  2  1  1  0
  3  4  1  0
  4  5  2  0
  6  5  1  0
  6 20  1  0
  7  1  1  0
  7  8  1  0
  9  7  2  0
 10  8  1  0
 10 16  1  0
 11 19  2  0
 11 12  1  0
 13 15  1  0
 13 11  1  0
 14 16  2  0
 14 12  1  0
 15 14  1  0
 17 18  1  0
 17 15  2  0
 18 10  2  0
 20 21  1  0
 21 22  1  0
 22 24  1  0
 22 23  1  0
 24 23  1  0
M  RAD  8   2   2   3   2   4   2   5   2  12   3  16   2  17   2  18   2
M  RAD  4  21   3  22   2  23   3  24   3
M  END
>  <REMARK>  (1) 
 SMILES O=C1Cc2cc(NC(=O)c3ccccc3OCC3CC3)ccc2N1
 SMILES IDX 10 1 11 2 12 3 13 4 14 5 15 6 8 7 7 8 9 10 6 11 2 12 3 13
 SMILES IDX 24 14 4 15 23 16 5 17 22 18 21 19 1 20 16 22 17 23 18 24
 SMILES IDX 19 25 20 26
 H PARENT 7 9 24 21

>  <TORSDO>  (1) 
F 5

$$$$
