/home/pchatterjee/Documents/git/vs_workflow/DiffDock/diffdock_run/pdbqt_scrubbed/Z1198960055.pdbqt
     RDKit          3D

 24 27  0  0  0  0  0  0  0  0999 V2000
    2.7588   44.6160   52.9988 C   0  0  0  0  0  0  0  0  0  0  0  0
    2.1747   45.3571   54.0340 C   0  0  0  0  0  3  0  0  0  0  0  0
    0.8641   45.1265   54.4176 C   0  0  0  0  0  3  0  0  0  0  0  0
    0.0950   44.1636   53.7951 C   0  0  0  0  0  3  0  0  0  0  0  0
    0.6472   43.4316   52.7830 C   0  0  0  0  0  3  0  0  0  0  0  0
    1.9757   43.6782   52.4062 C   0  0  0  0  0  0  0  0  0  0  0  0
    4.1266   44.9299   52.6785 C   0  0  0  0  0  0  0  0  0  0  0  0
    4.9577   45.8608   53.3030 N   0  0  0  0  0  0  0  0  0  0  0  0
    4.6425   44.2793   51.7022 O   0  0  0  0  0  0  0  0  0  0  0  0
    6.3417   46.0418   52.9432 C   0  0  0  0  0  0  0  0  0  0  0  0
   10.2389   45.4763   50.4148 C   0  0  0  0  0  0  0  0  0  0  0  0
    8.8716   44.9416   50.2683 C   0  0  0  0  0  2  0  0  0  0  0  0
   10.3208   46.3200   51.5677 N   0  0  0  0  0  0  0  0  0  0  0  0
    8.1573   45.5363   51.4240 C   0  0  0  0  0  0  0  0  0  0  0  0
    9.0129   46.3302   52.1630 C   0  0  0  0  0  0  0  0  0  0  0  0
    6.8223   45.3907   51.8119 C   0  0  0  0  0  3  0  0  0  0  0  0
    8.5253   46.9709   53.2829 C   0  0  0  0  0  3  0  0  0  0  0  0
    7.2019   46.8197   53.6576 C   0  0  0  0  0  3  0  0  0  0  0  0
   11.1770   45.2072   49.6187 O   0  0  0  0  0  0  0  0  0  0  0  0
    2.4441   42.8903   51.3654 O   0  0  0  0  0  0  0  0  0  0  0  0
    1.5710   42.0074   50.6642 C   0  0  0  0  0  2  0  0  0  0  0  0
    2.4404   41.3218   49.6175 C   0  0  0  0  0  3  0  0  0  0  0  0
    2.7296   39.8655   49.9530 C   0  0  0  0  0  2  0  0  0  0  0  0
    3.8449   40.8575   50.0723 C   0  0  0  0  0  2  0  0  0  0  0  0
  1  6  2  0
  2  3  2  0
  2  1  1  0
  3  4  1  0
  4  5  2  0
  6  5  1  0
  6 20  1  0
  7  1  1  0
  7  8  1  0
  9  7  2  0
 10  8  1  0
 10 16  1  0
 11 19  2  0
 11 12  1  0
 13 15  1  0
 13 11  1  0
 14 16  2  0
 14 12  1  0
 15 14  1  0
 17 18  1  0
 17 15  2  0
 18 10  2  0
 20 21  1  0
 21 22  1  0
 22 24  1  0
 22 23  1  0
 24 23  1  0
M  RAD  8   2   2   3   2   4   2   5   2  12   3  16   2  17   2  18   2
M  RAD  4  21   3  22   2  23   3  24   3
M  END
>  <REMARK>  (1) 
 SMILES O=C1Cc2cc(NC(=O)c3ccccc3OCC3CC3)ccc2N1
 SMILES IDX 10 1 11 2 12 3 13 4 14 5 15 6 8 7 7 8 9 10 6 11 2 12 3 13
 SMILES IDX 24 14 4 15 23 16 5 17 22 18 21 19 1 20 16 22 17 23 18 24
 SMILES IDX 19 25 20 26
 H PARENT 7 9 24 21

>  <TORSDO>  (1) 
F 5

$$$$
