/home/pchatterjee/Documents/git/vs_workflow/DiffDock/diffdock_run/pdbqt_scrubbed/Z1198960055.pdbqt
     RDKit          3D

 24 27  0  0  0  0  0  0  0  0999 V2000
   13.0164   61.5863   82.8607 C   0  0  0  0  0  0  0  0  0  0  0  0
   14.4052   61.6622   82.6951 C   0  0  0  0  0  3  0  0  0  0  0  0
   15.2109   60.5678   82.9616 C   0  0  0  0  0  3  0  0  0  0  0  0
   14.6739   59.3727   83.3971 C   0  0  0  0  0  3  0  0  0  0  0  0
   13.3218   59.2801   83.5653 C   0  0  0  0  0  3  0  0  0  0  0  0
   12.5199   60.3981   83.2916 C   0  0  0  0  0  0  0  0  0  0  0  0
   12.2682   62.7771   82.5541 C   0  0  0  0  0  0  0  0  0  0  0  0
   12.5403   64.0844   82.9593 N   0  0  0  0  0  0  0  0  0  0  0  0
   11.2267   62.6184   81.8242 O   0  0  0  0  0  0  0  0  0  0  0  0
   11.8465   65.2305   82.4274 C   0  0  0  0  0  0  0  0  0  0  0  0
   11.3890   69.4858   80.5342 C   0  0  0  0  0  0  0  0  0  0  0  0
   12.5700   68.6940   80.9286 C   0  0  0  0  0  2  0  0  0  0  0  0
   10.1887   68.7570   80.8092 N   0  0  0  0  0  0  0  0  0  0  0  0
   11.9703   67.4445   81.4563 C   0  0  0  0  0  0  0  0  0  0  0  0
   10.5922   67.5006   81.3785 C   0  0  0  0  0  0  0  0  0  0  0  0
   12.5992   66.3112   81.9800 C   0  0  0  0  0  3  0  0  0  0  0  0
    9.8560   66.4231   81.8251 C   0  0  0  0  0  3  0  0  0  0  0  0
   10.4892   65.3064   82.3417 C   0  0  0  0  0  3  0  0  0  0  0  0
   11.4640   70.6373   80.0296 O   0  0  0  0  0  0  0  0  0  0  0  0
   11.1618   60.2084   83.4991 O   0  0  0  0  0  0  0  0  0  0  0  0
   10.6565   58.9502   83.9404 C   0  0  0  0  0  2  0  0  0  0  0  0
    9.1465   59.1293   84.0369 C   0  0  0  0  0  3  0  0  0  0  0  0
    8.4097   58.5906   82.8187 C   0  0  0  0  0  2  0  0  0  0  0  0
    8.4885   60.0746   83.0031 C   0  0  0  0  0  2  0  0  0  0  0  0
  1  6  2  0
  2  3  2  0
  2  1  1  0
  3  4  1  0
  4  5  2  0
  6  5  1  0
  6 20  1  0
  7  1  1  0
  7  8  1  0
  9  7  2  0
 10  8  1  0
 10 16  1  0
 11 19  2  0
 11 12  1  0
 13 15  1  0
 13 11  1  0
 14 16  2  0
 14 12  1  0
 15 14  1  0
 17 18  1  0
 17 15  2  0
 18 10  2  0
 20 21  1  0
 21 22  1  0
 22 24  1  0
 22 23  1  0
 24 23  1  0
M  RAD  8   2   2   3   2   4   2   5   2  12   3  16   2  17   2  18   2
M  RAD  4  21   3  22   2  23   3  24   3
M  END
>  <REMARK>  (1) 
 SMILES O=C1Cc2cc(NC(=O)c3ccccc3OCC3CC3)ccc2N1
 SMILES IDX 10 1 11 2 12 3 13 4 14 5 15 6 8 7 7 8 9 10 6 11 2 12 3 13
 SMILES IDX 24 14 4 15 23 16 5 17 22 18 21 19 1 20 16 22 17 23 18 24
 SMILES IDX 19 25 20 26
 H PARENT 7 9 24 21

>  <TORSDO>  (1) 
F 5

$$$$
