/home/pchatterjee/Documents/git/vs_workflow/DiffDock/diffdock_run/pdbqt_scrubbed/Z1198960055.pdbqt
     RDKit          3D

 24 27  0  0  0  0  0  0  0  0999 V2000
    5.4299   42.6255   49.6641 C   0  0  0  0  0  0  0  0  0  0  0  0
    6.1537   41.6922   48.9110 C   0  0  0  0  0  3  0  0  0  0  0  0
    5.5334   40.5691   48.3899 C   0  0  0  0  0  3  0  0  0  0  0  0
    4.1884   40.3341   48.5949 C   0  0  0  0  0  3  0  0  0  0  0  0
    3.4665   41.2326   49.3275 C   0  0  0  0  0  3  0  0  0  0  0  0
    4.1101   42.3647   49.8489 C   0  0  0  0  0  0  0  0  0  0  0  0
    6.1657   43.7597   50.1581 C   0  0  0  0  0  0  0  0  0  0  0  0
    7.5354   44.0028   50.0474 N   0  0  0  0  0  0  0  0  0  0  0  0
    5.4830   44.6516   50.7752 O   0  0  0  0  0  0  0  0  0  0  0  0
    8.2155   45.0186   50.8112 C   0  0  0  0  0  0  0  0  0  0  0  0
    8.9278   47.9670   54.3750 C   0  0  0  0  0  0  0  0  0  0  0  0
    7.8575   46.9926   54.0885 C   0  0  0  0  0  2  0  0  0  0  0  0
    9.9001   47.9588   53.3251 N   0  0  0  0  0  0  0  0  0  0  0  0
    8.2765   46.4120   52.7897 C   0  0  0  0  0  0  0  0  0  0  0  0
    9.4601   46.9840   52.3653 C   0  0  0  0  0  0  0  0  0  0  0  0
    7.6529   45.4298   52.0149 C   0  0  0  0  0  3  0  0  0  0  0  0
   10.0089   46.5684   51.1700 C   0  0  0  0  0  3  0  0  0  0  0  0
    9.3828   45.5953   50.4111 C   0  0  0  0  0  3  0  0  0  0  0  0
    8.9504   48.6877   55.4076 O   0  0  0  0  0  0  0  0  0  0  0  0
    3.2960   43.2134   50.5840 O   0  0  0  0  0  0  0  0  0  0  0  0
    2.3845   42.6983   51.5521 C   0  0  0  0  0  2  0  0  0  0  0  0
    1.5114   43.8792   51.9578 C   0  0  0  0  0  3  0  0  0  0  0  0
    2.2449   45.2105   51.8762 C   0  0  0  0  0  2  0  0  0  0  0  0
    1.9318   44.6532   53.2303 C   0  0  0  0  0  2  0  0  0  0  0  0
  1  6  2  0
  2  3  2  0
  2  1  1  0
  3  4  1  0
  4  5  2  0
  6  5  1  0
  6 20  1  0
  7  1  1  0
  7  8  1  0
  9  7  2  0
 10  8  1  0
 10 16  1  0
 11 19  2  0
 11 12  1  0
 13 15  1  0
 13 11  1  0
 14 16  2  0
 14 12  1  0
 15 14  1  0
 17 18  1  0
 17 15  2  0
 18 10  2  0
 20 21  1  0
 21 22  1  0
 22 24  1  0
 22 23  1  0
 24 23  1  0
M  RAD  8   2   2   3   2   4   2   5   2  12   3  16   2  17   2  18   2
M  RAD  4  21   3  22   2  23   3  24   3
M  END
>  <REMARK>  (1) 
 SMILES O=C1Cc2cc(NC(=O)c3ccccc3OCC3CC3)ccc2N1
 SMILES IDX 10 1 11 2 12 3 13 4 14 5 15 6 8 7 7 8 9 10 6 11 2 12 3 13
 SMILES IDX 24 14 4 15 23 16 5 17 22 18 21 19 1 20 16 22 17 23 18 24
 SMILES IDX 19 25 20 26
 H PARENT 7 9 24 21

>  <TORSDO>  (1) 
F 5

$$$$
