/home/pchatterjee/Documents/git/vs_workflow/DiffDock/diffdock_run/pdbqt_scrubbed/Z1198960055.pdbqt
     RDKit          3D

 24 27  0  0  0  0  0  0  0  0999 V2000
    2.6675   44.6265   52.3843 C   0  0  0  0  0  0  0  0  0  0  0  0
    1.9187   45.5393   53.1381 C   0  0  0  0  0  3  0  0  0  0  0  0
    0.5573   45.3604   53.3180 C   0  0  0  0  0  3  0  0  0  0  0  0
   -0.1025   44.2822   52.7629 C   0  0  0  0  0  3  0  0  0  0  0  0
    0.6108   43.3821   52.0239 C   0  0  0  0  0  3  0  0  0  0  0  0
    1.9890   43.5783   51.8507 C   0  0  0  0  0  0  0  0  0  0  0  0
    4.0752   44.9003   52.2599 C   0  0  0  0  0  0  0  0  0  0  0  0
    4.8238   45.8540   52.9509 N   0  0  0  0  0  0  0  0  0  0  0  0
    4.7176   44.1853   51.4122 O   0  0  0  0  0  0  0  0  0  0  0  0
    6.2414   46.0288   52.7569 C   0  0  0  0  0  0  0  0  0  0  0  0
   10.4120   45.4244   50.7218 C   0  0  0  0  0  0  0  0  0  0  0  0
    9.0708   44.8885   50.4203 C   0  0  0  0  0  2  0  0  0  0  0  0
   10.3572   46.2847   51.8640 N   0  0  0  0  0  0  0  0  0  0  0  0
    8.2247   45.5003   51.4735 C   0  0  0  0  0  0  0  0  0  0  0  0
    8.9874   46.3042   52.2982 C   0  0  0  0  0  0  0  0  0  0  0  0
    6.8525   45.3612   51.7007 C   0  0  0  0  0  3  0  0  0  0  0  0
    8.3708   46.9615   53.3424 C   0  0  0  0  0  3  0  0  0  0  0  0
    7.0116   46.8165   53.5580 C   0  0  0  0  0  3  0  0  0  0  0  0
   11.4381   45.1432   50.0478 O   0  0  0  0  0  0  0  0  0  0  0  0
    2.6242   42.6163   51.0796 O   0  0  0  0  0  0  0  0  0  0  0  0
    1.8726   41.6793   50.3112 C   0  0  0  0  0  2  0  0  0  0  0  0
    2.9021   40.8879   49.5140 C   0  0  0  0  0  3  0  0  0  0  0  0
    4.2330   40.7524   50.2402 C   0  0  0  0  0  2  0  0  0  0  0  0
    4.1627   41.6547   49.0471 C   0  0  0  0  0  2  0  0  0  0  0  0
  1  6  2  0
  2  3  2  0
  2  1  1  0
  3  4  1  0
  4  5  2  0
  6  5  1  0
  6 20  1  0
  7  1  1  0
  7  8  1  0
  9  7  2  0
 10  8  1  0
 10 16  1  0
 11 19  2  0
 11 12  1  0
 13 15  1  0
 13 11  1  0
 14 16  2  0
 14 12  1  0
 15 14  1  0
 17 18  1  0
 17 15  2  0
 18 10  2  0
 20 21  1  0
 21 22  1  0
 22 24  1  0
 22 23  1  0
 24 23  1  0
M  RAD  8   2   2   3   2   4   2   5   2  12   3  16   2  17   2  18   2
M  RAD  4  21   3  22   2  23   3  24   3
M  END
>  <REMARK>  (1) 
 SMILES O=C1Cc2cc(NC(=O)c3ccccc3OCC3CC3)ccc2N1
 SMILES IDX 10 1 11 2 12 3 13 4 14 5 15 6 8 7 7 8 9 10 6 11 2 12 3 13
 SMILES IDX 24 14 4 15 23 16 5 17 22 18 21 19 1 20 16 22 17 23 18 24
 SMILES IDX 19 25 20 26
 H PARENT 7 9 24 21

>  <TORSDO>  (1) 
F 5

$$$$
