/home/pchatterjee/Documents/git/vs_workflow/DiffDock/diffdock_run/pdbqt_scrubbed/Z1198960055.pdbqt
     RDKit          3D

 24 27  0  0  0  0  0  0  0  0999 V2000
    2.6950   44.7732   52.6383 C   0  0  0  0  0  0  0  0  0  0  0  0
    2.0503   45.5754   53.5885 C   0  0  0  0  0  3  0  0  0  0  0  0
    0.7234   45.3550   53.9179 C   0  0  0  0  0  3  0  0  0  0  0  0
   -0.0031   44.3426   53.3235 C   0  0  0  0  0  3  0  0  0  0  0  0
    0.6084   43.5506   52.3941 C   0  0  0  0  0  3  0  0  0  0  0  0
    1.9528   43.7876   52.0711 C   0  0  0  0  0  0  0  0  0  0  0  0
    4.0750   45.0817   52.3692 C   0  0  0  0  0  0  0  0  0  0  0  0
    4.9057   45.9587   53.0678 N   0  0  0  0  0  0  0  0  0  0  0  0
    4.6037   44.4820   51.3675 O   0  0  0  0  0  0  0  0  0  0  0  0
    6.3056   46.1214   52.7650 C   0  0  0  0  0  0  0  0  0  0  0  0
   10.3035   45.4743   50.4199 C   0  0  0  0  0  0  0  0  0  0  0  0
    8.9390   44.9477   50.2247 C   0  0  0  0  0  2  0  0  0  0  0  0
   10.3428   46.3402   51.5585 N   0  0  0  0  0  0  0  0  0  0  0  0
    8.1807   45.5711   51.3364 C   0  0  0  0  0  0  0  0  0  0  0  0
    9.0105   46.3727   52.0961 C   0  0  0  0  0  0  0  0  0  0  0  0
    6.8289   45.4440   51.6687 C   0  0  0  0  0  3  0  0  0  0  0  0
    8.4806   47.0396   53.1810 C   0  0  0  0  0  3  0  0  0  0  0  0
    7.1409   46.9064   53.5007 C   0  0  0  0  0  3  0  0  0  0  0  0
   11.2727   45.1818   49.6708 O   0  0  0  0  0  0  0  0  0  0  0  0
    2.4826   42.9369   51.1125 O   0  0  0  0  0  0  0  0  0  0  0  0
    1.7752   41.7711   50.6957 C   0  0  0  0  0  2  0  0  0  0  0  0
    2.6400   41.1350   49.6146 C   0  0  0  0  0  3  0  0  0  0  0  0
    3.9776   40.6389   50.1453 C   0  0  0  0  0  2  0  0  0  0  0  0
    3.9666   41.8536   49.2696 C   0  0  0  0  0  2  0  0  0  0  0  0
  1  6  2  0
  2  3  2  0
  2  1  1  0
  3  4  1  0
  4  5  2  0
  6  5  1  0
  6 20  1  0
  7  1  1  0
  7  8  1  0
  9  7  2  0
 10  8  1  0
 10 16  1  0
 11 19  2  0
 11 12  1  0
 13 15  1  0
 13 11  1  0
 14 16  2  0
 14 12  1  0
 15 14  1  0
 17 18  1  0
 17 15  2  0
 18 10  2  0
 20 21  1  0
 21 22  1  0
 22 24  1  0
 22 23  1  0
 24 23  1  0
M  RAD  8   2   2   3   2   4   2   5   2  12   3  16   2  17   2  18   2
M  RAD  4  21   3  22   2  23   3  24   3
M  END
>  <REMARK>  (1) 
 SMILES O=C1Cc2cc(NC(=O)c3ccccc3OCC3CC3)ccc2N1
 SMILES IDX 10 1 11 2 12 3 13 4 14 5 15 6 8 7 7 8 9 10 6 11 2 12 3 13
 SMILES IDX 24 14 4 15 23 16 5 17 22 18 21 19 1 20 16 22 17 23 18 24
 SMILES IDX 19 25 20 26
 H PARENT 7 9 24 21

>  <TORSDO>  (1) 
F 5

$$$$
