/home/pchatterjee/Documents/git/vs_workflow/DiffDock/diffdock_run/pdbqt_scrubbed/Z1198960055.pdbqt
     RDKit          3D

 24 27  0  0  0  0  0  0  0  0999 V2000
    3.0114   42.6502   51.2834 C   0  0  0  0  0  0  0  0  0  0  0  0
    2.0335   42.9992   52.2236 C   0  0  0  0  0  3  0  0  0  0  0  0
    0.8120   42.3472   52.2498 C   0  0  0  0  0  3  0  0  0  0  0  0
    0.5201   41.3375   51.3546 C   0  0  0  0  0  3  0  0  0  0  0  0
    1.4610   40.9840   50.4300 C   0  0  0  0  0  3  0  0  0  0  0  0
    2.6930   41.6548   50.4164 C   0  0  0  0  0  0  0  0  0  0  0  0
    4.2477   43.3852   51.3414 C   0  0  0  0  0  0  0  0  0  0  0  0
    4.6062   44.3826   52.2492 N   0  0  0  0  0  0  0  0  0  0  0  0
    5.1228   43.0910   50.4525 O   0  0  0  0  0  0  0  0  0  0  0  0
    5.9093   44.9985   52.2630 C   0  0  0  0  0  0  0  0  0  0  0  0
   10.2674   45.8787   50.8025 C   0  0  0  0  0  0  0  0  0  0  0  0
    9.2080   44.9875   50.2922 C   0  0  0  0  0  2  0  0  0  0  0  0
    9.8110   46.5768   51.9652 N   0  0  0  0  0  0  0  0  0  0  0  0
    8.0947   45.2163   51.2449 C   0  0  0  0  0  0  0  0  0  0  0  0
    8.4634   46.1387   52.2048 C   0  0  0  0  0  0  0  0  0  0  0  0
    6.8191   44.6452   51.2720 C   0  0  0  0  0  3  0  0  0  0  0  0
    7.5531   46.4814   53.1827 C   0  0  0  0  0  3  0  0  0  0  0  0
    6.2930   45.9098   53.1998 C   0  0  0  0  0  3  0  0  0  0  0  0
   11.4017   45.9849   50.2654 O   0  0  0  0  0  0  0  0  0  0  0  0
    3.5789   41.2304   49.4375 O   0  0  0  0  0  0  0  0  0  0  0  0
    3.1148   40.5467   48.2754 C   0  0  0  0  0  2  0  0  0  0  0  0
    4.3611   40.2597   47.4472 C   0  0  0  0  0  3  0  0  0  0  0  0
    5.0467   41.5265   46.9551 C   0  0  0  0  0  2  0  0  0  0  0  0
    4.3206   40.6778   45.9576 C   0  0  0  0  0  2  0  0  0  0  0  0
  1  6  2  0
  2  3  2  0
  2  1  1  0
  3  4  1  0
  4  5  2  0
  6  5  1  0
  6 20  1  0
  7  1  1  0
  7  8  1  0
  9  7  2  0
 10  8  1  0
 10 16  1  0
 11 19  2  0
 11 12  1  0
 13 15  1  0
 13 11  1  0
 14 16  2  0
 14 12  1  0
 15 14  1  0
 17 18  1  0
 17 15  2  0
 18 10  2  0
 20 21  1  0
 21 22  1  0
 22 24  1  0
 22 23  1  0
 24 23  1  0
M  RAD  8   2   2   3   2   4   2   5   2  12   3  16   2  17   2  18   2
M  RAD  4  21   3  22   2  23   3  24   3
M  END
>  <REMARK>  (1) 
 SMILES O=C1Cc2cc(NC(=O)c3ccccc3OCC3CC3)ccc2N1
 SMILES IDX 10 1 11 2 12 3 13 4 14 5 15 6 8 7 7 8 9 10 6 11 2 12 3 13
 SMILES IDX 24 14 4 15 23 16 5 17 22 18 21 19 1 20 16 22 17 23 18 24
 SMILES IDX 19 25 20 26
 H PARENT 7 9 24 21

>  <TORSDO>  (1) 
F 5

$$$$
