/home/pchatterjee/Documents/git/vs_workflow/DiffDock/diffdock_run/pdbqt_scrubbed/Z1198960055.pdbqt
     RDKit          3D

 24 27  0  0  0  0  0  0  0  0999 V2000
    4.5239   41.5292   49.1298 C   0  0  0  0  0  0  0  0  0  0  0  0
    3.6017   41.2892   50.1565 C   0  0  0  0  0  3  0  0  0  0  0  0
    2.5212   40.4468   49.9550 C   0  0  0  0  0  3  0  0  0  0  0  0
    2.3190   39.8195   48.7419 C   0  0  0  0  0  3  0  0  0  0  0  0
    3.2072   40.0421   47.7286 C   0  0  0  0  0  3  0  0  0  0  0  0
    4.2960   40.8988   47.9489 C   0  0  0  0  0  0  0  0  0  0  0  0
    5.6131   42.4172   49.4411 C   0  0  0  0  0  0  0  0  0  0  0  0
    5.8841   43.0417   50.6592 N   0  0  0  0  0  0  0  0  0  0  0  0
    6.4302   42.6666   48.4857 O   0  0  0  0  0  0  0  0  0  0  0  0
    6.9964   43.9385   50.8501 C   0  0  0  0  0  0  0  0  0  0  0  0
    9.3968   47.4680   52.7688 C   0  0  0  0  0  0  0  0  0  0  0  0
    8.0557   46.9147   53.0377 C   0  0  0  0  0  2  0  0  0  0  0  0
   10.0295   46.7428   51.7098 N   0  0  0  0  0  0  0  0  0  0  0  0
    7.9500   45.8090   52.0550 C   0  0  0  0  0  0  0  0  0  0  0  0
    9.1016   45.7261   51.2967 C   0  0  0  0  0  0  0  0  0  0  0  0
    6.8968   44.9169   51.8337 C   0  0  0  0  0  3  0  0  0  0  0  0
    9.1892   44.7519   50.3241 C   0  0  0  0  0  3  0  0  0  0  0  0
    8.1404   43.8741   50.1137 C   0  0  0  0  0  3  0  0  0  0  0  0
    9.8841   48.4419   53.4015 O   0  0  0  0  0  0  0  0  0  0  0  0
    5.1372   41.0671   46.8592 O   0  0  0  0  0  0  0  0  0  0  0  0
    4.9401   40.3227   45.6591 C   0  0  0  0  0  2  0  0  0  0  0  0
    5.8949   40.9327   44.6404 C   0  0  0  0  0  3  0  0  0  0  0  0
    5.2727   42.0858   43.8657 C   0  0  0  0  0  2  0  0  0  0  0  0
    5.5069   40.7921   43.1488 C   0  0  0  0  0  2  0  0  0  0  0  0
  1  6  2  0
  2  3  2  0
  2  1  1  0
  3  4  1  0
  4  5  2  0
  6  5  1  0
  6 20  1  0
  7  1  1  0
  7  8  1  0
  9  7  2  0
 10  8  1  0
 10 16  1  0
 11 19  2  0
 11 12  1  0
 13 15  1  0
 13 11  1  0
 14 16  2  0
 14 12  1  0
 15 14  1  0
 17 18  1  0
 17 15  2  0
 18 10  2  0
 20 21  1  0
 21 22  1  0
 22 24  1  0
 22 23  1  0
 24 23  1  0
M  RAD  8   2   2   3   2   4   2   5   2  12   3  16   2  17   2  18   2
M  RAD  4  21   3  22   2  23   3  24   3
M  END
>  <REMARK>  (1) 
 SMILES O=C1Cc2cc(NC(=O)c3ccccc3OCC3CC3)ccc2N1
 SMILES IDX 10 1 11 2 12 3 13 4 14 5 15 6 8 7 7 8 9 10 6 11 2 12 3 13
 SMILES IDX 24 14 4 15 23 16 5 17 22 18 21 19 1 20 16 22 17 23 18 24
 SMILES IDX 19 25 20 26
 H PARENT 7 9 24 21

>  <TORSDO>  (1) 
F 5

$$$$
