/home/pchatterjee/Documents/git/vs_workflow/DiffDock/diffdock_run/pdbqt_scrubbed/Z1198960055.pdbqt
     RDKit          3D

 24 27  0  0  0  0  0  0  0  0999 V2000
    4.7979   41.5891   48.6856 C   0  0  0  0  0  0  0  0  0  0  0  0
    5.6114   41.2642   47.5926 C   0  0  0  0  0  3  0  0  0  0  0  0
    5.1719   40.3811   46.6206 C   0  0  0  0  0  3  0  0  0  0  0  0
    3.9241   39.7953   46.6973 C   0  0  0  0  0  3  0  0  0  0  0  0
    3.1171   40.0993   47.7563 C   0  0  0  0  0  3  0  0  0  0  0  0
    3.5777   40.9951   48.7326 C   0  0  0  0  0  0  0  0  0  0  0  0
    5.3455   42.5188   49.6383 C   0  0  0  0  0  0  0  0  0  0  0  0
    6.5102   43.2780   49.5179 N   0  0  0  0  0  0  0  0  0  0  0  0
    4.6872   42.6655   50.7281 O   0  0  0  0  0  0  0  0  0  0  0  0
    6.9246   44.2402   50.5080 C   0  0  0  0  0  0  0  0  0  0  0  0
    9.9256   46.7453   53.0810 C   0  0  0  0  0  0  0  0  0  0  0  0
   10.1236   45.7270   52.0317 C   0  0  0  0  0  2  0  0  0  0  0  0
    8.5289   46.9605   53.3060 N   0  0  0  0  0  0  0  0  0  0  0  0
    8.7357   45.3613   51.6583 C   0  0  0  0  0  0  0  0  0  0  0  0
    7.8282   46.0857   52.4066 C   0  0  0  0  0  0  0  0  0  0  0  0
    8.2866   44.4386   50.7091 C   0  0  0  0  0  3  0  0  0  0  0  0
    6.4802   45.8807   52.1986 C   0  0  0  0  0  3  0  0  0  0  0  0
    6.0469   44.9647   51.2563 C   0  0  0  0  0  3  0  0  0  0  0  0
   10.8748   47.3229   53.6738 O   0  0  0  0  0  0  0  0  0  0  0  0
    2.6906   41.2347   49.7714 O   0  0  0  0  0  0  0  0  0  0  0  0
    1.4318   40.5673   49.8289 C   0  0  0  0  0  2  0  0  0  0  0  0
    0.8136   40.9785   51.1595 C   0  0  0  0  0  3  0  0  0  0  0  0
   -0.3348   41.9641   50.9966 C   0  0  0  0  0  2  0  0  0  0  0  0
    0.9567   42.4650   51.5656 C   0  0  0  0  0  2  0  0  0  0  0  0
  1  6  2  0
  2  3  2  0
  2  1  1  0
  3  4  1  0
  4  5  2  0
  6  5  1  0
  6 20  1  0
  7  1  1  0
  7  8  1  0
  9  7  2  0
 10  8  1  0
 10 16  1  0
 11 19  2  0
 11 12  1  0
 13 15  1  0
 13 11  1  0
 14 16  2  0
 14 12  1  0
 15 14  1  0
 17 18  1  0
 17 15  2  0
 18 10  2  0
 20 21  1  0
 21 22  1  0
 22 24  1  0
 22 23  1  0
 24 23  1  0
M  RAD  8   2   2   3   2   4   2   5   2  12   3  16   2  17   2  18   2
M  RAD  4  21   3  22   2  23   3  24   3
M  END
>  <REMARK>  (1) 
 SMILES O=C1Cc2cc(NC(=O)c3ccccc3OCC3CC3)ccc2N1
 SMILES IDX 10 1 11 2 12 3 13 4 14 5 15 6 8 7 7 8 9 10 6 11 2 12 3 13
 SMILES IDX 24 14 4 15 23 16 5 17 22 18 21 19 1 20 16 22 17 23 18 24
 SMILES IDX 19 25 20 26
 H PARENT 7 9 24 21

>  <TORSDO>  (1) 
F 5

$$$$
