/home/pchatterjee/Documents/git/vs_workflow/DiffDock/diffdock_run/pdbqt_scrubbed/Z1198960055.pdbqt
     RDKit          3D

 24 27  0  0  0  0  0  0  0  0999 V2000
    4.9848   46.9236   55.3870 C   0  0  0  0  0  0  0  0  0  0  0  0
    3.9846   45.9751   55.6361 C   0  0  0  0  0  3  0  0  0  0  0  0
    2.9403   46.2578   56.5006 C   0  0  0  0  0  3  0  0  0  0  0  0
    2.8519   47.4774   57.1417 C   0  0  0  0  0  3  0  0  0  0  0  0
    3.8184   48.4145   56.9119 C   0  0  0  0  0  3  0  0  0  0  0  0
    4.8699   48.1120   56.0339 C   0  0  0  0  0  0  0  0  0  0  0  0
    6.0241   46.5336   54.4706 C   0  0  0  0  0  0  0  0  0  0  0  0
    6.0086   46.6146   53.0776 N   0  0  0  0  0  0  0  0  0  0  0  0
    7.0897   46.0524   54.9955 O   0  0  0  0  0  0  0  0  0  0  0  0
    7.1343   46.2416   52.2581 C   0  0  0  0  0  0  0  0  0  0  0  0
    9.4072   44.0154   48.8260 C   0  0  0  0  0  0  0  0  0  0  0  0
    7.9981   43.9945   49.2631 C   0  0  0  0  0  2  0  0  0  0  0  0
   10.1687   44.9046   49.6490 N   0  0  0  0  0  0  0  0  0  0  0  0
    7.9912   44.9397   50.4059 C   0  0  0  0  0  0  0  0  0  0  0  0
    9.2560   45.4552   50.6129 C   0  0  0  0  0  0  0  0  0  0  0  0
    6.9296   45.3312   51.2267 C   0  0  0  0  0  3  0  0  0  0  0  0
    9.4473   46.3574   51.6386 C   0  0  0  0  0  3  0  0  0  0  0  0
    8.3890   46.7377   52.4449 C   0  0  0  0  0  3  0  0  0  0  0  0
    9.8434   43.3341   47.8608 O   0  0  0  0  0  0  0  0  0  0  0  0
    5.8049   49.1232   55.8711 O   0  0  0  0  0  0  0  0  0  0  0  0
    6.2326   49.9115   56.9796 C   0  0  0  0  0  2  0  0  0  0  0  0
    7.4737   50.6523   56.4975 C   0  0  0  0  0  3  0  0  0  0  0  0
    8.7523   49.8499   56.6923 C   0  0  0  0  0  2  0  0  0  0  0  0
    8.5177   51.0382   57.5727 C   0  0  0  0  0  2  0  0  0  0  0  0
  1  6  2  0
  2  3  2  0
  2  1  1  0
  3  4  1  0
  4  5  2  0
  6  5  1  0
  6 20  1  0
  7  1  1  0
  7  8  1  0
  9  7  2  0
 10  8  1  0
 10 16  1  0
 11 19  2  0
 11 12  1  0
 13 15  1  0
 13 11  1  0
 14 16  2  0
 14 12  1  0
 15 14  1  0
 17 18  1  0
 17 15  2  0
 18 10  2  0
 20 21  1  0
 21 22  1  0
 22 24  1  0
 22 23  1  0
 24 23  1  0
M  RAD  8   2   2   3   2   4   2   5   2  12   3  16   2  17   2  18   2
M  RAD  4  21   3  22   2  23   3  24   3
M  END
>  <REMARK>  (1) 
 SMILES O=C1Cc2cc(NC(=O)c3ccccc3OCC3CC3)ccc2N1
 SMILES IDX 10 1 11 2 12 3 13 4 14 5 15 6 8 7 7 8 9 10 6 11 2 12 3 13
 SMILES IDX 24 14 4 15 23 16 5 17 22 18 21 19 1 20 16 22 17 23 18 24
 SMILES IDX 19 25 20 26
 H PARENT 7 9 24 21

>  <TORSDO>  (1) 
F 5

$$$$
