/home/pchatterjee/Documents/git/vs_workflow/DiffDock/diffdock_run/pdbqt_scrubbed/Z1587211729.pdbqt
     RDKit          3D

 21 23  0  0  0  0  0  0  0  0999 V2000
    4.3646   44.3980   51.2398 C   0  0  0  0  0  2  0  0  0  0  0  0
    3.6503   44.1124   52.5120 C   0  0  0  0  0  2  0  0  0  0  0  0
    2.5331   42.7654   52.4782 S   0  0  2  0  0  0  0  0  0  0  0  0
    2.0523   42.3413   53.8410 O   0  0  0  0  0  0  0  0  0  0  0  0
    3.0539   41.5863   51.6734 O   0  0  0  0  0  0  0  0  0  0  0  0
    1.1003   43.3141   51.6008 C   0  0  0  0  0  0  0  0  0  0  0  0
    0.7392   42.7248   50.3947 C   0  0  0  0  0  3  0  0  0  0  0  0
    0.3031   44.3337   52.0795 C   0  0  0  0  0  3  0  0  0  0  0  0
   -0.3789   43.1429   49.6963 C   0  0  0  0  0  3  0  0  0  0  0  0
   -0.8127   44.7478   51.3783 C   0  0  0  0  0  3  0  0  0  0  0  0
   -1.1694   44.1616   50.1815 C   0  0  0  0  0  3  0  0  0  0  0  0
    5.5035   45.2491   51.3833 N   0  0  0  0  0  0  0  0  0  0  0  0
    6.7116   44.9070   50.7198 C   0  0  0  0  0  0  0  0  0  0  0  0
    6.7242   44.0472   49.6768 N   0  0  0  0  0  0  0  0  0  0  0  0
    7.9372   45.4387   51.1103 C   0  0  0  0  0  0  0  0  0  0  0  0
    7.8740   43.7258   49.0506 C   0  0  0  0  0  3  0  0  0  0  0  0
    8.1865   46.3041   52.1060 N   0  0  0  0  0  0  0  0  0  0  0  0
    9.0964   45.1115   50.4750 C   0  0  0  0  0  0  0  0  0  0  0  0
    9.0670   44.2523   49.4414 N   0  0  0  0  0  0  0  0  0  0  0  0
    9.5148   46.5347   52.1108 C   0  0  0  0  0  3  0  0  0  0  0  0
   10.0701   45.8084   51.1174 N   0  0  0  0  0  0  0  0  0  0  0  0
  1  2  1  0
  3  2  1  1
  3  4  2  0
  3  6  1  0
  3  5  2  0
  6  7  2  0
  6  8  1  0
  7  9  1  0
  8 10  2  0
  9 11  2  0
 10 11  1  0
 12  1  1  0
 13 15  1  0
 13 12  1  0
 14 13  2  0
 15 17  1  0
 16 19  2  0
 16 14  1  0
 18 21  1  0
 18 15  2  0
 19 18  1  0
 20 17  1  0
 21 20  2  0
M  RAD  8   1   3   2   3   7   2   8   2   9   2  10   2  11   2  16   2
M  RAD  1  20   2
M  END
>  <REMARK>  (1) 
 SMILES O=S(=O)(CCNc1ncnc2nc[nH]c12)c1ccccc1
 SMILES IDX 5 1 4 2 2 3 1 4 3 5 16 6 17 7 21 8 18 9 20 10 19 11 6 12
 SMILES IDX 7 14 8 15 15 16 9 17 14 18 11 19 10 20 13 21 12 22
 H PARENT 6 13 14 23

>  <TORSDO>  (1) 
F 5

$$$$
