/home/pchatterjee/Documents/git/vs_workflow/DiffDock/diffdock_run/pdbqt_scrubbed/Z1587211729.pdbqt
     RDKit          3D

 21 23  0  0  0  0  0  0  0  0999 V2000
    4.4283   43.7126   50.7687 C   0  0  0  0  0  2  0  0  0  0  0  0
    4.4633   42.2305   50.8797 C   0  0  0  0  0  2  0  0  0  0  0  0
    3.1419   41.3731   50.1164 S   0  0  2  0  0  0  0  0  0  0  0  0
    1.7902   41.9825   50.3804 O   0  0  0  0  0  0  0  0  0  0  0  0
    3.1549   39.8829   50.4135 O   0  0  0  0  0  0  0  0  0  0  0  0
    3.4003   41.4886   48.3718 C   0  0  0  0  0  0  0  0  0  0  0  0
    2.5267   42.2172   47.5728 C   0  0  0  0  0  3  0  0  0  0  0  0
    4.4655   40.8661   47.7536 C   0  0  0  0  0  3  0  0  0  0  0  0
    2.7152   42.3171   46.2063 C   0  0  0  0  0  3  0  0  0  0  0  0
    4.6497   40.9688   46.3885 C   0  0  0  0  0  3  0  0  0  0  0  0
    3.7815   41.6924   45.5974 C   0  0  0  0  0  3  0  0  0  0  0  0
    5.6133   44.3648   51.2296 N   0  0  0  0  0  0  0  0  0  0  0  0
    6.7616   44.3860   50.3944 C   0  0  0  0  0  0  0  0  0  0  0  0
    6.7703   43.7689   49.1918 N   0  0  0  0  0  0  0  0  0  0  0  0
    7.9300   45.0412   50.7726 C   0  0  0  0  0  0  0  0  0  0  0  0
    7.8632   43.7921   48.4028 C   0  0  0  0  0  3  0  0  0  0  0  0
    8.1706   45.7205   51.9053 N   0  0  0  0  0  0  0  0  0  0  0  0
    9.0318   45.0623   49.9726 C   0  0  0  0  0  0  0  0  0  0  0  0
    9.0005   44.4363   48.7833 N   0  0  0  0  0  0  0  0  0  0  0  0
    9.4355   46.1813   51.8331 C   0  0  0  0  0  3  0  0  0  0  0  0
    9.9610   45.7807   50.6558 N   0  0  0  0  0  0  0  0  0  0  0  0
  1  2  1  0
  3  2  1  1
  3  4  2  0
  3  6  1  0
  3  5  2  0
  6  7  2  0
  6  8  1  0
  7  9  1  0
  8 10  2  0
  9 11  2  0
 10 11  1  0
 12  1  1  0
 13 15  1  0
 13 12  1  0
 14 13  2  0
 15 17  1  0
 16 19  2  0
 16 14  1  0
 18 21  1  0
 18 15  2  0
 19 18  1  0
 20 17  1  0
 21 20  2  0
M  RAD  8   1   3   2   3   7   2   8   2   9   2  10   2  11   2  16   2
M  RAD  1  20   2
M  END
>  <REMARK>  (1) 
 SMILES O=S(=O)(CCNc1ncnc2nc[nH]c12)c1ccccc1
 SMILES IDX 5 1 4 2 2 3 1 4 3 5 16 6 17 7 21 8 18 9 20 10 19 11 6 12
 SMILES IDX 7 14 8 15 15 16 9 17 14 18 11 19 10 20 13 21 12 22
 H PARENT 6 13 14 23

>  <TORSDO>  (1) 
F 5

$$$$
