/home/pchatterjee/Documents/git/vs_workflow/DiffDock/diffdock_run/pdbqt_scrubbed/Z1587211729.pdbqt
     RDKit          3D

 21 23  0  0  0  0  0  0  0  0999 V2000
    4.6592   44.7950   50.9713 C   0  0  0  0  0  2  0  0  0  0  0  0
    4.4617   43.6095   51.8464 C   0  0  0  0  0  2  0  0  0  0  0  0
    3.0448   42.6376   51.5123 S   0  0  2  0  0  0  0  0  0  0  0  0
    1.7569   43.4182   51.5243 O   0  0  0  0  0  0  0  0  0  0  0  0
    2.9593   41.3979   52.3869 O   0  0  0  0  0  0  0  0  0  0  0  0
    3.2284   42.0185   49.8670 C   0  0  0  0  0  0  0  0  0  0  0  0
    4.3814   41.3398   49.4900 C   0  0  0  0  0  3  0  0  0  0  0  0
    2.2440   42.1869   48.9147 C   0  0  0  0  0  3  0  0  0  0  0  0
    4.5402   40.8493   48.2066 C   0  0  0  0  0  3  0  0  0  0  0  0
    2.4072   41.6952   47.6342 C   0  0  0  0  0  3  0  0  0  0  0  0
    3.5523   41.0219   47.2620 C   0  0  0  0  0  3  0  0  0  0  0  0
    5.8381   45.5491   51.2603 N   0  0  0  0  0  0  0  0  0  0  0  0
    7.0987   45.0547   50.8323 C   0  0  0  0  0  0  0  0  0  0  0  0
    7.2115   43.8670   50.1969 N   0  0  0  0  0  0  0  0  0  0  0  0
    8.2754   45.7670   51.0459 C   0  0  0  0  0  0  0  0  0  0  0  0
    8.4108   43.4023   49.7927 C   0  0  0  0  0  3  0  0  0  0  0  0
    8.4266   46.9577   51.6473 N   0  0  0  0  0  0  0  0  0  0  0  0
    9.4848   45.2941   50.6360 C   0  0  0  0  0  0  0  0  0  0  0  0
    9.5550   44.1080   50.0071 N   0  0  0  0  0  0  0  0  0  0  0  0
    9.7420   47.2522   51.6239 C   0  0  0  0  0  3  0  0  0  0  0  0
   10.3876   46.2391   51.0079 N   0  0  0  0  0  0  0  0  0  0  0  0
  1  2  1  0
  3  2  1  1
  3  4  2  0
  3  6  1  0
  3  5  2  0
  6  7  2  0
  6  8  1  0
  7  9  1  0
  8 10  2  0
  9 11  2  0
 10 11  1  0
 12  1  1  0
 13 15  1  0
 13 12  1  0
 14 13  2  0
 15 17  1  0
 16 19  2  0
 16 14  1  0
 18 21  1  0
 18 15  2  0
 19 18  1  0
 20 17  1  0
 21 20  2  0
M  RAD  8   1   3   2   3   7   2   8   2   9   2  10   2  11   2  16   2
M  RAD  1  20   2
M  END
>  <REMARK>  (1) 
 SMILES O=S(=O)(CCNc1ncnc2nc[nH]c12)c1ccccc1
 SMILES IDX 5 1 4 2 2 3 1 4 3 5 16 6 17 7 21 8 18 9 20 10 19 11 6 12
 SMILES IDX 7 14 8 15 15 16 9 17 14 18 11 19 10 20 13 21 12 22
 H PARENT 6 13 14 23

>  <TORSDO>  (1) 
F 5

$$$$
