/home/pchatterjee/Documents/git/vs_workflow/DiffDock/diffdock_run/pdbqt_scrubbed/Z1587211729.pdbqt
     RDKit          3D

 21 23  0  0  0  0  0  0  0  0999 V2000
    5.4613   42.4454   48.5874 C   0  0  0  0  0  2  0  0  0  0  0  0
    4.6203   41.5263   49.3986 C   0  0  0  0  0  2  0  0  0  0  0  0
    3.6420   40.3873   48.4987 S   0  0  2  0  0  0  0  0  0  0  0  0
    2.7400   39.5464   49.3632 O   0  0  0  0  0  0  0  0  0  0  0  0
    4.4583   39.5351   47.5413 O   0  0  0  0  0  0  0  0  0  0  0  0
    2.5769   41.3408   47.4594 C   0  0  0  0  0  0  0  0  0  0  0  0
    1.4801   42.0089   47.9915 C   0  0  0  0  0  3  0  0  0  0  0  0
    2.7973   41.4514   46.1017 C   0  0  0  0  0  3  0  0  0  0  0  0
    0.6373   42.7590   47.1915 C   0  0  0  0  0  3  0  0  0  0  0  0
    1.9527   42.2017   45.3068 C   0  0  0  0  0  3  0  0  0  0  0  0
    0.8648   42.8640   45.8368 C   0  0  0  0  0  3  0  0  0  0  0  0
    6.7004   42.8048   49.2019 N   0  0  0  0  0  0  0  0  0  0  0  0
    6.7267   43.8779   50.1316 C   0  0  0  0  0  0  0  0  0  0  0  0
    5.6097   44.2768   50.7800 N   0  0  0  0  0  0  0  0  0  0  0  0
    7.9004   44.5689   50.4192 C   0  0  0  0  0  0  0  0  0  0  0  0
    5.6403   45.2962   51.6616 C   0  0  0  0  0  3  0  0  0  0  0  0
    9.1272   44.3666   49.9128 N   0  0  0  0  0  0  0  0  0  0  0  0
    7.9270   45.5981   51.3104 C   0  0  0  0  0  0  0  0  0  0  0  0
    6.7943   45.9647   51.9348 N   0  0  0  0  0  0  0  0  0  0  0  0
    9.9479   45.2719   50.4824 C   0  0  0  0  0  3  0  0  0  0  0  0
    9.2175   46.0227   51.3341 N   0  0  0  0  0  0  0  0  0  0  0  0
  1  2  1  0
  3  2  1  1
  3  4  2  0
  3  6  1  0
  3  5  2  0
  6  7  2  0
  6  8  1  0
  7  9  1  0
  8 10  2  0
  9 11  2  0
 10 11  1  0
 12  1  1  0
 13 15  1  0
 13 12  1  0
 14 13  2  0
 15 17  1  0
 16 19  2  0
 16 14  1  0
 18 21  1  0
 18 15  2  0
 19 18  1  0
 20 17  1  0
 21 20  2  0
M  RAD  8   1   3   2   3   7   2   8   2   9   2  10   2  11   2  16   2
M  RAD  1  20   2
M  END
>  <REMARK>  (1) 
 SMILES O=S(=O)(CCNc1ncnc2nc[nH]c12)c1ccccc1
 SMILES IDX 5 1 4 2 2 3 1 4 3 5 16 6 17 7 21 8 18 9 20 10 19 11 6 12
 SMILES IDX 7 14 8 15 15 16 9 17 14 18 11 19 10 20 13 21 12 22
 H PARENT 6 13 14 23

>  <TORSDO>  (1) 
F 5

$$$$
