/home/pchatterjee/Documents/git/vs_workflow/DiffDock/diffdock_run/pdbqt_scrubbed/Z1587211729.pdbqt
     RDKit          3D

 21 23  0  0  0  0  0  0  0  0999 V2000
    5.4896   42.2897   48.7947 C   0  0  0  0  0  2  0  0  0  0  0  0
    4.9789   41.1213   49.5590 C   0  0  0  0  0  2  0  0  0  0  0  0
    3.6119   40.2838   48.8562 S   0  0  2  0  0  0  0  0  0  0  0  0
    3.0500   39.1963   49.7336 O   0  0  0  0  0  0  0  0  0  0  0  0
    3.8859   39.7845   47.4473 O   0  0  0  0  0  0  0  0  0  0  0  0
    2.3234   41.4791   48.6697 C   0  0  0  0  0  0  0  0  0  0  0  0
    1.7453   41.7097   47.4267 C   0  0  0  0  0  3  0  0  0  0  0  0
    1.8552   42.2137   49.7399 C   0  0  0  0  0  3  0  0  0  0  0  0
    0.7363   42.6415   47.2645 C   0  0  0  0  0  3  0  0  0  0  0  0
    0.8472   43.1433   49.5729 C   0  0  0  0  0  3  0  0  0  0  0  0
    0.2748   43.3706   48.3385 C   0  0  0  0  0  3  0  0  0  0  0  0
    6.7979   42.7172   49.1791 N   0  0  0  0  0  0  0  0  0  0  0  0
    6.9332   43.7589   50.1347 C   0  0  0  0  0  0  0  0  0  0  0  0
    5.9063   44.1170   50.9375 N   0  0  0  0  0  0  0  0  0  0  0  0
    8.1260   44.4593   50.2905 C   0  0  0  0  0  0  0  0  0  0  0  0
    6.0402   45.1067   51.8431 C   0  0  0  0  0  3  0  0  0  0  0  0
    9.2780   44.2946   49.6210 N   0  0  0  0  0  0  0  0  0  0  0  0
    8.2570   45.4584   51.2065 C   0  0  0  0  0  0  0  0  0  0  0  0
    7.2119   45.7848   51.9864 N   0  0  0  0  0  0  0  0  0  0  0  0
   10.1554   45.1938   50.1099 C   0  0  0  0  0  3  0  0  0  0  0  0
    9.5342   45.9034   51.0760 N   0  0  0  0  0  0  0  0  0  0  0  0
  1  2  1  0
  3  2  1  1
  3  4  2  0
  3  6  1  0
  3  5  2  0
  6  7  2  0
  6  8  1  0
  7  9  1  0
  8 10  2  0
  9 11  2  0
 10 11  1  0
 12  1  1  0
 13 15  1  0
 13 12  1  0
 14 13  2  0
 15 17  1  0
 16 19  2  0
 16 14  1  0
 18 21  1  0
 18 15  2  0
 19 18  1  0
 20 17  1  0
 21 20  2  0
M  RAD  8   1   3   2   3   7   2   8   2   9   2  10   2  11   2  16   2
M  RAD  1  20   2
M  END
>  <REMARK>  (1) 
 SMILES O=S(=O)(CCNc1ncnc2nc[nH]c12)c1ccccc1
 SMILES IDX 5 1 4 2 2 3 1 4 3 5 16 6 17 7 21 8 18 9 20 10 19 11 6 12
 SMILES IDX 7 14 8 15 15 16 9 17 14 18 11 19 10 20 13 21 12 22
 H PARENT 6 13 14 23

>  <TORSDO>  (1) 
F 5

$$$$
