/home/pchatterjee/Documents/git/vs_workflow/DiffDock/diffdock_run/pdbqt_scrubbed/Z1587211729.pdbqt
     RDKit          3D

 21 23  0  0  0  0  0  0  0  0999 V2000
    4.8204   42.3503   49.8931 C   0  0  0  0  0  2  0  0  0  0  0  0
    3.6221   41.9990   50.6998 C   0  0  0  0  0  2  0  0  0  0  0  0
    2.6416   40.6861   50.0843 S   0  0  2  0  0  0  0  0  0  0  0  0
    1.4859   40.3211   50.9783 O   0  0  0  0  0  0  0  0  0  0  0  0
    3.4622   39.4664   49.6994 O   0  0  0  0  0  0  0  0  0  0  0  0
    1.9303   41.2496   48.5676 C   0  0  0  0  0  0  0  0  0  0  0  0
    2.4418   40.8284   47.3456 C   0  0  0  0  0  3  0  0  0  0  0  0
    0.8565   42.1160   48.5480 C   0  0  0  0  0  3  0  0  0  0  0  0
    1.8964   41.2602   46.1503 C   0  0  0  0  0  3  0  0  0  0  0  0
    0.3151   42.5445   47.3516 C   0  0  0  0  0  3  0  0  0  0  0  0
    0.8242   42.1253   46.1399 C   0  0  0  0  0  3  0  0  0  0  0  0
    5.6162   43.3993   50.4485 N   0  0  0  0  0  0  0  0  0  0  0  0
    6.9169   43.6315   49.9280 C   0  0  0  0  0  0  0  0  0  0  0  0
    7.3817   42.9461   48.8597 N   0  0  0  0  0  0  0  0  0  0  0  0
    7.7734   44.5733   50.4910 C   0  0  0  0  0  0  0  0  0  0  0  0
    8.6174   43.1705   48.3696 C   0  0  0  0  0  3  0  0  0  0  0  0
    7.5486   45.3732   51.5455 N   0  0  0  0  0  0  0  0  0  0  0  0
    9.0209   44.7970   49.9929 C   0  0  0  0  0  0  0  0  0  0  0  0
    9.4463   44.0944   48.9287 N   0  0  0  0  0  0  0  0  0  0  0  0
    8.6590   46.1161   51.7265 C   0  0  0  0  0  3  0  0  0  0  0  0
    9.5566   45.7657   50.7810 N   0  0  0  0  0  0  0  0  0  0  0  0
  1  2  1  0
  3  2  1  1
  3  4  2  0
  3  6  1  0
  3  5  2  0
  6  7  2  0
  6  8  1  0
  7  9  1  0
  8 10  2  0
  9 11  2  0
 10 11  1  0
 12  1  1  0
 13 15  1  0
 13 12  1  0
 14 13  2  0
 15 17  1  0
 16 19  2  0
 16 14  1  0
 18 21  1  0
 18 15  2  0
 19 18  1  0
 20 17  1  0
 21 20  2  0
M  RAD  8   1   3   2   3   7   2   8   2   9   2  10   2  11   2  16   2
M  RAD  1  20   2
M  END
>  <REMARK>  (1) 
 SMILES O=S(=O)(CCNc1ncnc2nc[nH]c12)c1ccccc1
 SMILES IDX 5 1 4 2 2 3 1 4 3 5 16 6 17 7 21 8 18 9 20 10 19 11 6 12
 SMILES IDX 7 14 8 15 15 16 9 17 14 18 11 19 10 20 13 21 12 22
 H PARENT 6 13 14 23

>  <TORSDO>  (1) 
F 5

$$$$
