/home/pchatterjee/Documents/git/vs_workflow/DiffDock/diffdock_run/pdbqt_scrubbed/Z1587211729.pdbqt
     RDKit          3D

 21 23  0  0  0  0  0  0  0  0999 V2000
    4.6295   42.5834   49.8313 C   0  0  0  0  0  2  0  0  0  0  0  0
    3.4694   42.1132   50.6332 C   0  0  0  0  0  2  0  0  0  0  0  0
    2.5032   40.8440   49.9124 S   0  0  2  0  0  0  0  0  0  0  0  0
    1.3016   40.4557   50.7332 O   0  0  0  0  0  0  0  0  0  0  0  0
    3.3260   39.6312   49.5109 O   0  0  0  0  0  0  0  0  0  0  0  0
    1.8722   41.4860   48.3914 C   0  0  0  0  0  0  0  0  0  0  0  0
    2.4750   41.1623   47.1814 C   0  0  0  0  0  3  0  0  0  0  0  0
    0.7732   42.3198   48.3566 C   0  0  0  0  0  3  0  0  0  0  0  0
    1.9933   41.6565   45.9829 C   0  0  0  0  0  3  0  0  0  0  0  0
    0.2957   42.8110   47.1570 C   0  0  0  0  0  3  0  0  0  0  0  0
    0.8954   42.4884   45.9572 C   0  0  0  0  0  3  0  0  0  0  0  0
    5.3948   43.6169   50.4544 N   0  0  0  0  0  0  0  0  0  0  0  0
    6.7475   43.8069   50.0662 C   0  0  0  0  0  0  0  0  0  0  0  0
    7.3098   43.0676   49.0842 N   0  0  0  0  0  0  0  0  0  0  0  0
    7.5573   44.7606   50.6764 C   0  0  0  0  0  0  0  0  0  0  0  0
    8.5945   43.2520   48.7196 C   0  0  0  0  0  3  0  0  0  0  0  0
    7.2372   45.6101   51.6654 N   0  0  0  0  0  0  0  0  0  0  0  0
    8.8546   44.9437   50.3051 C   0  0  0  0  0  0  0  0  0  0  0  0
    9.3770   44.1880   49.3237 N   0  0  0  0  0  0  0  0  0  0  0  0
    8.3361   46.3443   51.9317 C   0  0  0  0  0  3  0  0  0  0  0  0
    9.3221   45.9390   51.1034 N   0  0  0  0  0  0  0  0  0  0  0  0
  1  2  1  0
  3  2  1  1
  3  4  2  0
  3  6  1  0
  3  5  2  0
  6  7  2  0
  6  8  1  0
  7  9  1  0
  8 10  2  0
  9 11  2  0
 10 11  1  0
 12  1  1  0
 13 15  1  0
 13 12  1  0
 14 13  2  0
 15 17  1  0
 16 19  2  0
 16 14  1  0
 18 21  1  0
 18 15  2  0
 19 18  1  0
 20 17  1  0
 21 20  2  0
M  RAD  8   1   3   2   3   7   2   8   2   9   2  10   2  11   2  16   2
M  RAD  1  20   2
M  END
>  <REMARK>  (1) 
 SMILES O=S(=O)(CCNc1ncnc2nc[nH]c12)c1ccccc1
 SMILES IDX 5 1 4 2 2 3 1 4 3 5 16 6 17 7 21 8 18 9 20 10 19 11 6 12
 SMILES IDX 7 14 8 15 15 16 9 17 14 18 11 19 10 20 13 21 12 22
 H PARENT 6 13 14 23

>  <TORSDO>  (1) 
F 5

$$$$
