/home/pchatterjee/Documents/git/vs_workflow/DiffDock/diffdock_run/pdbqt_scrubbed/Z1587211729.pdbqt
     RDKit          3D

 21 23  0  0  0  0  0  0  0  0999 V2000
    5.2768   42.5840   49.2064 C   0  0  0  0  0  2  0  0  0  0  0  0
    5.1858   41.1458   48.8411 C   0  0  0  0  0  2  0  0  0  0  0  0
    3.5735   40.5288   48.5521 S   0  0  2  0  0  0  0  0  0  0  0  0
    2.5569   40.9904   49.5628 O   0  0  0  0  0  0  0  0  0  0  0  0
    3.5421   39.0203   48.3713 O   0  0  0  0  0  0  0  0  0  0  0  0
    3.0498   41.1818   46.9955 C   0  0  0  0  0  0  0  0  0  0  0  0
    3.8526   41.0549   45.8677 C   0  0  0  0  0  3  0  0  0  0  0  0
    1.8409   41.8313   46.8512 C   0  0  0  0  0  3  0  0  0  0  0  0
    3.4570   41.5604   44.6427 C   0  0  0  0  0  3  0  0  0  0  0  0
    1.4501   42.3346   45.6256 C   0  0  0  0  0  3  0  0  0  0  0  0
    2.2483   42.2075   44.5076 C   0  0  0  0  0  3  0  0  0  0  0  0
    6.6050   43.0408   49.4695 N   0  0  0  0  0  0  0  0  0  0  0  0
    6.7962   44.1593   50.3234 C   0  0  0  0  0  0  0  0  0  0  0  0
    5.7541   44.7675   50.9329 N   0  0  0  0  0  0  0  0  0  0  0  0
    8.0620   44.6818   50.5733 C   0  0  0  0  0  0  0  0  0  0  0  0
    5.9413   45.8290   51.7426 C   0  0  0  0  0  3  0  0  0  0  0  0
    9.2427   44.2607   50.0930 N   0  0  0  0  0  0  0  0  0  0  0  0
    8.2466   45.7543   51.3918 C   0  0  0  0  0  0  0  0  0  0  0  0
    7.1841   46.3314   51.9795 N   0  0  0  0  0  0  0  0  0  0  0  0
   10.1929   45.0677   50.6062 C   0  0  0  0  0  3  0  0  0  0  0  0
    9.5869   45.9782   51.3977 N   0  0  0  0  0  0  0  0  0  0  0  0
  1  2  1  0
  3  2  1  1
  3  4  2  0
  3  6  1  0
  3  5  2  0
  6  7  2  0
  6  8  1  0
  7  9  1  0
  8 10  2  0
  9 11  2  0
 10 11  1  0
 12  1  1  0
 13 15  1  0
 13 12  1  0
 14 13  2  0
 15 17  1  0
 16 19  2  0
 16 14  1  0
 18 21  1  0
 18 15  2  0
 19 18  1  0
 20 17  1  0
 21 20  2  0
M  RAD  8   1   3   2   3   7   2   8   2   9   2  10   2  11   2  16   2
M  RAD  1  20   2
M  END
>  <REMARK>  (1) 
 SMILES O=S(=O)(CCNc1ncnc2nc[nH]c12)c1ccccc1
 SMILES IDX 5 1 4 2 2 3 1 4 3 5 16 6 17 7 21 8 18 9 20 10 19 11 6 12
 SMILES IDX 7 14 8 15 15 16 9 17 14 18 11 19 10 20 13 21 12 22
 H PARENT 6 13 14 23

>  <TORSDO>  (1) 
F 5

$$$$
