/home/pchatterjee/Documents/git/vs_workflow/DiffDock/diffdock_run/pdbqt_scrubbed/Z1587211729.pdbqt
     RDKit          3D

 21 23  0  0  0  0  0  0  0  0999 V2000
    4.7605   45.8522   51.7234 C   0  0  0  0  0  2  0  0  0  0  0  0
    4.1942   45.2095   52.9386 C   0  0  0  0  0  2  0  0  0  0  0  0
    2.4506   45.2515   53.0861 S   0  0  2  0  0  0  0  0  0  0  0  0
    1.8269   46.5154   52.5554 O   0  0  0  0  0  0  0  0  0  0  0  0
    1.9692   44.9339   54.4921 O   0  0  0  0  0  0  0  0  0  0  0  0
    1.8231   43.9366   52.0856 C   0  0  0  0  0  0  0  0  0  0  0  0
    2.1812   42.6182   52.3420 C   0  0  0  0  0  3  0  0  0  0  0  0
    0.9672   44.1739   51.0295 C   0  0  0  0  0  3  0  0  0  0  0  0
    1.6988   41.5782   51.5684 C   0  0  0  0  0  3  0  0  0  0  0  0
    0.4879   43.1320   50.2595 C   0  0  0  0  0  3  0  0  0  0  0  0
    0.8446   41.8242   50.5158 C   0  0  0  0  0  3  0  0  0  0  0  0
    6.1522   46.1626   51.8168 N   0  0  0  0  0  0  0  0  0  0  0  0
    7.0959   45.3089   51.1864 C   0  0  0  0  0  0  0  0  0  0  0  0
    6.7132   44.1695   50.5679 N   0  0  0  0  0  0  0  0  0  0  0  0
    8.4563   45.6033   51.1748 C   0  0  0  0  0  0  0  0  0  0  0  0
    7.6133   43.3627   49.9710 C   0  0  0  0  0  3  0  0  0  0  0  0
    9.0802   46.6630   51.7135 N   0  0  0  0  0  0  0  0  0  0  0  0
    9.3622   44.7856   50.5706 C   0  0  0  0  0  0  0  0  0  0  0  0
    8.9415   43.6610   49.9661 N   0  0  0  0  0  0  0  0  0  0  0  0
   10.3959   46.5256   51.4540 C   0  0  0  0  0  3  0  0  0  0  0  0
   10.5688   45.3820   50.7576 N   0  0  0  0  0  0  0  0  0  0  0  0
  1  2  1  0
  3  2  1  1
  3  4  2  0
  3  6  1  0
  3  5  2  0
  6  7  2  0
  6  8  1  0
  7  9  1  0
  8 10  2  0
  9 11  2  0
 10 11  1  0
 12  1  1  0
 13 15  1  0
 13 12  1  0
 14 13  2  0
 15 17  1  0
 16 19  2  0
 16 14  1  0
 18 21  1  0
 18 15  2  0
 19 18  1  0
 20 17  1  0
 21 20  2  0
M  RAD  8   1   3   2   3   7   2   8   2   9   2  10   2  11   2  16   2
M  RAD  1  20   2
M  END
>  <REMARK>  (1) 
 SMILES O=S(=O)(CCNc1ncnc2nc[nH]c12)c1ccccc1
 SMILES IDX 5 1 4 2 2 3 1 4 3 5 16 6 17 7 21 8 18 9 20 10 19 11 6 12
 SMILES IDX 7 14 8 15 15 16 9 17 14 18 11 19 10 20 13 21 12 22
 H PARENT 6 13 14 23

>  <TORSDO>  (1) 
F 5

$$$$
