/home/pchatterjee/Documents/git/vs_workflow/DiffDock/diffdock_run/pdbqt_scrubbed/Z1587211729.pdbqt
     RDKit          3D

 21 23  0  0  0  0  0  0  0  0999 V2000
    4.6541   45.7278   51.7187 C   0  0  0  0  0  2  0  0  0  0  0  0
    4.1670   45.0502   52.9491 C   0  0  0  0  0  2  0  0  0  0  0  0
    2.4350   45.0711   53.2011 S   0  0  2  0  0  0  0  0  0  0  0  0
    1.7703   46.3423   52.7426 O   0  0  0  0  0  0  0  0  0  0  0  0
    2.0409   44.7119   54.6242 O   0  0  0  0  0  0  0  0  0  0  0  0
    1.7598   43.7769   52.2046 C   0  0  0  0  0  0  0  0  0  0  0  0
    0.8416   44.0615   51.2005 C   0  0  0  0  0  3  0  0  0  0  0  0
    2.1184   42.4572   52.3893 C   0  0  0  0  0  3  0  0  0  0  0  0
    0.3042   43.0601   50.4123 C   0  0  0  0  0  3  0  0  0  0  0  0
    1.5790   41.4605   51.5995 C   0  0  0  0  0  3  0  0  0  0  0  0
    0.6678   41.7451   50.6035 C   0  0  0  0  0  3  0  0  0  0  0  0
    6.0159   46.1559   51.7833 N   0  0  0  0  0  0  0  0  0  0  0  0
    7.0033   45.4359   51.0599 C   0  0  0  0  0  0  0  0  0  0  0  0
    6.6654   44.5463   50.0998 N   0  0  0  0  0  0  0  0  0  0  0  0
    8.3625   45.6107   51.3038 C   0  0  0  0  0  0  0  0  0  0  0  0
    7.6068   43.8654   49.4161 C   0  0  0  0  0  3  0  0  0  0  0  0
    8.9469   46.4263   52.1957 N   0  0  0  0  0  0  0  0  0  0  0  0
    9.3103   44.9208   50.6108 C   0  0  0  0  0  0  0  0  0  0  0  0
    8.9334   44.0448   49.6634 N   0  0  0  0  0  0  0  0  0  0  0  0
   10.2793   46.2596   52.0754 C   0  0  0  0  0  3  0  0  0  0  0  0
   10.5017   45.3426   51.1100 N   0  0  0  0  0  0  0  0  0  0  0  0
  1  2  1  0
  3  2  1  1
  3  4  2  0
  3  6  1  0
  3  5  2  0
  6  7  2  0
  6  8  1  0
  7  9  1  0
  8 10  2  0
  9 11  2  0
 10 11  1  0
 12  1  1  0
 13 15  1  0
 13 12  1  0
 14 13  2  0
 15 17  1  0
 16 19  2  0
 16 14  1  0
 18 21  1  0
 18 15  2  0
 19 18  1  0
 20 17  1  0
 21 20  2  0
M  RAD  8   1   3   2   3   7   2   8   2   9   2  10   2  11   2  16   2
M  RAD  1  20   2
M  END
>  <REMARK>  (1) 
 SMILES O=S(=O)(CCNc1ncnc2nc[nH]c12)c1ccccc1
 SMILES IDX 5 1 4 2 2 3 1 4 3 5 16 6 17 7 21 8 18 9 20 10 19 11 6 12
 SMILES IDX 7 14 8 15 15 16 9 17 14 18 11 19 10 20 13 21 12 22
 H PARENT 6 13 14 23

>  <TORSDO>  (1) 
F 5

$$$$
