/home/pchatterjee/Documents/git/vs_workflow/DiffDock/diffdock_run/pdbqt_scrubbed/Z1570962597.pdbqt
     RDKit          3D

 23 26  0  0  1  0  0  0  0  0999 V2000
    4.5068   45.3524   51.9047 C   0  0  0  0  0  2  0  0  0  0  0  0
    4.4885   43.8752   51.4806 C   0  0  0  0  0  3  0  0  0  0  0  0
    2.7252   42.9619   50.1013 N   0  0  0  0  0  0  0  0  0  0  0  0
    1.6041   43.6610   50.7502 C   0  0  0  0  0  2  0  0  0  0  0  0
    3.9692   43.7430   50.0451 C   0  0  0  0  0  2  0  0  0  0  0  0
    2.1502   43.9968   52.1563 C   0  0  0  0  0  2  0  0  0  0  0  0
    3.4667   43.2329   52.4102 C   0  0  0  0  0  2  0  0  0  0  0  0
    2.6164   41.6524   49.5885 C   0  0  0  0  0  0  0  0  0  0  0  0
    2.2175   39.0866   48.7377 C   0  0  0  0  0  3  0  0  0  0  0  0
    1.3473   39.6468   49.6237 C   0  0  0  0  0  3  0  0  0  0  0  0
    3.2865   39.7944   48.2717 C   0  0  0  0  0  3  0  0  0  0  0  0
    1.5466   40.9241   50.0476 N   0  0  0  0  0  0  0  0  0  0  0  0
    3.4442   41.0727   48.7251 N   0  0  0  0  0  0  0  0  0  0  0  0
    5.8946   45.6717   52.2712 N   0  0  0  0  0  0  0  0  0  0  0  0
    6.8971   45.1716   51.3664 C   0  0  0  0  0  0  0  0  0  0  0  0
    6.5120   44.3618   50.3769 N   0  0  0  0  0  0  0  0  0  0  0  0
    8.2280   45.5174   51.5039 C   0  0  0  0  0  0  0  0  0  0  0  0
    7.3595   43.8440   49.4788 C   0  0  0  0  0  3  0  0  0  0  0  0
    8.8819   46.2915   52.3790 N   0  0  0  0  0  0  0  0  0  0  0  0
    9.1100   44.9870   50.5791 C   0  0  0  0  0  0  0  0  0  0  0  0
    8.6777   44.1816   49.6077 N   0  0  0  0  0  0  0  0  0  0  0  0
   10.1734   46.2690   52.0318 C   0  0  0  0  0  3  0  0  0  0  0  0
   10.3122   45.4794   50.9414 N   0  0  0  0  0  0  0  0  0  0  0  0
  1 14  1  0
  2  1  1  0
  3  5  1  0
  4  3  1  0
  4  6  1  0
  5  2  1  0
  6  7  1  0
  7  2  1  0
  8  3  1  0
  8 12  2  0
  9 10  2  0
 10 12  1  0
 11 13  2  0
 11  9  1  0
 13  8  1  0
 14 15  1  0
 15 17  1  0
 15 16  2  0
 16 18  1  0
 17 20  2  0
 18 21  2  0
 19 17  1  0
 19 22  1  0
 20 23  1  0
 20 21  1  0
 22 23  2  0
M  RAD  8   1   3   2   2   4   3   5   3   6   3   7   3   9   2  10   2
M  RAD  3  11   2  18   2  22   2
M  END
>  <REMARK>  (1) 
 SMILES c1cnc(N2CCCC(CNc3ncnc4nc[nH]c34)C2)nc1
 SMILES IDX 10 1 9 2 5 3 6 4 21 5 7 6 8 7 4 8 1 9 2 10 23 11 3 12 22 13
 SMILES IDX 11 14 12 16 13 17 20 18 14 19 19 20 16 21 15 22 18 23 17 24
 H PARENT 11 15 19 25

>  <TORSDO>  (1) 
F 4

$$$$
