/home/pchatterjee/Documents/git/vs_workflow/DiffDock/diffdock_run/pdbqt_scrubbed/Z1570962597.pdbqt
     RDKit          3D

 23 26  0  0  1  0  0  0  0  0999 V2000
    4.4930   45.1774   51.5506 C   0  0  0  0  0  2  0  0  0  0  0  0
    3.9844   45.6358   52.9267 C   0  0  0  0  0  3  0  0  0  0  0  0
    2.1234   44.5544   54.0282 N   0  0  0  0  0  0  0  0  0  0  0  0
    1.2769   44.3866   52.8357 C   0  0  0  0  0  2  0  0  0  0  0  0
    3.5641   44.4247   53.7660 C   0  0  0  0  0  2  0  0  0  0  0  0
    1.7968   45.4714   51.8654 C   0  0  0  0  0  2  0  0  0  0  0  0
    2.7330   46.4452   52.6113 C   0  0  0  0  0  2  0  0  0  0  0  0
    1.5970   44.8268   55.3081 C   0  0  0  0  0  0  0  0  0  0  0  0
    0.8002   45.3948   57.8594 C   0  0  0  0  0  3  0  0  0  0  0  0
    2.1149   45.5105   57.5213 C   0  0  0  0  0  3  0  0  0  0  0  0
   -0.1222   44.9973   56.9361 C   0  0  0  0  0  3  0  0  0  0  0  0
    2.5114   45.2269   56.2512 N   0  0  0  0  0  0  0  0  0  0  0  0
    0.3233   44.7249   55.6744 N   0  0  0  0  0  0  0  0  0  0  0  0
    5.6444   46.0294   51.2181 N   0  0  0  0  0  0  0  0  0  0  0  0
    6.7924   45.3316   50.6993 C   0  0  0  0  0  0  0  0  0  0  0  0
    6.5899   44.3033   49.8718 N   0  0  0  0  0  0  0  0  0  0  0  0
    8.0781   45.7097   51.0370 C   0  0  0  0  0  0  0  0  0  0  0  0
    7.5843   43.5890   49.3298 C   0  0  0  0  0  3  0  0  0  0  0  0
    8.5656   46.6775   51.8233 N   0  0  0  0  0  0  0  0  0  0  0  0
    9.1113   44.9769   50.4802 C   0  0  0  0  0  0  0  0  0  0  0  0
    8.8589   43.9570   49.6585 N   0  0  0  0  0  0  0  0  0  0  0  0
    9.8990   46.5803   51.7814 C   0  0  0  0  0  3  0  0  0  0  0  0
   10.2301   45.5509   50.9677 N   0  0  0  0  0  0  0  0  0  0  0  0
  1 14  1  0
  2  1  1  0
  3  5  1  0
  4  3  1  0
  4  6  1  0
  5  2  1  0
  6  7  1  0
  7  2  1  0
  8  3  1  0
  8 12  2  0
  9 10  2  0
 10 12  1  0
 11 13  2  0
 11  9  1  0
 13  8  1  0
 14 15  1  0
 15 17  1  0
 15 16  2  0
 16 18  1  0
 17 20  2  0
 18 21  2  0
 19 17  1  0
 19 22  1  0
 20 23  1  0
 20 21  1  0
 22 23  2  0
M  RAD  8   1   3   2   2   4   3   5   3   6   3   7   3   9   2  10   2
M  RAD  3  11   2  18   2  22   2
M  END
>  <REMARK>  (1) 
 SMILES c1cnc(N2CCCC(CNc3ncnc4nc[nH]c34)C2)nc1
 SMILES IDX 10 1 9 2 5 3 6 4 21 5 7 6 8 7 4 8 1 9 2 10 23 11 3 12 22 13
 SMILES IDX 11 14 12 16 13 17 20 18 14 19 19 20 16 21 15 22 18 23 17 24
 H PARENT 11 15 19 25

>  <TORSDO>  (1) 
F 4

$$$$
