/home/pchatterjee/Documents/git/vs_workflow/DiffDock/diffdock_run/pdbqt_scrubbed/Z1570962597.pdbqt
     RDKit          3D

 23 26  0  0  1  0  0  0  0  0999 V2000
    6.4052   41.9269   49.3497 C   0  0  0  0  0  2  0  0  0  0  0  0
    4.9250   42.2820   49.1366 C   0  0  0  0  0  3  0  0  0  0  0  0
    3.2053   40.5859   49.0281 N   0  0  0  0  0  0  0  0  0  0  0  0
    3.9581   39.6130   48.2197 C   0  0  0  0  0  2  0  0  0  0  0  0
    4.0332   41.3546   49.9688 C   0  0  0  0  0  2  0  0  0  0  0  0
    5.0146   40.4801   47.4984 C   0  0  0  0  0  2  0  0  0  0  0  0
    4.6762   41.9763   47.6652 C   0  0  0  0  0  2  0  0  0  0  0  0
    1.8127   40.7708   48.9021 C   0  0  0  0  0  0  0  0  0  0  0  0
   -0.8742   40.9978   48.4597 C   0  0  0  0  0  3  0  0  0  0  0  0
   -0.1159   40.2294   47.6286 C   0  0  0  0  0  3  0  0  0  0  0  0
   -0.3045   41.6555   49.5104 C   0  0  0  0  0  3  0  0  0  0  0  0
    1.2219   40.1171   47.8488 N   0  0  0  0  0  0  0  0  0  0  0  0
    1.0413   41.5115   49.6914 N   0  0  0  0  0  0  0  0  0  0  0  0
    7.1861   43.1100   48.9588 N   0  0  0  0  0  0  0  0  0  0  0  0
    7.2551   44.1526   49.9497 C   0  0  0  0  0  0  0  0  0  0  0  0
    6.1176   44.5742   50.5079 N   0  0  0  0  0  0  0  0  0  0  0  0
    8.4627   44.7086   50.3271 C   0  0  0  0  0  0  0  0  0  0  0  0
    6.0680   45.5337   51.4405 C   0  0  0  0  0  3  0  0  0  0  0  0
    9.7265   44.4860   49.9452 N   0  0  0  0  0  0  0  0  0  0  0  0
    8.4198   45.7003   51.2910 C   0  0  0  0  0  0  0  0  0  0  0  0
    7.2582   46.0884   51.8196 N   0  0  0  0  0  0  0  0  0  0  0  0
   10.5001   45.3194   50.6495 C   0  0  0  0  0  3  0  0  0  0  0  0
    9.7093   46.0548   51.4651 N   0  0  0  0  0  0  0  0  0  0  0  0
  1 14  1  0
  2  1  1  0
  3  5  1  0
  4  3  1  0
  4  6  1  0
  5  2  1  0
  6  7  1  0
  7  2  1  0
  8  3  1  0
  8 12  2  0
  9 10  2  0
 10 12  1  0
 11 13  2  0
 11  9  1  0
 13  8  1  0
 14 15  1  0
 15 17  1  0
 15 16  2  0
 16 18  1  0
 17 20  2  0
 18 21  2  0
 19 17  1  0
 19 22  1  0
 20 23  1  0
 20 21  1  0
 22 23  2  0
M  RAD  8   1   3   2   2   4   3   5   3   6   3   7   3   9   2  10   2
M  RAD  3  11   2  18   2  22   2
M  END
>  <REMARK>  (1) 
 SMILES c1cnc(N2CCCC(CNc3ncnc4nc[nH]c34)C2)nc1
 SMILES IDX 10 1 9 2 5 3 6 4 21 5 7 6 8 7 4 8 1 9 2 10 23 11 3 12 22 13
 SMILES IDX 11 14 12 16 13 17 20 18 14 19 19 20 16 21 15 22 18 23 17 24
 H PARENT 11 15 19 25

>  <TORSDO>  (1) 
F 4

$$$$
