/home/pchatterjee/Documents/git/vs_workflow/DiffDock/diffdock_run/pdbqt_scrubbed/Z1570962597.pdbqt
     RDKit          3D

 23 26  0  0  1  0  0  0  0  0999 V2000
    4.4947   44.9069   51.6937 C   0  0  0  0  0  2  0  0  0  0  0  0
    4.6514   43.5255   51.0382 C   0  0  0  0  0  3  0  0  0  0  0  0
    2.9507   42.5945   49.5936 N   0  0  0  0  0  0  0  0  0  0  0  0
    1.7849   43.0182   50.3863 C   0  0  0  0  0  2  0  0  0  0  0  0
    4.0726   43.5441   49.6195 C   0  0  0  0  0  2  0  0  0  0  0  0
    2.3612   43.2070   51.8078 C   0  0  0  0  0  2  0  0  0  0  0  0
    3.7812   42.6084   51.8880 C   0  0  0  0  0  2  0  0  0  0  0  0
    2.9901   41.3781   48.8808 C   0  0  0  0  0  0  0  0  0  0  0  0
    2.8766   38.9533   47.6261 C   0  0  0  0  0  3  0  0  0  0  0  0
    1.9220   39.2859   48.5395 C   0  0  0  0  0  3  0  0  0  0  0  0
    3.8890   39.8193   47.3325 C   0  0  0  0  0  3  0  0  0  0  0  0
    1.9793   40.4930   49.1646 N   0  0  0  0  0  0  0  0  0  0  0  0
    3.9036   41.0190   47.9845 N   0  0  0  0  0  0  0  0  0  0  0  0
    5.8468   45.3660   52.0448 N   0  0  0  0  0  0  0  0  0  0  0  0
    6.8882   44.9508   51.1408 C   0  0  0  0  0  0  0  0  0  0  0  0
    6.5703   44.1202   50.1448 N   0  0  0  0  0  0  0  0  0  0  0  0
    8.1879   45.3975   51.2859 C   0  0  0  0  0  0  0  0  0  0  0  0
    7.4585   43.6753   49.2469 C   0  0  0  0  0  3  0  0  0  0  0  0
    8.7769   46.2140   52.1685 N   0  0  0  0  0  0  0  0  0  0  0  0
    9.1115   44.9429   50.3613 C   0  0  0  0  0  0  0  0  0  0  0  0
    8.7461   44.1129   49.3831 N   0  0  0  0  0  0  0  0  0  0  0  0
   10.0675   46.2936   51.8263 C   0  0  0  0  0  3  0  0  0  0  0  0
   10.2707   45.5243   50.7316 N   0  0  0  0  0  0  0  0  0  0  0  0
  1 14  1  0
  2  1  1  0
  3  5  1  0
  4  3  1  0
  4  6  1  0
  5  2  1  0
  6  7  1  0
  7  2  1  0
  8  3  1  0
  8 12  2  0
  9 10  2  0
 10 12  1  0
 11 13  2  0
 11  9  1  0
 13  8  1  0
 14 15  1  0
 15 17  1  0
 15 16  2  0
 16 18  1  0
 17 20  2  0
 18 21  2  0
 19 17  1  0
 19 22  1  0
 20 23  1  0
 20 21  1  0
 22 23  2  0
M  RAD  8   1   3   2   2   4   3   5   3   6   3   7   3   9   2  10   2
M  RAD  3  11   2  18   2  22   2
M  END
>  <REMARK>  (1) 
 SMILES c1cnc(N2CCCC(CNc3ncnc4nc[nH]c34)C2)nc1
 SMILES IDX 10 1 9 2 5 3 6 4 21 5 7 6 8 7 4 8 1 9 2 10 23 11 3 12 22 13
 SMILES IDX 11 14 12 16 13 17 20 18 14 19 19 20 16 21 15 22 18 23 17 24
 H PARENT 11 15 19 25

>  <TORSDO>  (1) 
F 4

$$$$
