/home/pchatterjee/Documents/git/vs_workflow/DiffDock/diffdock_run/pdbqt_scrubbed/Z1570962597.pdbqt
     RDKit          3D

 23 26  0  0  1  0  0  0  0  0999 V2000
    4.3952   44.8728   51.7632 C   0  0  0  0  0  2  0  0  0  0  0  0
    4.6330   43.4983   51.1177 C   0  0  0  0  0  3  0  0  0  0  0  0
    3.0004   42.4694   49.6610 N   0  0  0  0  0  0  0  0  0  0  0  0
    1.8051   42.8341   50.4388 C   0  0  0  0  0  2  0  0  0  0  0  0
    4.0694   43.4780   49.6930 C   0  0  0  0  0  2  0  0  0  0  0  0
    2.3549   43.0613   51.8651 C   0  0  0  0  0  2  0  0  0  0  0  0
    3.8040   42.5404   51.9639 C   0  0  0  0  0  2  0  0  0  0  0  0
    3.1128   41.2529   48.9561 C   0  0  0  0  0  0  0  0  0  0  0  0
    3.1356   38.8234   47.7056 C   0  0  0  0  0  3  0  0  0  0  0  0
    2.1215   39.1326   48.5612 C   0  0  0  0  0  3  0  0  0  0  0  0
    4.1402   39.7152   47.4678 C   0  0  0  0  0  3  0  0  0  0  0  0
    2.1109   40.3420   49.1842 N   0  0  0  0  0  0  0  0  0  0  0  0
    4.0857   40.9162   48.1152 N   0  0  0  0  0  0  0  0  0  0  0  0
    5.7188   45.4203   52.0958 N   0  0  0  0  0  0  0  0  0  0  0  0
    6.7816   45.0374   51.2026 C   0  0  0  0  0  0  0  0  0  0  0  0
    6.5040   44.1822   50.2154 N   0  0  0  0  0  0  0  0  0  0  0  0
    8.0609   45.5393   51.3487 C   0  0  0  0  0  0  0  0  0  0  0  0
    7.4149   43.7634   49.3278 C   0  0  0  0  0  3  0  0  0  0  0  0
    8.6106   46.3903   52.2241 N   0  0  0  0  0  0  0  0  0  0  0  0
    9.0077   45.1120   50.4348 C   0  0  0  0  0  0  0  0  0  0  0  0
    8.6825   44.2556   49.4652 N   0  0  0  0  0  0  0  0  0  0  0  0
    9.8988   46.5191   51.8876 C   0  0  0  0  0  3  0  0  0  0  0  0
   10.1398   45.7454   50.8037 N   0  0  0  0  0  0  0  0  0  0  0  0
  1 14  1  0
  2  1  1  0
  3  5  1  0
  4  3  1  0
  4  6  1  0
  5  2  1  0
  6  7  1  0
  7  2  1  0
  8  3  1  0
  8 12  2  0
  9 10  2  0
 10 12  1  0
 11 13  2  0
 11  9  1  0
 13  8  1  0
 14 15  1  0
 15 17  1  0
 15 16  2  0
 16 18  1  0
 17 20  2  0
 18 21  2  0
 19 17  1  0
 19 22  1  0
 20 23  1  0
 20 21  1  0
 22 23  2  0
M  RAD  8   1   3   2   2   4   3   5   3   6   3   7   3   9   2  10   2
M  RAD  3  11   2  18   2  22   2
M  END
>  <REMARK>  (1) 
 SMILES c1cnc(N2CCCC(CNc3ncnc4nc[nH]c34)C2)nc1
 SMILES IDX 10 1 9 2 5 3 6 4 21 5 7 6 8 7 4 8 1 9 2 10 23 11 3 12 22 13
 SMILES IDX 11 14 12 16 13 17 20 18 14 19 19 20 16 21 15 22 18 23 17 24
 H PARENT 11 15 19 25

>  <TORSDO>  (1) 
F 4

$$$$
