/home/pchatterjee/Documents/git/vs_workflow/DiffDock/diffdock_run/pdbqt_scrubbed/Z1570962597.pdbqt
     RDKit          3D

 23 26  0  0  1  0  0  0  0  0999 V2000
    9.3295   45.0587   50.7012 C   0  0  0  0  0  2  0  0  0  0  0  0
    8.2172   45.0356   51.7617 C   0  0  0  0  0  3  0  0  0  0  0  0
    7.1853   47.0641   52.5779 N   0  0  0  0  0  0  0  0  0  0  0  0
    8.4134   47.8705   52.6695 C   0  0  0  0  0  2  0  0  0  0  0  0
    7.1722   46.1139   51.4563 C   0  0  0  0  0  2  0  0  0  0  0  0
    9.5347   46.8131   52.7832 C   0  0  0  0  0  2  0  0  0  0  0  0
    8.9257   45.4214   53.0539 C   0  0  0  0  0  2  0  0  0  0  0  0
    6.1196   47.1863   53.4937 C   0  0  0  0  0  0  0  0  0  0  0  0
    4.1617   47.6193   55.3501 C   0  0  0  0  0  3  0  0  0  0  0  0
    5.1781   48.5170   55.2192 C   0  0  0  0  0  3  0  0  0  0  0  0
    4.1126   46.5059   54.5633 C   0  0  0  0  0  3  0  0  0  0  0  0
    6.1531   48.3008   54.2953 N   0  0  0  0  0  0  0  0  0  0  0  0
    5.1128   46.3327   53.6501 N   0  0  0  0  0  0  0  0  0  0  0  0
    9.4469   43.6891   50.1792 N   0  0  0  0  0  0  0  0  0  0  0  0
    8.3185   43.2275   49.4126 C   0  0  0  0  0  0  0  0  0  0  0  0
    8.5178   42.8704   48.1415 N   0  0  0  0  0  0  0  0  0  0  0  0
    7.0556   43.1460   49.9680 C   0  0  0  0  0  0  0  0  0  0  0  0
    7.5412   42.4242   47.3415 C   0  0  0  0  0  3  0  0  0  0  0  0
    6.5764   43.4294   51.1857 N   0  0  0  0  0  0  0  0  0  0  0  0
    6.0411   42.6850   49.1479 C   0  0  0  0  0  0  0  0  0  0  0  0
    6.2893   42.3403   47.8834 N   0  0  0  0  0  0  0  0  0  0  0  0
    5.2671   43.1570   51.1634 C   0  0  0  0  0  3  0  0  0  0  0  0
    4.9423   42.7057   49.9296 N   0  0  0  0  0  0  0  0  0  0  0  0
  1 14  1  0
  2  1  1  0
  3  5  1  0
  4  3  1  0
  4  6  1  0
  5  2  1  0
  6  7  1  0
  7  2  1  0
  8  3  1  0
  8 12  2  0
  9 10  2  0
 10 12  1  0
 11 13  2  0
 11  9  1  0
 13  8  1  0
 14 15  1  0
 15 17  1  0
 15 16  2  0
 16 18  1  0
 17 20  2  0
 18 21  2  0
 19 17  1  0
 19 22  1  0
 20 23  1  0
 20 21  1  0
 22 23  2  0
M  RAD  8   1   3   2   2   4   3   5   3   6   3   7   3   9   2  10   2
M  RAD  3  11   2  18   2  22   2
M  END
>  <REMARK>  (1) 
 SMILES c1cnc(N2CCCC(CNc3ncnc4nc[nH]c34)C2)nc1
 SMILES IDX 10 1 9 2 5 3 6 4 21 5 7 6 8 7 4 8 1 9 2 10 23 11 3 12 22 13
 SMILES IDX 11 14 12 16 13 17 20 18 14 19 19 20 16 21 15 22 18 23 17 24
 H PARENT 11 15 19 25

>  <TORSDO>  (1) 
F 4

$$$$
