/home/pchatterjee/Documents/git/vs_workflow/DiffDock/diffdock_run/pdbqt_scrubbed/Z1570962597.pdbqt
     RDKit          3D

 23 26  0  0  1  0  0  0  0  0999 V2000
    5.0268   45.4616   52.7972 C   0  0  0  0  0  2  0  0  0  0  0  0
    4.3369   44.2130   52.2251 C   0  0  0  0  0  3  0  0  0  0  0  0
    2.2348   44.3437   51.0377 N   0  0  0  0  0  0  0  0  0  0  0  0
    1.5872   45.3287   51.9193 C   0  0  0  0  0  2  0  0  0  0  0  0
    3.6829   44.5398   50.8785 C   0  0  0  0  0  2  0  0  0  0  0  0
    2.3501   45.1780   53.2548 C   0  0  0  0  0  2  0  0  0  0  0  0
    3.2276   43.9091   53.2240 C   0  0  0  0  0  2  0  0  0  0  0  0
    1.5276   43.2971   50.4100 C   0  0  0  0  0  0  0  0  0  0  0  0
    0.3398   41.2514   49.0422 C   0  0  0  0  0  3  0  0  0  0  0  0
    1.5914   41.6603   48.6921 C   0  0  0  0  0  3  0  0  0  0  0  0
   -0.3262   41.8541   50.0689 C   0  0  0  0  0  3  0  0  0  0  0  0
    2.1822   42.6793   49.3729 N   0  0  0  0  0  0  0  0  0  0  0  0
    0.3079   42.8713   50.7229 N   0  0  0  0  0  0  0  0  0  0  0  0
    5.6752   46.1437   51.6673 N   0  0  0  0  0  0  0  0  0  0  0  0
    6.7130   45.3906   51.0118 C   0  0  0  0  0  0  0  0  0  0  0  0
    6.3586   44.3631   50.2361 N   0  0  0  0  0  0  0  0  0  0  0  0
    8.0471   45.7157   51.1687 C   0  0  0  0  0  0  0  0  0  0  0  0
    7.2406   43.6000   49.5785 C   0  0  0  0  0  3  0  0  0  0  0  0
    8.6757   46.6698   51.8666 N   0  0  0  0  0  0  0  0  0  0  0  0
    8.9647   44.9323   50.4915 C   0  0  0  0  0  0  0  0  0  0  0  0
    8.5621   43.9153   49.7280 N   0  0  0  0  0  0  0  0  0  0  0  0
    9.9862   46.5139   51.6489 C   0  0  0  0  0  3  0  0  0  0  0  0
   10.1619   45.4619   50.8158 N   0  0  0  0  0  0  0  0  0  0  0  0
  1 14  1  0
  2  1  1  0
  3  5  1  0
  4  3  1  0
  4  6  1  0
  5  2  1  0
  6  7  1  0
  7  2  1  0
  8  3  1  0
  8 12  2  0
  9 10  2  0
 10 12  1  0
 11 13  2  0
 11  9  1  0
 13  8  1  0
 14 15  1  0
 15 17  1  0
 15 16  2  0
 16 18  1  0
 17 20  2  0
 18 21  2  0
 19 17  1  0
 19 22  1  0
 20 23  1  0
 20 21  1  0
 22 23  2  0
M  RAD  8   1   3   2   2   4   3   5   3   6   3   7   3   9   2  10   2
M  RAD  3  11   2  18   2  22   2
M  END
>  <REMARK>  (1) 
 SMILES c1cnc(N2CCCC(CNc3ncnc4nc[nH]c34)C2)nc1
 SMILES IDX 10 1 9 2 5 3 6 4 21 5 7 6 8 7 4 8 1 9 2 10 23 11 3 12 22 13
 SMILES IDX 11 14 12 16 13 17 20 18 14 19 19 20 16 21 15 22 18 23 17 24
 H PARENT 11 15 19 25

>  <TORSDO>  (1) 
F 4

$$$$
