/home/pchatterjee/Documents/git/vs_workflow/DiffDock/diffdock_run/pdbqt_scrubbed/Z1570962597.pdbqt
     RDKit          3D

 23 26  0  0  1  0  0  0  0  0999 V2000
    7.3459   47.1298   53.0037 C   0  0  0  0  0  2  0  0  0  0  0  0
    6.3291   45.9774   53.0296 C   0  0  0  0  0  3  0  0  0  0  0  0
    3.9531   46.3623   52.8012 N   0  0  0  0  0  0  0  0  0  0  0  0
    3.8796   47.5634   53.6489 C   0  0  0  0  0  2  0  0  0  0  0  0
    5.1992   46.2460   52.0300 C   0  0  0  0  0  2  0  0  0  0  0  0
    5.1233   47.4430   54.5583 C   0  0  0  0  0  2  0  0  0  0  0  0
    5.7377   46.0331   54.4324 C   0  0  0  0  0  2  0  0  0  0  0  0
    2.9214   45.4022   52.7434 C   0  0  0  0  0  0  0  0  0  0  0  0
    0.7743   43.7124   52.7067 C   0  0  0  0  0  3  0  0  0  0  0  0
    0.5951   45.0246   53.0263 C   0  0  0  0  0  3  0  0  0  0  0  0
    2.0159   43.2341   52.4053 C   0  0  0  0  0  3  0  0  0  0  0  0
    1.6644   45.8655   53.0452 N   0  0  0  0  0  0  0  0  0  0  0  0
    3.0578   44.1161   52.4365 N   0  0  0  0  0  0  0  0  0  0  0  0
    8.6731   46.5211   52.8301 N   0  0  0  0  0  0  0  0  0  0  0  0
    8.8700   45.8276   51.5834 C   0  0  0  0  0  0  0  0  0  0  0  0
   10.0089   46.0312   50.9166 N   0  0  0  0  0  0  0  0  0  0  0  0
    7.9143   44.9654   51.0804 C   0  0  0  0  0  0  0  0  0  0  0  0
   10.2955   45.4356   49.7522 C   0  0  0  0  0  3  0  0  0  0  0  0
    6.7113   44.5804   51.5245 N   0  0  0  0  0  0  0  0  0  0  0  0
    8.2034   44.3453   49.8778 C   0  0  0  0  0  0  0  0  0  0  0  0
    9.3555   44.5809   49.2482 N   0  0  0  0  0  0  0  0  0  0  0  0
    6.2202   43.7198   50.6260 C   0  0  0  0  0  3  0  0  0  0  0  0
    7.1236   43.5766   49.6287 N   0  0  0  0  0  0  0  0  0  0  0  0
  1 14  1  0
  2  1  1  0
  3  5  1  0
  4  3  1  0
  4  6  1  0
  5  2  1  0
  6  7  1  0
  7  2  1  0
  8  3  1  0
  8 12  2  0
  9 10  2  0
 10 12  1  0
 11 13  2  0
 11  9  1  0
 13  8  1  0
 14 15  1  0
 15 17  1  0
 15 16  2  0
 16 18  1  0
 17 20  2  0
 18 21  2  0
 19 17  1  0
 19 22  1  0
 20 23  1  0
 20 21  1  0
 22 23  2  0
M  RAD  8   1   3   2   2   4   3   5   3   6   3   7   3   9   2  10   2
M  RAD  3  11   2  18   2  22   2
M  END
>  <REMARK>  (1) 
 SMILES c1cnc(N2CCCC(CNc3ncnc4nc[nH]c34)C2)nc1
 SMILES IDX 10 1 9 2 5 3 6 4 21 5 7 6 8 7 4 8 1 9 2 10 23 11 3 12 22 13
 SMILES IDX 11 14 12 16 13 17 20 18 14 19 19 20 16 21 15 22 18 23 17 24
 H PARENT 11 15 19 25

>  <TORSDO>  (1) 
F 4

$$$$
