/home/pchatterjee/Documents/git/vs_workflow/DiffDock/diffdock_run/pdbqt_scrubbed/Z1570962597.pdbqt
     RDKit          3D

 23 26  0  0  1  0  0  0  0  0999 V2000
    4.5291   43.6892   50.9251 C   0  0  0  0  0  2  0  0  0  0  0  0
    3.1725   44.3218   51.2738 C   0  0  0  0  0  3  0  0  0  0  0  0
    1.7991   43.4889   53.0811 N   0  0  0  0  0  0  0  0  0  0  0  0
    2.0146   42.0547   52.8291 C   0  0  0  0  0  2  0  0  0  0  0  0
    2.9680   44.3323   52.7924 C   0  0  0  0  0  2  0  0  0  0  0  0
    2.4207   42.0046   51.3388 C   0  0  0  0  0  2  0  0  0  0  0  0
    2.1498   43.3682   50.6693 C   0  0  0  0  0  2  0  0  0  0  0  0
    0.5738   44.0080   53.5484 C   0  0  0  0  0  0  0  0  0  0  0  0
   -1.7425   45.2181   54.3466 C   0  0  0  0  0  3  0  0  0  0  0  0
   -0.8711   45.8913   53.5445 C   0  0  0  0  0  3  0  0  0  0  0  0
   -1.4692   43.9456   54.7556 C   0  0  0  0  0  3  0  0  0  0  0  0
    0.2824   45.2888   53.1478 N   0  0  0  0  0  0  0  0  0  0  0  0
   -0.3000   43.3826   54.3309 N   0  0  0  0  0  0  0  0  0  0  0  0
    5.5597   44.6829   51.2606 N   0  0  0  0  0  0  0  0  0  0  0  0
    6.8632   44.4240   50.7058 C   0  0  0  0  0  0  0  0  0  0  0  0
    6.9757   43.4901   49.7579 N   0  0  0  0  0  0  0  0  0  0  0  0
    7.9781   45.1212   51.1309 C   0  0  0  0  0  0  0  0  0  0  0  0
    8.1375   43.1730   49.1727 C   0  0  0  0  0  3  0  0  0  0  0  0
    8.1558   46.0869   52.0410 N   0  0  0  0  0  0  0  0  0  0  0  0
    9.1824   44.7998   50.5302 C   0  0  0  0  0  0  0  0  0  0  0  0
    9.2449   43.8584   49.5872 N   0  0  0  0  0  0  0  0  0  0  0  0
    9.4576   46.3941   52.0359 C   0  0  0  0  0  3  0  0  0  0  0  0
   10.0799   45.6151   51.1207 N   0  0  0  0  0  0  0  0  0  0  0  0
  1 14  1  0
  2  1  1  0
  3  5  1  0
  4  3  1  0
  4  6  1  0
  5  2  1  0
  6  7  1  0
  7  2  1  0
  8  3  1  0
  8 12  2  0
  9 10  2  0
 10 12  1  0
 11 13  2  0
 11  9  1  0
 13  8  1  0
 14 15  1  0
 15 17  1  0
 15 16  2  0
 16 18  1  0
 17 20  2  0
 18 21  2  0
 19 17  1  0
 19 22  1  0
 20 23  1  0
 20 21  1  0
 22 23  2  0
M  RAD  8   1   3   2   2   4   3   5   3   6   3   7   3   9   2  10   2
M  RAD  3  11   2  18   2  22   2
M  END
>  <REMARK>  (1) 
 SMILES c1cnc(N2CCCC(CNc3ncnc4nc[nH]c34)C2)nc1
 SMILES IDX 10 1 9 2 5 3 6 4 21 5 7 6 8 7 4 8 1 9 2 10 23 11 3 12 22 13
 SMILES IDX 11 14 12 16 13 17 20 18 14 19 19 20 16 21 15 22 18 23 17 24
 H PARENT 11 15 19 25

>  <TORSDO>  (1) 
F 4

$$$$
