/home/pchatterjee/Documents/git/vs_workflow/DiffDock/diffdock_run/pdbqt_scrubbed/Z1570962597.pdbqt
     RDKit          3D

 23 26  0  0  1  0  0  0  0  0999 V2000
    6.3497   41.8146   49.2760 C   0  0  0  0  0  2  0  0  0  0  0  0
    4.9657   42.4541   49.0812 C   0  0  0  0  0  3  0  0  0  0  0  0
    2.9317   41.3312   49.7504 N   0  0  0  0  0  0  0  0  0  0  0  0
    3.3048   39.9847   49.2873 C   0  0  0  0  0  2  0  0  0  0  0  0
    4.0571   42.1218   50.2695 C   0  0  0  0  0  2  0  0  0  0  0  0
    4.3783   40.2557   48.2091 C   0  0  0  0  0  2  0  0  0  0  0  0
    4.4022   41.7562   47.8500 C   0  0  0  0  0  2  0  0  0  0  0  0
    1.6108   41.8223   49.6904 C   0  0  0  0  0  0  0  0  0  0  0  0
   -0.8801   42.9451   49.7242 C   0  0  0  0  0  3  0  0  0  0  0  0
    0.1372   43.5388   50.4089 C   0  0  0  0  0  3  0  0  0  0  0  0
   -0.6669   41.7949   49.0224 C   0  0  0  0  0  3  0  0  0  0  0  0
    1.3771   42.9791   50.3924 N   0  0  0  0  0  0  0  0  0  0  0  0
    0.5942   41.2715   49.0347 N   0  0  0  0  0  0  0  0  0  0  0  0
    7.3416   42.8840   49.0899 N   0  0  0  0  0  0  0  0  0  0  0  0
    7.3048   43.9315   50.0775 C   0  0  0  0  0  0  0  0  0  0  0  0
    6.1152   44.3393   50.5264 N   0  0  0  0  0  0  0  0  0  0  0  0
    8.4649   44.5058   50.5615 C   0  0  0  0  0  0  0  0  0  0  0  0
    5.9668   45.3018   51.4454 C   0  0  0  0  0  3  0  0  0  0  0  0
    9.7614   44.2993   50.2987 N   0  0  0  0  0  0  0  0  0  0  0  0
    8.3199   45.5006   51.5121 C   0  0  0  0  0  0  0  0  0  0  0  0
    7.1094   45.8745   51.9295 N   0  0  0  0  0  0  0  0  0  0  0  0
   10.4555   45.1463   51.0669 C   0  0  0  0  0  3  0  0  0  0  0  0
    9.5830   45.8738   51.8023 N   0  0  0  0  0  0  0  0  0  0  0  0
  1 14  1  0
  2  1  1  0
  3  5  1  0
  4  3  1  0
  4  6  1  0
  5  2  1  0
  6  7  1  0
  7  2  1  0
  8  3  1  0
  8 12  2  0
  9 10  2  0
 10 12  1  0
 11 13  2  0
 11  9  1  0
 13  8  1  0
 14 15  1  0
 15 17  1  0
 15 16  2  0
 16 18  1  0
 17 20  2  0
 18 21  2  0
 19 17  1  0
 19 22  1  0
 20 23  1  0
 20 21  1  0
 22 23  2  0
M  RAD  8   1   3   2   2   4   3   5   3   6   3   7   3   9   2  10   2
M  RAD  3  11   2  18   2  22   2
M  END
>  <REMARK>  (1) 
 SMILES c1cnc(N2CCCC(CNc3ncnc4nc[nH]c34)C2)nc1
 SMILES IDX 10 1 9 2 5 3 6 4 21 5 7 6 8 7 4 8 1 9 2 10 23 11 3 12 22 13
 SMILES IDX 11 14 12 16 13 17 20 18 14 19 19 20 16 21 15 22 18 23 17 24
 H PARENT 11 15 19 25

>  <TORSDO>  (1) 
F 4

$$$$
