/home/pchatterjee/Documents/git/vs_workflow/DiffDock/diffdock_run/pdbqt_scrubbed/Z28498395.pdbqt
     RDKit          3D

 26 28  0  0  0  0  0  0  0  0999 V2000
    4.9514   43.1287   50.1230 N   0  0  0  0  0  0  0  0  0  0  0  0
    4.5914   44.3588   50.7995 C   0  0  0  0  0  2  0  0  0  0  0  0
    4.3345   44.0996   52.2739 C   0  0  0  0  0  2  0  0  0  0  0  0
    4.0037   45.3384   52.8361 O   0  0  0  0  0  0  0  0  0  0  0  0
    2.9281   45.1054   53.6957 C   0  0  0  0  0  1  0  0  0  0  0  0
    6.3452   42.7961   49.8976 C   0  0  0  0  0  2  0  0  0  0  0  0
    7.2502   43.8568   50.4657 C   0  0  0  0  0  0  0  0  0  0  0  0
    6.7902   44.7785   51.3398 N   0  0  0  0  0  0  0  0  0  0  0  0
    8.5256   43.8243   50.0504 N   0  0  0  0  0  0  0  0  0  0  0  0
    7.6621   45.7055   51.8115 C   0  0  0  0  0  0  0  0  0  0  0  0
    9.4433   44.7231   50.4857 C   0  0  0  0  0  0  0  0  0  0  0  0
    7.2893   46.6855   52.7055 C   0  0  0  0  0  3  0  0  0  0  0  0
    8.9876   45.6701   51.3787 C   0  0  0  0  0  0  0  0  0  0  0  0
    8.1815   47.6157   53.1736 C   0  0  0  0  0  3  0  0  0  0  0  0
    9.8955   46.6108   51.8503 C   0  0  0  0  0  3  0  0  0  0  0  0
    9.4925   47.5797   52.7447 C   0  0  0  0  0  3  0  0  0  0  0  0
   10.6371   44.6833   50.0895 O   0  0  0  0  0  0  0  0  0  0  0  0
    3.8808   42.2814   49.7001 C   0  0  0  0  0  0  0  0  0  0  0  0
    2.7939   42.4190   50.3493 O   0  0  0  0  0  0  0  0  0  0  0  0
    4.0206   41.3090   48.5847 C   0  0  0  0  0  2  0  0  0  0  0  0
    2.7266   41.1951   47.7877 C   0  0  0  0  0  2  0  0  0  0  0  0
    2.9214   40.0518   46.8071 C   0  0  0  0  0  3  0  0  0  0  0  0
    4.0175   40.3607   45.8115 C   0  0  0  0  0  2  0  0  0  0  0  0
    1.6643   40.0251   45.9464 C   0  0  0  0  0  2  0  0  0  0  0  0
    3.3922   41.1545   44.6943 C   0  0  0  0  0  2  0  0  0  0  0  0
    1.8945   41.0083   44.8240 C   0  0  0  0  0  2  0  0  0  0  0  0
  1  2  1  0
  3  2  1  0
  4  3  1  0
  5  4  1  0
  6  1  1  0
  6  7  1  0
  7  8  2  0
  7  9  1  0
  8 10  1  0
  9 11  1  0
 10 12  2  0
 10 13  1  0
 11 13  1  0
 11 17  2  0
 12 14  1  0
 13 15  2  0
 14 16  2  0
 15 16  1  0
 18 20  1  0
 18  1  1  0
 19 18  2  0
 21 22  1  0
 21 20  1  0
 22 24  1  0
 23 25  1  0
 23 22  1  0
 25 26  1  0
 26 24  1  0
M  RAD  8   2   3   3   3   5   2   6   3  12   2  14   2  15   2  16   2
M  RAD  7  20   3  21   3  22   2  23   3  24   3  25   3  26   3
M  END
>  <REMARK>  (1) 
 SMILES COCCN(Cc1nc2ccccc2c(=O)[nH]1)C(=O)CCC1CCCC1
 SMILES IDX 5 1 4 2 3 3 2 4 1 5 6 6 7 7 8 8 17 9 9 10 15 11 10 12 14 13
 SMILES IDX 11 14 13 15 12 16 16 18 18 19 19 20 20 21 21 22 22 23 23 24
 SMILES IDX 26 25 24 26 25 27
 H PARENT 17 17

>  <TORSDO>  (1) 
F 9

$$$$
