/home/pchatterjee/Documents/git/vs_workflow/DiffDock/diffdock_run/pdbqt_scrubbed/Z28498395.pdbqt
     RDKit          3D

 26 28  0  0  0  0  0  0  0  0999 V2000
    4.5913   41.7291   48.9695 N   0  0  0  0  0  0  0  0  0  0  0  0
    3.5195   41.1844   48.1603 C   0  0  0  0  0  2  0  0  0  0  0  0
    2.7370   42.3014   47.4918 C   0  0  0  0  0  2  0  0  0  0  0  0
    1.6931   41.6828   46.7933 O   0  0  0  0  0  0  0  0  0  0  0  0
    1.7456   42.1777   45.4886 C   0  0  0  0  0  1  0  0  0  0  0  0
    5.9065   41.9445   48.3967 C   0  0  0  0  0  2  0  0  0  0  0  0
    6.6800   42.9619   49.1927 C   0  0  0  0  0  0  0  0  0  0  0  0
    6.0726   43.7454   50.1105 N   0  0  0  0  0  0  0  0  0  0  0  0
    7.9941   43.0356   48.9319 N   0  0  0  0  0  0  0  0  0  0  0  0
    6.8318   44.6410   50.7915 C   0  0  0  0  0  0  0  0  0  0  0  0
    8.8044   43.9098   49.5790 C   0  0  0  0  0  0  0  0  0  0  0  0
    6.3055   45.4835   51.7463 C   0  0  0  0  0  3  0  0  0  0  0  0
    8.1977   44.7162   50.5190 C   0  0  0  0  0  0  0  0  0  0  0  0
    7.0849   46.3835   52.4265 C   0  0  0  0  0  3  0  0  0  0  0  0
    8.9918   45.6268   51.2058 C   0  0  0  0  0  3  0  0  0  0  0  0
    8.4360   46.4571   52.1560 C   0  0  0  0  0  3  0  0  0  0  0  0
   10.0357   43.9705   49.3263 O   0  0  0  0  0  0  0  0  0  0  0  0
    4.2869   42.0353   50.3320 C   0  0  0  0  0  0  0  0  0  0  0  0
    5.0073   41.4361   51.1945 O   0  0  0  0  0  0  0  0  0  0  0  0
    3.2093   42.9829   50.7195 C   0  0  0  0  0  2  0  0  0  0  0  0
    3.1349   43.1435   52.2331 C   0  0  0  0  0  2  0  0  0  0  0  0
    1.8133   43.8301   52.5311 C   0  0  0  0  0  3  0  0  0  0  0  0
    1.6753   45.1203   51.7536 C   0  0  0  0  0  2  0  0  0  0  0  0
    1.9077   44.3013   53.9770 C   0  0  0  0  0  2  0  0  0  0  0  0
    2.3642   46.1960   52.5521 C   0  0  0  0  0  2  0  0  0  0  0  0
    2.5848   45.6504   53.9431 C   0  0  0  0  0  2  0  0  0  0  0  0
  1  2  1  0
  3  2  1  0
  4  3  1  0
  5  4  1  0
  6  1  1  0
  6  7  1  0
  7  8  2  0
  7  9  1  0
  8 10  1  0
  9 11  1  0
 10 12  2  0
 10 13  1  0
 11 13  1  0
 11 17  2  0
 12 14  1  0
 13 15  2  0
 14 16  2  0
 15 16  1  0
 18 20  1  0
 18  1  1  0
 19 18  2  0
 21 22  1  0
 21 20  1  0
 22 24  1  0
 23 25  1  0
 23 22  1  0
 25 26  1  0
 26 24  1  0
M  RAD  8   2   3   3   3   5   2   6   3  12   2  14   2  15   2  16   2
M  RAD  7  20   3  21   3  22   2  23   3  24   3  25   3  26   3
M  END
>  <REMARK>  (1) 
 SMILES COCCN(Cc1nc2ccccc2c(=O)[nH]1)C(=O)CCC1CCCC1
 SMILES IDX 5 1 4 2 3 3 2 4 1 5 6 6 7 7 8 8 17 9 9 10 15 11 10 12 14 13
 SMILES IDX 11 14 13 15 12 16 16 18 18 19 19 20 20 21 21 22 22 23 23 24
 SMILES IDX 26 25 24 26 25 27
 H PARENT 17 17

>  <TORSDO>  (1) 
F 9

$$$$
