/home/pchatterjee/Documents/git/vs_workflow/DiffDock/diffdock_run/pdbqt_scrubbed/Z28498395.pdbqt
     RDKit          3D

 26 28  0  0  0  0  0  0  0  0999 V2000
    4.4690   41.7975   49.6223 N   0  0  0  0  0  0  0  0  0  0  0  0
    3.6051   41.7445   48.4598 C   0  0  0  0  0  2  0  0  0  0  0  0
    4.3142   42.3144   47.2435 C   0  0  0  0  0  2  0  0  0  0  0  0
    3.4867   42.0437   46.1470 O   0  0  0  0  0  0  0  0  0  0  0  0
    3.4722   43.2038   45.3697 C   0  0  0  0  0  1  0  0  0  0  0  0
    5.9021   41.6240   49.4802 C   0  0  0  0  0  2  0  0  0  0  0  0
    6.6435   42.8305   49.9917 C   0  0  0  0  0  0  0  0  0  0  0  0
    6.0359   43.7489   50.7742 N   0  0  0  0  0  0  0  0  0  0  0  0
    7.9296   42.9292   49.6225 N   0  0  0  0  0  0  0  0  0  0  0  0
    6.7652   44.8118   51.1992 C   0  0  0  0  0  0  0  0  0  0  0  0
    8.7094   43.9672   50.0149 C   0  0  0  0  0  0  0  0  0  0  0  0
    6.2360   45.8005   51.9997 C   0  0  0  0  0  3  0  0  0  0  0  0
    8.1021   44.9127   50.8144 C   0  0  0  0  0  0  0  0  0  0  0  0
    6.9852   46.8688   52.4216 C   0  0  0  0  0  3  0  0  0  0  0  0
    8.8654   45.9936   51.2394 C   0  0  0  0  0  3  0  0  0  0  0  0
    8.3076   46.9676   52.0402 C   0  0  0  0  0  3  0  0  0  0  0  0
    9.9147   44.0498   49.6627 O   0  0  0  0  0  0  0  0  0  0  0  0
    3.8440   42.0253   50.8875 C   0  0  0  0  0  0  0  0  0  0  0  0
    2.9806   41.1534   51.2285 O   0  0  0  0  0  0  0  0  0  0  0  0
    4.1741   43.1927   51.7462 C   0  0  0  0  0  2  0  0  0  0  0  0
    3.1645   43.3475   52.8772 C   0  0  0  0  0  2  0  0  0  0  0  0
    2.1829   44.4198   52.4374 C   0  0  0  0  0  3  0  0  0  0  0  0
    2.8299   45.4023   51.4864 C   0  0  0  0  0  2  0  0  0  0  0  0
    1.9067   45.2625   53.6766 C   0  0  0  0  0  2  0  0  0  0  0  0
    3.5230   46.4430   52.3265 C   0  0  0  0  0  2  0  0  0  0  0  0
    2.9973   46.3050   53.7357 C   0  0  0  0  0  2  0  0  0  0  0  0
  1  2  1  0
  3  2  1  0
  4  3  1  0
  5  4  1  0
  6  1  1  0
  6  7  1  0
  7  8  2  0
  7  9  1  0
  8 10  1  0
  9 11  1  0
 10 12  2  0
 10 13  1  0
 11 13  1  0
 11 17  2  0
 12 14  1  0
 13 15  2  0
 14 16  2  0
 15 16  1  0
 18 20  1  0
 18  1  1  0
 19 18  2  0
 21 22  1  0
 21 20  1  0
 22 24  1  0
 23 25  1  0
 23 22  1  0
 25 26  1  0
 26 24  1  0
M  RAD  8   2   3   3   3   5   2   6   3  12   2  14   2  15   2  16   2
M  RAD  7  20   3  21   3  22   2  23   3  24   3  25   3  26   3
M  END
>  <REMARK>  (1) 
 SMILES COCCN(Cc1nc2ccccc2c(=O)[nH]1)C(=O)CCC1CCCC1
 SMILES IDX 5 1 4 2 3 3 2 4 1 5 6 6 7 7 8 8 17 9 9 10 15 11 10 12 14 13
 SMILES IDX 11 14 13 15 12 16 16 18 18 19 19 20 20 21 21 22 22 23 23 24
 SMILES IDX 26 25 24 26 25 27
 H PARENT 17 17

>  <TORSDO>  (1) 
F 9

$$$$
