/home/pchatterjee/Documents/git/vs_workflow/DiffDock/diffdock_run/pdbqt_scrubbed/Z28498395.pdbqt
     RDKit          3D

 26 28  0  0  0  0  0  0  0  0999 V2000
    4.9973   42.9552   50.3420 N   0  0  0  0  0  0  0  0  0  0  0  0
    4.5682   44.1012   51.1185 C   0  0  0  0  0  2  0  0  0  0  0  0
    4.6029   43.7812   52.6029 C   0  0  0  0  0  2  0  0  0  0  0  0
    3.9834   44.8579   53.2488 O   0  0  0  0  0  0  0  0  0  0  0  0
    4.9380   45.4008   54.1114 C   0  0  0  0  0  1  0  0  0  0  0  0
    6.4005   42.5924   50.2831 C   0  0  0  0  0  2  0  0  0  0  0  0
    7.2744   43.7615   50.6527 C   0  0  0  0  0  0  0  0  0  0  0  0
    6.7813   44.8205   51.3312 N   0  0  0  0  0  0  0  0  0  0  0  0
    8.5572   43.6803   50.2678 N   0  0  0  0  0  0  0  0  0  0  0  0
    7.6264   45.8393   51.6311 C   0  0  0  0  0  0  0  0  0  0  0  0
    9.4493   44.6656   50.5378 C   0  0  0  0  0  0  0  0  0  0  0  0
    7.2190   46.9613   52.3192 C   0  0  0  0  0  3  0  0  0  0  0  0
    8.9596   45.7532   51.2301 C   0  0  0  0  0  0  0  0  0  0  0  0
    8.0844   47.9831   52.6151 C   0  0  0  0  0  3  0  0  0  0  0  0
    9.8405   46.7862   51.5277 C   0  0  0  0  0  3  0  0  0  0  0  0
    9.4030   47.8968   52.2179 C   0  0  0  0  0  3  0  0  0  0  0  0
   10.6502   44.5790   50.1719 O   0  0  0  0  0  0  0  0  0  0  0  0
    3.9836   42.2195   49.6534 C   0  0  0  0  0  0  0  0  0  0  0  0
    2.7891   42.4857   50.0055 O   0  0  0  0  0  0  0  0  0  0  0  0
    4.2955   41.2158   48.6023 C   0  0  0  0  0  2  0  0  0  0  0  0
    3.1039   40.9980   47.6776 C   0  0  0  0  0  2  0  0  0  0  0  0
    3.3527   41.8476   46.4435 C   0  0  0  0  0  3  0  0  0  0  0  0
    2.1882   41.7749   45.4808 C   0  0  0  0  0  2  0  0  0  0  0  0
    4.4782   41.1560   45.6840 C   0  0  0  0  0  2  0  0  0  0  0  0
    2.3938   40.5514   44.6264 C   0  0  0  0  0  2  0  0  0  0  0  0
    3.8256   40.1086   44.8142 C   0  0  0  0  0  2  0  0  0  0  0  0
  1  2  1  0
  3  2  1  0
  4  3  1  0
  5  4  1  0
  6  1  1  0
  6  7  1  0
  7  8  2  0
  7  9  1  0
  8 10  1  0
  9 11  1  0
 10 12  2  0
 10 13  1  0
 11 13  1  0
 11 17  2  0
 12 14  1  0
 13 15  2  0
 14 16  2  0
 15 16  1  0
 18 20  1  0
 18  1  1  0
 19 18  2  0
 21 22  1  0
 21 20  1  0
 22 24  1  0
 23 25  1  0
 23 22  1  0
 25 26  1  0
 26 24  1  0
M  RAD  8   2   3   3   3   5   2   6   3  12   2  14   2  15   2  16   2
M  RAD  7  20   3  21   3  22   2  23   3  24   3  25   3  26   3
M  END
>  <REMARK>  (1) 
 SMILES COCCN(Cc1nc2ccccc2c(=O)[nH]1)C(=O)CCC1CCCC1
 SMILES IDX 5 1 4 2 3 3 2 4 1 5 6 6 7 7 8 8 17 9 9 10 15 11 10 12 14 13
 SMILES IDX 11 14 13 15 12 16 16 18 18 19 19 20 20 21 21 22 22 23 23 24
 SMILES IDX 26 25 24 26 25 27
 H PARENT 17 17

>  <TORSDO>  (1) 
F 9

$$$$
