/home/pchatterjee/Documents/git/vs_workflow/DiffDock/diffdock_run/pdbqt_scrubbed/Z28498395.pdbqt
     RDKit          3D

 26 28  0  0  0  0  0  0  0  0999 V2000
    4.9275   43.1578   50.2006 N   0  0  0  0  0  0  0  0  0  0  0  0
    4.4447   44.2793   50.9813 C   0  0  0  0  0  2  0  0  0  0  0  0
    5.0164   44.2339   52.3878 C   0  0  0  0  0  2  0  0  0  0  0  0
    4.6863   45.4574   52.9829 O   0  0  0  0  0  0  0  0  0  0  0  0
    3.5510   45.2223   53.7614 C   0  0  0  0  0  1  0  0  0  0  0  0
    6.1318   43.2839   49.4020 C   0  0  0  0  0  2  0  0  0  0  0  0
    7.1385   44.1724   50.0832 C   0  0  0  0  0  0  0  0  0  0  0  0
    6.7580   45.1000   50.9887 N   0  0  0  0  0  0  0  0  0  0  0  0
    8.4201   43.9826   49.7343 N   0  0  0  0  0  0  0  0  0  0  0  0
    7.7194   45.8664   51.5636 C   0  0  0  0  0  0  0  0  0  0  0  0
    9.4251   44.7166   50.2735 C   0  0  0  0  0  0  0  0  0  0  0  0
    7.4320   46.8381   52.4972 C   0  0  0  0  0  3  0  0  0  0  0  0
    9.0511   45.6676   51.1997 C   0  0  0  0  0  0  0  0  0  0  0  0
    8.4140   47.6050   53.0698 C   0  0  0  0  0  3  0  0  0  0  0  0
   10.0500   46.4423   51.7772 C   0  0  0  0  0  3  0  0  0  0  0  0
    9.7311   47.4074   52.7090 C   0  0  0  0  0  3  0  0  0  0  0  0
   10.6238   44.5301   49.9389 O   0  0  0  0  0  0  0  0  0  0  0  0
    4.1679   41.9485   50.2603 C   0  0  0  0  0  0  0  0  0  0  0  0
    3.2509   41.9293   51.1438 O   0  0  0  0  0  0  0  0  0  0  0  0
    4.4253   40.7947   49.3593 C   0  0  0  0  0  2  0  0  0  0  0  0
    3.2032   40.4792   48.5053 C   0  0  0  0  0  2  0  0  0  0  0  0
    3.1695   41.5176   47.3975 C   0  0  0  0  0  3  0  0  0  0  0  0
    1.9523   41.3438   46.5164 C   0  0  0  0  0  2  0  0  0  0  0  0
    4.3264   41.1706   46.4686 C   0  0  0  0  0  2  0  0  0  0  0  0
    2.3002   40.3102   45.4772 C   0  0  0  0  0  2  0  0  0  0  0  0
    3.8008   40.1396   45.4988 C   0  0  0  0  0  2  0  0  0  0  0  0
  1  2  1  0
  3  2  1  0
  4  3  1  0
  5  4  1  0
  6  1  1  0
  6  7  1  0
  7  8  2  0
  7  9  1  0
  8 10  1  0
  9 11  1  0
 10 12  2  0
 10 13  1  0
 11 13  1  0
 11 17  2  0
 12 14  1  0
 13 15  2  0
 14 16  2  0
 15 16  1  0
 18 20  1  0
 18  1  1  0
 19 18  2  0
 21 22  1  0
 21 20  1  0
 22 24  1  0
 23 25  1  0
 23 22  1  0
 25 26  1  0
 26 24  1  0
M  RAD  8   2   3   3   3   5   2   6   3  12   2  14   2  15   2  16   2
M  RAD  7  20   3  21   3  22   2  23   3  24   3  25   3  26   3
M  END
>  <REMARK>  (1) 
 SMILES COCCN(Cc1nc2ccccc2c(=O)[nH]1)C(=O)CCC1CCCC1
 SMILES IDX 5 1 4 2 3 3 2 4 1 5 6 6 7 7 8 8 17 9 9 10 15 11 10 12 14 13
 SMILES IDX 11 14 13 15 12 16 16 18 18 19 19 20 20 21 21 22 22 23 23 24
 SMILES IDX 26 25 24 26 25 27
 H PARENT 17 17

>  <TORSDO>  (1) 
F 9

$$$$
