/home/pchatterjee/Documents/git/vs_workflow/DiffDock/diffdock_run/pdbqt_scrubbed/Z28498395.pdbqt
     RDKit          3D

 26 28  0  0  0  0  0  0  0  0999 V2000
    4.7747   41.9643   49.8740 N   0  0  0  0  0  0  0  0  0  0  0  0
    4.7622   40.5183   49.7776 C   0  0  0  0  0  2  0  0  0  0  0  0
    4.1940   40.0792   48.4391 C   0  0  0  0  0  2  0  0  0  0  0  0
    2.8204   39.8965   48.6394 O   0  0  0  0  0  0  0  0  0  0  0  0
    2.3924   39.0132   47.6461 C   0  0  0  0  0  1  0  0  0  0  0  0
    5.5925   42.7529   48.9720 C   0  0  0  0  0  2  0  0  0  0  0  0
    6.5835   43.5896   49.7368 C   0  0  0  0  0  0  0  0  0  0  0  0
    6.1813   44.4627   50.6860 N   0  0  0  0  0  0  0  0  0  0  0  0
    7.8739   43.4112   49.4155 N   0  0  0  0  0  0  0  0  0  0  0  0
    7.1295   45.1844   51.3359 C   0  0  0  0  0  0  0  0  0  0  0  0
    8.8665   44.1024   50.0291 C   0  0  0  0  0  0  0  0  0  0  0  0
    6.8198   46.0991   52.3187 C   0  0  0  0  0  3  0  0  0  0  0  0
    8.4704   44.9975   51.0006 C   0  0  0  0  0  0  0  0  0  0  0  0
    7.7887   46.8212   52.9668 C   0  0  0  0  0  3  0  0  0  0  0  0
    9.4560   45.7271   51.6547 C   0  0  0  0  0  3  0  0  0  0  0  0
    9.1149   46.6355   52.6343 C   0  0  0  0  0  3  0  0  0  0  0  0
   10.0737   43.9271   49.7198 O   0  0  0  0  0  0  0  0  0  0  0  0
    3.9550   42.5562   50.8843 C   0  0  0  0  0  0  0  0  0  0  0  0
    3.2140   41.7421   51.5246 O   0  0  0  0  0  0  0  0  0  0  0  0
    3.9630   44.0147   51.1707 C   0  0  0  0  0  2  0  0  0  0  0  0
    3.6738   44.2888   52.6417 C   0  0  0  0  0  2  0  0  0  0  0  0
    2.5570   45.3174   52.6789 C   0  0  0  0  0  3  0  0  0  0  0  0
    2.9022   46.5356   51.8513 C   0  0  0  0  0  2  0  0  0  0  0  0
    2.5373   45.8567   54.1039 C   0  0  0  0  0  2  0  0  0  0  0  0
    3.7161   47.4518   52.7274 C   0  0  0  0  0  2  0  0  0  0  0  0
    3.5501   46.9754   54.1510 C   0  0  0  0  0  2  0  0  0  0  0  0
  1  2  1  0
  3  2  1  0
  4  3  1  0
  5  4  1  0
  6  1  1  0
  6  7  1  0
  7  8  2  0
  7  9  1  0
  8 10  1  0
  9 11  1  0
 10 12  2  0
 10 13  1  0
 11 13  1  0
 11 17  2  0
 12 14  1  0
 13 15  2  0
 14 16  2  0
 15 16  1  0
 18 20  1  0
 18  1  1  0
 19 18  2  0
 21 22  1  0
 21 20  1  0
 22 24  1  0
 23 25  1  0
 23 22  1  0
 25 26  1  0
 26 24  1  0
M  RAD  8   2   3   3   3   5   2   6   3  12   2  14   2  15   2  16   2
M  RAD  7  20   3  21   3  22   2  23   3  24   3  25   3  26   3
M  END
>  <REMARK>  (1) 
 SMILES COCCN(Cc1nc2ccccc2c(=O)[nH]1)C(=O)CCC1CCCC1
 SMILES IDX 5 1 4 2 3 3 2 4 1 5 6 6 7 7 8 8 17 9 9 10 15 11 10 12 14 13
 SMILES IDX 11 14 13 15 12 16 16 18 18 19 19 20 20 21 21 22 22 23 23 24
 SMILES IDX 26 25 24 26 25 27
 H PARENT 17 17

>  <TORSDO>  (1) 
F 9

$$$$
