/home/pchatterjee/Documents/git/vs_workflow/DiffDock/diffdock_run/pdbqt_scrubbed/Z28498395.pdbqt
     RDKit          3D

 26 28  0  0  0  0  0  0  0  0999 V2000
    4.9460   43.0408   50.3381 N   0  0  0  0  0  0  0  0  0  0  0  0
    4.6078   44.2074   51.1286 C   0  0  0  0  0  2  0  0  0  0  0  0
    4.5416   43.8498   52.6033 C   0  0  0  0  0  2  0  0  0  0  0  0
    3.8588   44.8997   53.2291 O   0  0  0  0  0  0  0  0  0  0  0  0
    4.8071   45.5877   53.9892 C   0  0  0  0  0  1  0  0  0  0  0  0
    6.3079   42.8310   49.8850 C   0  0  0  0  0  2  0  0  0  0  0  0
    7.2282   43.8852   50.4405 C   0  0  0  0  0  0  0  0  0  0  0  0
    6.7674   44.8656   51.2478 N   0  0  0  0  0  0  0  0  0  0  0  0
    8.5179   43.7857   50.0841 N   0  0  0  0  0  0  0  0  0  0  0  0
    7.6536   45.7827   51.7122 C   0  0  0  0  0  0  0  0  0  0  0  0
    9.4502   44.6712   50.5155 C   0  0  0  0  0  0  0  0  0  0  0  0
    7.2812   46.8191   52.5404 C   0  0  0  0  0  3  0  0  0  0  0  0
    8.9938   45.6776   51.3406 C   0  0  0  0  0  0  0  0  0  0  0  0
    8.1879   47.7385   53.0019 C   0  0  0  0  0  3  0  0  0  0  0  0
    9.9165   46.6070   51.8058 C   0  0  0  0  0  3  0  0  0  0  0  0
    9.5135   47.6335   52.6336 C   0  0  0  0  0  3  0  0  0  0  0  0
   10.6573   44.5682   50.1749 O   0  0  0  0  0  0  0  0  0  0  0  0
    3.8868   42.1295   50.0368 C   0  0  0  0  0  0  0  0  0  0  0  0
    2.7579   42.4254   50.5468 O   0  0  0  0  0  0  0  0  0  0  0  0
    4.0831   40.9233   49.1908 C   0  0  0  0  0  2  0  0  0  0  0  0
    3.0194   40.8343   48.1031 C   0  0  0  0  0  2  0  0  0  0  0  0
    3.4470   41.7870   47.0004 C   0  0  0  0  0  3  0  0  0  0  0  0
    2.3222   42.0353   46.0200 C   0  0  0  0  0  2  0  0  0  0  0  0
    4.4734   41.0262   46.1700 C   0  0  0  0  0  2  0  0  0  0  0  0
    2.3591   40.9186   45.0095 C   0  0  0  0  0  2  0  0  0  0  0  0
    3.6928   40.2252   45.1558 C   0  0  0  0  0  2  0  0  0  0  0  0
  1  2  1  0
  3  2  1  0
  4  3  1  0
  5  4  1  0
  6  1  1  0
  6  7  1  0
  7  8  2  0
  7  9  1  0
  8 10  1  0
  9 11  1  0
 10 12  2  0
 10 13  1  0
 11 13  1  0
 11 17  2  0
 12 14  1  0
 13 15  2  0
 14 16  2  0
 15 16  1  0
 18 20  1  0
 18  1  1  0
 19 18  2  0
 21 22  1  0
 21 20  1  0
 22 24  1  0
 23 25  1  0
 23 22  1  0
 25 26  1  0
 26 24  1  0
M  RAD  8   2   3   3   3   5   2   6   3  12   2  14   2  15   2  16   2
M  RAD  7  20   3  21   3  22   2  23   3  24   3  25   3  26   3
M  END
>  <REMARK>  (1) 
 SMILES COCCN(Cc1nc2ccccc2c(=O)[nH]1)C(=O)CCC1CCCC1
 SMILES IDX 5 1 4 2 3 3 2 4 1 5 6 6 7 7 8 8 17 9 9 10 15 11 10 12 14 13
 SMILES IDX 11 14 13 15 12 16 16 18 18 19 19 20 20 21 21 22 22 23 23 24
 SMILES IDX 26 25 24 26 25 27
 H PARENT 17 17

>  <TORSDO>  (1) 
F 9

$$$$
