/home/pchatterjee/Documents/git/vs_workflow/DiffDock/diffdock_run/pdbqt_scrubbed/Z28498395.pdbqt
     RDKit          3D

 26 28  0  0  0  0  0  0  0  0999 V2000
    5.0483   42.9106   50.1921 N   0  0  0  0  0  0  0  0  0  0  0  0
    4.9032   43.4915   51.5118 C   0  0  0  0  0  2  0  0  0  0  0  0
    3.9538   44.6764   51.4701 C   0  0  0  0  0  2  0  0  0  0  0  0
    3.8504   45.1402   52.7871 O   0  0  0  0  0  0  0  0  0  0  0  0
    2.7520   46.0019   52.8153 C   0  0  0  0  0  1  0  0  0  0  0  0
    6.1769   43.2669   49.3534 C   0  0  0  0  0  2  0  0  0  0  0  0
    7.1095   44.2027   50.0756 C   0  0  0  0  0  0  0  0  0  0  0  0
    6.6706   45.0005   51.0736 N   0  0  0  0  0  0  0  0  0  0  0  0
    8.3872   44.1901   49.6660 N   0  0  0  0  0  0  0  0  0  0  0  0
    7.5669   45.8193   51.6806 C   0  0  0  0  0  0  0  0  0  0  0  0
    9.3286   44.9848   50.2330 C   0  0  0  0  0  0  0  0  0  0  0  0
    7.2168   46.6689   52.7073 C   0  0  0  0  0  3  0  0  0  0  0  0
    8.8946   45.8047   51.2535 C   0  0  0  0  0  0  0  0  0  0  0  0
    8.1334   47.4908   53.3113 C   0  0  0  0  0  3  0  0  0  0  0  0
    9.8272   46.6358   51.8625 C   0  0  0  0  0  3  0  0  0  0  0  0
    9.4466   47.4755   52.8878 C   0  0  0  0  0  3  0  0  0  0  0  0
   10.5242   44.9647   49.8408 O   0  0  0  0  0  0  0  0  0  0  0  0
    4.0402   41.9880   49.7728 C   0  0  0  0  0  0  0  0  0  0  0  0
    3.0794   41.8277   50.5932 O   0  0  0  0  0  0  0  0  0  0  0  0
    4.1039   41.2659   48.4752 C   0  0  0  0  0  2  0  0  0  0  0  0
    2.7088   41.0153   47.9153 C   0  0  0  0  0  2  0  0  0  0  0  0
    2.8900   40.1801   46.6598 C   0  0  0  0  0  3  0  0  0  0  0  0
    3.9599   40.7604   45.7617 C   0  0  0  0  0  2  0  0  0  0  0  0
    1.6133   40.3676   45.8493 C   0  0  0  0  0  2  0  0  0  0  0  0
    3.3020   41.8161   44.9119 C   0  0  0  0  0  2  0  0  0  0  0  0
    1.8090   41.6192   45.0279 C   0  0  0  0  0  2  0  0  0  0  0  0
  1  2  1  0
  3  2  1  0
  4  3  1  0
  5  4  1  0
  6  1  1  0
  6  7  1  0
  7  8  2  0
  7  9  1  0
  8 10  1  0
  9 11  1  0
 10 12  2  0
 10 13  1  0
 11 13  1  0
 11 17  2  0
 12 14  1  0
 13 15  2  0
 14 16  2  0
 15 16  1  0
 18 20  1  0
 18  1  1  0
 19 18  2  0
 21 22  1  0
 21 20  1  0
 22 24  1  0
 23 25  1  0
 23 22  1  0
 25 26  1  0
 26 24  1  0
M  RAD  8   2   3   3   3   5   2   6   3  12   2  14   2  15   2  16   2
M  RAD  7  20   3  21   3  22   2  23   3  24   3  25   3  26   3
M  END
>  <REMARK>  (1) 
 SMILES COCCN(Cc1nc2ccccc2c(=O)[nH]1)C(=O)CCC1CCCC1
 SMILES IDX 5 1 4 2 3 3 2 4 1 5 6 6 7 7 8 8 17 9 9 10 15 11 10 12 14 13
 SMILES IDX 11 14 13 15 12 16 16 18 18 19 19 20 20 21 21 22 22 23 23 24
 SMILES IDX 26 25 24 26 25 27
 H PARENT 17 17

>  <TORSDO>  (1) 
F 9

$$$$
