/home/pchatterjee/Documents/git/vs_workflow/DiffDock/diffdock_run/pdbqt_scrubbed/Z28498395.pdbqt
     RDKit          3D

 26 28  0  0  0  0  0  0  0  0999 V2000
    4.6879   43.6379   50.8097 N   0  0  0  0  0  0  0  0  0  0  0  0
    4.5295   43.9725   52.2110 C   0  0  0  0  0  2  0  0  0  0  0  0
    3.6196   45.1781   52.3706 C   0  0  0  0  0  2  0  0  0  0  0  0
    3.2125   45.1851   53.7102 O   0  0  0  0  0  0  0  0  0  0  0  0
    4.1468   45.9597   54.4009 C   0  0  0  0  0  1  0  0  0  0  0  0
    5.3274   44.5698   49.9005 C   0  0  0  0  0  2  0  0  0  0  0  0
    6.6469   45.0403   50.4525 C   0  0  0  0  0  0  0  0  0  0  0  0
    6.7086   45.9828   51.4184 N   0  0  0  0  0  0  0  0  0  0  0  0
    7.7407   44.4677   49.9270 N   0  0  0  0  0  0  0  0  0  0  0  0
    7.9322   46.3592   51.8691 C   0  0  0  0  0  0  0  0  0  0  0  0
    8.9900   44.8017   50.3358 C   0  0  0  0  0  0  0  0  0  0  0  0
    8.0991   47.3115   52.8508 C   0  0  0  0  0  3  0  0  0  0  0  0
    9.0681   45.7629   51.3217 C   0  0  0  0  0  0  0  0  0  0  0  0
    9.3420   47.6818   53.2964 C   0  0  0  0  0  3  0  0  0  0  0  0
   10.3299   46.1349   51.7700 C   0  0  0  0  0  3  0  0  0  0  0  0
   10.4650   47.0912   52.7541 C   0  0  0  0  0  3  0  0  0  0  0  0
   10.0090   44.2582   49.8359 O   0  0  0  0  0  0  0  0  0  0  0  0
    4.1900   42.3676   50.3838 C   0  0  0  0  0  0  0  0  0  0  0  0
    3.7510   41.6190   51.3158 O   0  0  0  0  0  0  0  0  0  0  0  0
    4.1829   41.9462   48.9584 C   0  0  0  0  0  2  0  0  0  0  0  0
    3.2875   40.7312   48.7477 C   0  0  0  0  0  2  0  0  0  0  0  0
    4.0235   39.8122   47.7883 C   0  0  0  0  0  3  0  0  0  0  0  0
    4.8238   40.6004   46.7752 C   0  0  0  0  0  2  0  0  0  0  0  0
    2.9452   39.1473   46.9416 C   0  0  0  0  0  2  0  0  0  0  0  0
    3.8884   40.9550   45.6489 C   0  0  0  0  0  2  0  0  0  0  0  0
    2.6594   40.0897   45.7972 C   0  0  0  0  0  2  0  0  0  0  0  0
  1  2  1  0
  3  2  1  0
  4  3  1  0
  5  4  1  0
  6  1  1  0
  6  7  1  0
  7  8  2  0
  7  9  1  0
  8 10  1  0
  9 11  1  0
 10 12  2  0
 10 13  1  0
 11 13  1  0
 11 17  2  0
 12 14  1  0
 13 15  2  0
 14 16  2  0
 15 16  1  0
 18 20  1  0
 18  1  1  0
 19 18  2  0
 21 22  1  0
 21 20  1  0
 22 24  1  0
 23 25  1  0
 23 22  1  0
 25 26  1  0
 26 24  1  0
M  RAD  8   2   3   3   3   5   2   6   3  12   2  14   2  15   2  16   2
M  RAD  7  20   3  21   3  22   2  23   3  24   3  25   3  26   3
M  END
>  <REMARK>  (1) 
 SMILES COCCN(Cc1nc2ccccc2c(=O)[nH]1)C(=O)CCC1CCCC1
 SMILES IDX 5 1 4 2 3 3 2 4 1 5 6 6 7 7 8 8 17 9 9 10 15 11 10 12 14 13
 SMILES IDX 11 14 13 15 12 16 16 18 18 19 19 20 20 21 21 22 22 23 23 24
 SMILES IDX 26 25 24 26 25 27
 H PARENT 17 17

>  <TORSDO>  (1) 
F 9

$$$$
