/home/pchatterjee/Documents/git/vs_workflow/DiffDock/diffdock_run/pdbqt_scrubbed/Z28498395.pdbqt
     RDKit          3D

 26 28  0  0  0  0  0  0  0  0999 V2000
    4.8716   42.6592   50.0633 N   0  0  0  0  0  0  0  0  0  0  0  0
    4.6582   43.3186   51.3361 C   0  0  0  0  0  2  0  0  0  0  0  0
    3.3387   44.0709   51.3310 C   0  0  0  0  0  2  0  0  0  0  0  0
    3.1079   44.4629   52.6551 O   0  0  0  0  0  0  0  0  0  0  0  0
    3.4090   45.8250   52.7199 C   0  0  0  0  0  1  0  0  0  0  0  0
    5.9702   43.0592   49.2047 C   0  0  0  0  0  2  0  0  0  0  0  0
    6.9132   43.9808   49.9316 C   0  0  0  0  0  0  0  0  0  0  0  0
    6.4598   44.8908   50.8213 N   0  0  0  0  0  0  0  0  0  0  0  0
    8.2150   43.8383   49.6395 N   0  0  0  0  0  0  0  0  0  0  0  0
    7.3667   45.6891   51.4398 C   0  0  0  0  0  0  0  0  0  0  0  0
    9.1680   44.6060   50.2241 C   0  0  0  0  0  0  0  0  0  0  0  0
    7.0035   46.6465   52.3617 C   0  0  0  0  0  3  0  0  0  0  0  0
    8.7195   45.5395   51.1348 C   0  0  0  0  0  0  0  0  0  0  0  0
    7.9310   47.4460   52.9788 C   0  0  0  0  0  3  0  0  0  0  0  0
    9.6633   46.3475   51.7576 C   0  0  0  0  0  3  0  0  0  0  0  0
    9.2691   47.2971   52.6763 C   0  0  0  0  0  3  0  0  0  0  0  0
   10.3862   44.4637   49.9426 O   0  0  0  0  0  0  0  0  0  0  0  0
    3.9599   41.6167   49.7097 C   0  0  0  0  0  0  0  0  0  0  0  0
    4.0437   40.5620   50.4185 O   0  0  0  0  0  0  0  0  0  0  0  0
    2.9835   41.7488   48.5969 C   0  0  0  0  0  2  0  0  0  0  0  0
    3.1460   40.6213   47.5846 C   0  0  0  0  0  2  0  0  0  0  0  0
    3.7324   41.2463   46.3308 C   0  0  0  0  0  3  0  0  0  0  0  0
    2.8490   42.3549   45.8029 C   0  0  0  0  0  2  0  0  0  0  0  0
    3.6352   40.1768   45.2499 C   0  0  0  0  0  2  0  0  0  0  0  0
    1.7976   41.7110   44.9374 C   0  0  0  0  0  2  0  0  0  0  0  0
    2.2555   40.3009   44.6494 C   0  0  0  0  0  2  0  0  0  0  0  0
  1  2  1  0
  3  2  1  0
  4  3  1  0
  5  4  1  0
  6  1  1  0
  6  7  1  0
  7  8  2  0
  7  9  1  0
  8 10  1  0
  9 11  1  0
 10 12  2  0
 10 13  1  0
 11 13  1  0
 11 17  2  0
 12 14  1  0
 13 15  2  0
 14 16  2  0
 15 16  1  0
 18 20  1  0
 18  1  1  0
 19 18  2  0
 21 22  1  0
 21 20  1  0
 22 24  1  0
 23 25  1  0
 23 22  1  0
 25 26  1  0
 26 24  1  0
M  RAD  8   2   3   3   3   5   2   6   3  12   2  14   2  15   2  16   2
M  RAD  7  20   3  21   3  22   2  23   3  24   3  25   3  26   3
M  END
>  <REMARK>  (1) 
 SMILES COCCN(Cc1nc2ccccc2c(=O)[nH]1)C(=O)CCC1CCCC1
 SMILES IDX 5 1 4 2 3 3 2 4 1 5 6 6 7 7 8 8 17 9 9 10 15 11 10 12 14 13
 SMILES IDX 11 14 13 15 12 16 16 18 18 19 19 20 20 21 21 22 22 23 23 24
 SMILES IDX 26 25 24 26 25 27
 H PARENT 17 17

>  <TORSDO>  (1) 
F 9

$$$$
