/home/pchatterjee/Documents/git/vs_workflow/DiffDock/diffdock_run/pdbqt_scrubbed/Z1623913958.pdbqt
     RDKit          3D

 24 27  0  0  1  0  0  0  0  0999 V2000
    2.6796   43.0557   50.4025 C   0  0  0  0  0  3  0  0  0  0  0  0
    3.0173   42.0556   49.3198 C   0  0  0  0  0  2  0  0  0  0  0  0
    4.3027   41.4410   49.8529 C   0  0  0  0  0  2  0  0  0  0  0  0
    4.9933   42.6453   50.3102 N   0  0  0  0  0  0  0  0  0  0  0  0
    3.9930   43.3306   51.1399 C   0  0  0  0  0  2  0  0  0  0  0  0
    1.6429   42.5704   51.2541 N   0  0  0  0  0  0  0  0  0  0  0  0
    1.0793   43.4469   52.2192 C   0  0  0  0  0  0  0  0  0  0  0  0
   -0.0545   45.1632   54.1511 C   0  0  0  0  0  3  0  0  0  0  0  0
    0.7445   45.6559   53.1410 C   0  0  0  0  0  3  0  0  0  0  0  0
   -0.2866   43.8051   54.1937 C   0  0  0  0  0  3  0  0  0  0  0  0
    1.2989   44.8184   52.1968 C   0  0  0  0  0  3  0  0  0  0  0  0
    0.2753   42.9807   53.2416 C   0  0  0  0  0  3  0  0  0  0  0  0
    6.3251   43.0644   50.0233 C   0  0  0  0  0  0  0  0  0  0  0  0
    6.8656   42.7017   48.8044 C   0  0  0  0  0  3  0  0  0  0  0  0
    7.0655   43.7905   50.8840 N   0  0  0  0  0  0  0  0  0  0  0  0
    8.1369   43.0831   48.4919 C   0  0  0  0  0  3  0  0  0  0  0  0
    8.3172   44.1643   50.5726 C   0  0  0  0  0  0  0  0  0  0  0  0
    8.8360   43.8065   49.3829 N   0  0  0  0  0  0  0  0  0  0  0  0
    9.1490   44.9281   51.4323 N   0  0  0  0  0  0  0  0  0  0  0  0
    8.6800   45.4436   52.7197 C   0  0  0  0  0  2  0  0  0  0  0  0
   10.5179   45.2280   51.0543 C   0  0  0  0  0  2  0  0  0  0  0  0
    8.9389   46.9542   52.7254 C   0  0  0  0  0  2  0  0  0  0  0  0
   10.5853   46.7263   50.8482 C   0  0  0  0  0  2  0  0  0  0  0  0
    9.3467   47.4461   51.3442 C   0  0  0  0  0  2  0  0  0  0  0  0
  1  6  1  0
  1  2  1  0
  3  2  1  0
  4  3  1  0
  5  4  1  0
  5  1  1  0
  7  6  1  0
  7 11  2  0
  8  9  2  0
  9 11  1  0
 10 12  2  0
 10  8  1  0
 12  7  1  0
 13 14  2  0
 13  4  1  0
 15 13  1  0
 16 14  1  0
 17 18  1  0
 17 15  2  0
 18 16  2  0
 19 17  1  0
 20 19  1  0
 21 19  1  0
 22 20  1  0
 23 24  1  0
 23 21  1  0
 24 22  1  0
M  RAD  8   1   2   2   3   3   3   5   3   8   2   9   2  10   2  11   2
M  RAD  8  12   2  14   2  16   2  20   3  21   3  22   3  23   3  24   3
M  END
>  <REMARK>  (1) 
 SMILES c1ccc(NC2CCN(c3ccnc(N4CCCCC4)n3)C2)cc1
 SMILES IDX 6 1 7 2 8 3 9 4 22 5 5 6 4 8 1 9 2 10 24 11 3 12 23 13 10 14
 SMILES IDX 11 15 21 16 12 17 14 18 13 19 15 20 16 21 20 22 17 23 19 24
 SMILES IDX 18 25
 H PARENT 5 7

>  <TORSDO>  (1) 
F 4

$$$$
