/home/pchatterjee/Documents/git/vs_workflow/DiffDock/diffdock_run/pdbqt_scrubbed/Z1623913958.pdbqt
     RDKit          3D

 24 27  0  0  1  0  0  0  0  0999 V2000
    7.3419   44.3361   48.9737 C   0  0  0  0  0  3  0  0  0  0  0  0
    8.7730   44.8226   48.9306 C   0  0  0  0  0  2  0  0  0  0  0  0
    9.2285   44.5788   50.3613 C   0  0  0  0  0  2  0  0  0  0  0  0
    8.0598   45.0676   51.0903 N   0  0  0  0  0  0  0  0  0  0  0  0
    6.9318   44.3791   50.4483 C   0  0  0  0  0  2  0  0  0  0  0  0
    7.2146   43.0414   48.3881 N   0  0  0  0  0  0  0  0  0  0  0  0
    5.9840   42.3448   48.5209 C   0  0  0  0  0  0  0  0  0  0  0  0
    3.5513   40.9361   48.7683 C   0  0  0  0  0  3  0  0  0  0  0  0
    3.7050   42.1942   49.3115 C   0  0  0  0  0  3  0  0  0  0  0  0
    4.6207   40.3813   48.0984 C   0  0  0  0  0  3  0  0  0  0  0  0
    4.8929   42.8833   49.1912 C   0  0  0  0  0  3  0  0  0  0  0  0
    5.8023   41.0835   47.9868 C   0  0  0  0  0  3  0  0  0  0  0  0
    8.0156   45.9949   52.1719 C   0  0  0  0  0  0  0  0  0  0  0  0
    9.1578   46.7244   52.4414 C   0  0  0  0  0  3  0  0  0  0  0  0
    6.9176   46.1835   52.9301 N   0  0  0  0  0  0  0  0  0  0  0  0
    9.1563   47.6220   53.4679 C   0  0  0  0  0  3  0  0  0  0  0  0
    6.9200   47.0684   53.9403 C   0  0  0  0  0  0  0  0  0  0  0  0
    8.0371   47.7750   54.1958 N   0  0  0  0  0  0  0  0  0  0  0  0
    5.7992   47.3146   54.7756 N   0  0  0  0  0  0  0  0  0  0  0  0
    5.2143   46.2766   55.6261 C   0  0  0  0  0  2  0  0  0  0  0  0
    5.1858   48.6296   54.8132 C   0  0  0  0  0  2  0  0  0  0  0  0
    3.7209   46.2020   55.2894 C   0  0  0  0  0  2  0  0  0  0  0  0
    3.7998   48.4710   54.2253 C   0  0  0  0  0  2  0  0  0  0  0  0
    3.3970   47.0203   54.0479 C   0  0  0  0  0  2  0  0  0  0  0  0
  1  6  1  0
  1  2  1  0
  3  2  1  0
  4  3  1  0
  5  4  1  0
  5  1  1  0
  7  6  1  0
  7 11  2  0
  8  9  2  0
  9 11  1  0
 10 12  2  0
 10  8  1  0
 12  7  1  0
 13 14  2  0
 13  4  1  0
 15 13  1  0
 16 14  1  0
 17 18  1  0
 17 15  2  0
 18 16  2  0
 19 17  1  0
 20 19  1  0
 21 19  1  0
 22 20  1  0
 23 24  1  0
 23 21  1  0
 24 22  1  0
M  RAD  8   1   2   2   3   3   3   5   3   8   2   9   2  10   2  11   2
M  RAD  8  12   2  14   2  16   2  20   3  21   3  22   3  23   3  24   3
M  END
>  <REMARK>  (1) 
 SMILES c1ccc(NC2CCN(c3ccnc(N4CCCCC4)n3)C2)cc1
 SMILES IDX 6 1 7 2 8 3 9 4 22 5 5 6 4 8 1 9 2 10 24 11 3 12 23 13 10 14
 SMILES IDX 11 15 21 16 12 17 14 18 13 19 15 20 16 21 20 22 17 23 19 24
 SMILES IDX 18 25
 H PARENT 5 7

>  <TORSDO>  (1) 
F 4

$$$$
