/home/pchatterjee/Documents/git/vs_workflow/DiffDock/diffdock_run/pdbqt_scrubbed/Z1623913958.pdbqt
     RDKit          3D

 24 27  0  0  1  0  0  0  0  0999 V2000
    3.5402   40.8382   48.7214 C   0  0  0  0  0  3  0  0  0  0  0  0
    3.8282   40.6976   50.1992 C   0  0  0  0  0  2  0  0  0  0  0  0
    4.2017   42.1219   50.5811 C   0  0  0  0  0  2  0  0  0  0  0  0
    5.0640   42.4727   49.4543 N   0  0  0  0  0  0  0  0  0  0  0  0
    4.2662   42.1103   48.2750 C   0  0  0  0  0  2  0  0  0  0  0  0
    2.1370   40.8675   48.4652 N   0  0  0  0  0  0  0  0  0  0  0  0
    1.6714   41.4432   47.2531 C   0  0  0  0  0  0  0  0  0  0  0  0
    0.7721   42.5750   44.8296 C   0  0  0  0  0  3  0  0  0  0  0  0
    0.0554   42.7290   45.9975 C   0  0  0  0  0  3  0  0  0  0  0  0
    1.9443   41.8511   44.8757 C   0  0  0  0  0  3  0  0  0  0  0  0
    0.4937   42.1765   47.1819 C   0  0  0  0  0  3  0  0  0  0  0  0
    2.3692   41.3048   46.0686 C   0  0  0  0  0  3  0  0  0  0  0  0
    6.3733   43.0351   49.4836 C   0  0  0  0  0  0  0  0  0  0  0  0
    7.1877   42.8275   48.3868 C   0  0  0  0  0  3  0  0  0  0  0  0
    6.8394   43.7512   50.5259 N   0  0  0  0  0  0  0  0  0  0  0  0
    8.4476   43.3491   48.3759 C   0  0  0  0  0  3  0  0  0  0  0  0
    8.0808   44.2633   50.5114 C   0  0  0  0  0  0  0  0  0  0  0  0
    8.8675   44.0562   49.4388 N   0  0  0  0  0  0  0  0  0  0  0  0
    8.6318   45.0253   51.5745 N   0  0  0  0  0  0  0  0  0  0  0  0
    7.8593   45.3773   52.7671 C   0  0  0  0  0  2  0  0  0  0  0  0
   10.0060   45.4885   51.5110 C   0  0  0  0  0  2  0  0  0  0  0  0
    7.9396   46.8995   52.9270 C   0  0  0  0  0  2  0  0  0  0  0  0
    9.9436   46.9985   51.4235 C   0  0  0  0  0  2  0  0  0  0  0  0
    8.5576   47.5484   51.6971 C   0  0  0  0  0  2  0  0  0  0  0  0
  1  6  1  0
  1  2  1  0
  3  2  1  0
  4  3  1  0
  5  4  1  0
  5  1  1  0
  7  6  1  0
  7 11  2  0
  8  9  2  0
  9 11  1  0
 10 12  2  0
 10  8  1  0
 12  7  1  0
 13 14  2  0
 13  4  1  0
 15 13  1  0
 16 14  1  0
 17 18  1  0
 17 15  2  0
 18 16  2  0
 19 17  1  0
 20 19  1  0
 21 19  1  0
 22 20  1  0
 23 24  1  0
 23 21  1  0
 24 22  1  0
M  RAD  8   1   2   2   3   3   3   5   3   8   2   9   2  10   2  11   2
M  RAD  8  12   2  14   2  16   2  20   3  21   3  22   3  23   3  24   3
M  END
>  <REMARK>  (1) 
 SMILES c1ccc(NC2CCN(c3ccnc(N4CCCCC4)n3)C2)cc1
 SMILES IDX 6 1 7 2 8 3 9 4 22 5 5 6 4 8 1 9 2 10 24 11 3 12 23 13 10 14
 SMILES IDX 11 15 21 16 12 17 14 18 13 19 15 20 16 21 20 22 17 23 19 24
 SMILES IDX 18 25
 H PARENT 5 7

>  <TORSDO>  (1) 
F 4

$$$$
