/home/pchatterjee/Documents/git/vs_workflow/DiffDock/diffdock_run/pdbqt_scrubbed/Z1623913958.pdbqt
     RDKit          3D

 24 27  0  0  1  0  0  0  0  0999 V2000
    6.9990   46.7232   54.4556 C   0  0  0  0  0  3  0  0  0  0  0  0
    8.3263   47.3920   54.1770 C   0  0  0  0  0  2  0  0  0  0  0  0
    8.2596   47.6028   52.6720 C   0  0  0  0  0  2  0  0  0  0  0  0
    7.7185   46.3107   52.2549 N   0  0  0  0  0  0  0  0  0  0  0  0
    6.5464   46.1243   53.1210 C   0  0  0  0  0  2  0  0  0  0  0  0
    6.0598   47.6421   55.0114 N   0  0  0  0  0  0  0  0  0  0  0  0
    4.6759   47.4490   54.7567 C   0  0  0  0  0  0  0  0  0  0  0  0
    1.9267   47.0905   54.2307 C   0  0  0  0  0  3  0  0  0  0  0  0
    2.6016   46.2561   55.0967 C   0  0  0  0  0  3  0  0  0  0  0  0
    2.6319   48.1087   53.6257 C   0  0  0  0  0  3  0  0  0  0  0  0
    3.9445   46.4303   55.3544 C   0  0  0  0  0  3  0  0  0  0  0  0
    3.9750   48.2696   53.8941 C   0  0  0  0  0  3  0  0  0  0  0  0
    8.2071   45.4310   51.2454 C   0  0  0  0  0  0  0  0  0  0  0  0
    9.5755   45.3437   51.0750 C   0  0  0  0  0  3  0  0  0  0  0  0
    7.3958   44.6925   50.4628 N   0  0  0  0  0  0  0  0  0  0  0  0
   10.0830   44.5134   50.1197 C   0  0  0  0  0  3  0  0  0  0  0  0
    7.8993   43.8759   49.5230 C   0  0  0  0  0  0  0  0  0  0  0  0
    9.2338   43.7969   49.3638 N   0  0  0  0  0  0  0  0  0  0  0  0
    7.1017   43.0724   48.6670 N   0  0  0  0  0  0  0  0  0  0  0  0
    5.6438   43.1930   48.6151 C   0  0  0  0  0  2  0  0  0  0  0  0
    7.7192   42.0863   47.7992 C   0  0  0  0  0  2  0  0  0  0  0  0
    5.0635   41.7960   48.8617 C   0  0  0  0  0  2  0  0  0  0  0  0
    7.2633   40.7322   48.2995 C   0  0  0  0  0  2  0  0  0  0  0  0
    6.1439   40.8260   49.3176 C   0  0  0  0  0  2  0  0  0  0  0  0
  1  6  1  0
  1  2  1  0
  3  2  1  0
  4  3  1  0
  5  4  1  0
  5  1  1  0
  7  6  1  0
  7 11  2  0
  8  9  2  0
  9 11  1  0
 10 12  2  0
 10  8  1  0
 12  7  1  0
 13 14  2  0
 13  4  1  0
 15 13  1  0
 16 14  1  0
 17 18  1  0
 17 15  2  0
 18 16  2  0
 19 17  1  0
 20 19  1  0
 21 19  1  0
 22 20  1  0
 23 24  1  0
 23 21  1  0
 24 22  1  0
M  RAD  8   1   2   2   3   3   3   5   3   8   2   9   2  10   2  11   2
M  RAD  8  12   2  14   2  16   2  20   3  21   3  22   3  23   3  24   3
M  END
>  <REMARK>  (1) 
 SMILES c1ccc(NC2CCN(c3ccnc(N4CCCCC4)n3)C2)cc1
 SMILES IDX 6 1 7 2 8 3 9 4 22 5 5 6 4 8 1 9 2 10 24 11 3 12 23 13 10 14
 SMILES IDX 11 15 21 16 12 17 14 18 13 19 15 20 16 21 20 22 17 23 19 24
 SMILES IDX 18 25
 H PARENT 5 7

>  <TORSDO>  (1) 
F 4

$$$$
