/home/pchatterjee/Documents/git/vs_workflow/DiffDock/diffdock_run/pdbqt_scrubbed/Z1623913958.pdbqt
     RDKit          3D

 24 27  0  0  1  0  0  0  0  0999 V2000
    2.6234   42.9333   50.3135 C   0  0  0  0  0  3  0  0  0  0  0  0
    3.0533   41.8042   49.4042 C   0  0  0  0  0  2  0  0  0  0  0  0
    4.3647   41.3718   50.0422 C   0  0  0  0  0  2  0  0  0  0  0  0
    4.9612   42.6780   50.3147 N   0  0  0  0  0  0  0  0  0  0  0  0
    3.8978   43.4109   51.0151 C   0  0  0  0  0  2  0  0  0  0  0  0
    1.6027   42.5134   51.2176 N   0  0  0  0  0  0  0  0  0  0  0  0
    1.1712   43.4096   52.2315 C   0  0  0  0  0  0  0  0  0  0  0  0
    0.3061   45.1650   54.2645 C   0  0  0  0  0  3  0  0  0  0  0  0
    0.8119   45.6457   53.0752 C   0  0  0  0  0  3  0  0  0  0  0  0
    0.2333   43.7992   54.4363 C   0  0  0  0  0  3  0  0  0  0  0  0
    1.2348   44.7891   52.0814 C   0  0  0  0  0  3  0  0  0  0  0  0
    0.6605   42.9557   53.4324 C   0  0  0  0  0  3  0  0  0  0  0  0
    6.2677   43.1409   49.9824 C   0  0  0  0  0  0  0  0  0  0  0  0
    6.7457   42.8643   48.7157 C   0  0  0  0  0  3  0  0  0  0  0  0
    7.0425   43.8278   50.8450 N   0  0  0  0  0  0  0  0  0  0  0  0
    7.9911   43.2899   48.3588 C   0  0  0  0  0  3  0  0  0  0  0  0
    8.2685   44.2452   50.4897 C   0  0  0  0  0  0  0  0  0  0  0  0
    8.7263   43.9715   49.2537 N   0  0  0  0  0  0  0  0  0  0  0  0
    9.1337   44.9719   51.3487 N   0  0  0  0  0  0  0  0  0  0  0  0
    8.7348   45.3821   52.6961 C   0  0  0  0  0  2  0  0  0  0  0  0
   10.4677   45.3380   50.9091 C   0  0  0  0  0  2  0  0  0  0  0  0
    8.9551   46.8958   52.7936 C   0  0  0  0  0  2  0  0  0  0  0  0
   10.4838   46.8483   50.8068 C   0  0  0  0  0  2  0  0  0  0  0  0
    9.2614   47.4946   51.4285 C   0  0  0  0  0  2  0  0  0  0  0  0
  1  6  1  0
  1  2  1  0
  3  2  1  0
  4  3  1  0
  5  4  1  0
  5  1  1  0
  7  6  1  0
  7 11  2  0
  8  9  2  0
  9 11  1  0
 10 12  2  0
 10  8  1  0
 12  7  1  0
 13 14  2  0
 13  4  1  0
 15 13  1  0
 16 14  1  0
 17 18  1  0
 17 15  2  0
 18 16  2  0
 19 17  1  0
 20 19  1  0
 21 19  1  0
 22 20  1  0
 23 24  1  0
 23 21  1  0
 24 22  1  0
M  RAD  8   1   2   2   3   3   3   5   3   8   2   9   2  10   2  11   2
M  RAD  8  12   2  14   2  16   2  20   3  21   3  22   3  23   3  24   3
M  END
>  <REMARK>  (1) 
 SMILES c1ccc(NC2CCN(c3ccnc(N4CCCCC4)n3)C2)cc1
 SMILES IDX 6 1 7 2 8 3 9 4 22 5 5 6 4 8 1 9 2 10 24 11 3 12 23 13 10 14
 SMILES IDX 11 15 21 16 12 17 14 18 13 19 15 20 16 21 20 22 17 23 19 24
 SMILES IDX 18 25
 H PARENT 5 7

>  <TORSDO>  (1) 
F 4

$$$$
