/home/pchatterjee/Documents/git/vs_workflow/DiffDock/diffdock_run/pdbqt_scrubbed/Z1623913958.pdbqt
     RDKit          3D

 24 27  0  0  1  0  0  0  0  0999 V2000
    2.7499   42.9449   50.4728 C   0  0  0  0  0  3  0  0  0  0  0  0
    3.1555   41.8104   49.5591 C   0  0  0  0  0  2  0  0  0  0  0  0
    4.4717   41.3660   50.1790 C   0  0  0  0  0  2  0  0  0  0  0  0
    5.0849   42.6667   50.4408 N   0  0  0  0  0  0  0  0  0  0  0  0
    4.0389   43.4110   51.1552 C   0  0  0  0  0  2  0  0  0  0  0  0
    1.7382   42.5364   51.3920 N   0  0  0  0  0  0  0  0  0  0  0  0
    1.1750   43.5021   52.2681 C   0  0  0  0  0  0  0  0  0  0  0  0
    0.0439   45.3970   54.0270 C   0  0  0  0  0  3  0  0  0  0  0  0
    0.7655   45.7930   52.9206 C   0  0  0  0  0  3  0  0  0  0  0  0
   -0.1118   44.0462   54.2533 C   0  0  0  0  0  3  0  0  0  0  0  0
    1.3184   44.8682   52.0608 C   0  0  0  0  0  3  0  0  0  0  0  0
    0.4476   43.1337   53.3836 C   0  0  0  0  0  3  0  0  0  0  0  0
    6.3910   43.1161   50.0891 C   0  0  0  0  0  0  0  0  0  0  0  0
    7.1248   42.3393   49.2130 C   0  0  0  0  0  3  0  0  0  0  0  0
    6.9286   44.2535   50.5721 N   0  0  0  0  0  0  0  0  0  0  0  0
    8.3787   42.7347   48.8515 C   0  0  0  0  0  3  0  0  0  0  0  0
    8.1639   44.6396   50.2138 C   0  0  0  0  0  0  0  0  0  0  0  0
    8.8718   43.8768   49.3597 N   0  0  0  0  0  0  0  0  0  0  0  0
    8.7876   45.8242   50.6851 N   0  0  0  0  0  0  0  0  0  0  0  0
   10.2428   45.9731   50.7410 C   0  0  0  0  0  2  0  0  0  0  0  0
    7.9859   46.9473   51.1355 C   0  0  0  0  0  2  0  0  0  0  0  0
   10.6036   46.3721   52.1762 C   0  0  0  0  0  2  0  0  0  0  0  0
    8.2415   47.0854   52.6212 C   0  0  0  0  0  2  0  0  0  0  0  0
    9.4028   46.2374   53.1013 C   0  0  0  0  0  2  0  0  0  0  0  0
  1  6  1  0
  1  2  1  0
  3  2  1  0
  4  3  1  0
  5  4  1  0
  5  1  1  0
  7  6  1  0
  7 11  2  0
  8  9  2  0
  9 11  1  0
 10 12  2  0
 10  8  1  0
 12  7  1  0
 13 14  2  0
 13  4  1  0
 15 13  1  0
 16 14  1  0
 17 18  1  0
 17 15  2  0
 18 16  2  0
 19 17  1  0
 20 19  1  0
 21 19  1  0
 22 20  1  0
 23 24  1  0
 23 21  1  0
 24 22  1  0
M  RAD  8   1   2   2   3   3   3   5   3   8   2   9   2  10   2  11   2
M  RAD  8  12   2  14   2  16   2  20   3  21   3  22   3  23   3  24   3
M  END
>  <REMARK>  (1) 
 SMILES c1ccc(NC2CCN(c3ccnc(N4CCCCC4)n3)C2)cc1
 SMILES IDX 6 1 7 2 8 3 9 4 22 5 5 6 4 8 1 9 2 10 24 11 3 12 23 13 10 14
 SMILES IDX 11 15 21 16 12 17 14 18 13 19 15 20 16 21 20 22 17 23 19 24
 SMILES IDX 18 25
 H PARENT 5 7

>  <TORSDO>  (1) 
F 4

$$$$
