/home/pchatterjee/Documents/git/vs_workflow/DiffDock/diffdock_run/pdbqt_scrubbed/Z1623913958.pdbqt
     RDKit          3D

 24 27  0  0  1  0  0  0  0  0999 V2000
    2.7652   42.9591   50.4751 C   0  0  0  0  0  3  0  0  0  0  0  0
    3.1587   41.8309   49.5482 C   0  0  0  0  0  2  0  0  0  0  0  0
    4.4731   41.3693   50.1591 C   0  0  0  0  0  2  0  0  0  0  0  0
    5.0977   42.6621   50.4326 N   0  0  0  0  0  0  0  0  0  0  0  0
    4.0601   43.4075   51.1581 C   0  0  0  0  0  2  0  0  0  0  0  0
    1.7531   42.5492   51.3933 N   0  0  0  0  0  0  0  0  0  0  0  0
    1.3016   43.4709   52.3751 C   0  0  0  0  0  0  0  0  0  0  0  0
    0.3926   45.2776   54.3430 C   0  0  0  0  0  3  0  0  0  0  0  0
    1.0573   45.7222   53.2196 C   0  0  0  0  0  3  0  0  0  0  0  0
    0.1822   43.9223   54.4812 C   0  0  0  0  0  3  0  0  0  0  0  0
    1.5019   44.8405   52.2577 C   0  0  0  0  0  3  0  0  0  0  0  0
    0.6331   43.0533   53.5099 C   0  0  0  0  0  3  0  0  0  0  0  0
    6.4063   43.1046   50.0813 C   0  0  0  0  0  0  0  0  0  0  0  0
    7.1405   42.3183   49.2141 C   0  0  0  0  0  3  0  0  0  0  0  0
    6.9459   44.2444   50.5565 N   0  0  0  0  0  0  0  0  0  0  0  0
    8.3968   42.7067   48.8533 C   0  0  0  0  0  3  0  0  0  0  0  0
    8.1836   44.6237   50.1989 C   0  0  0  0  0  0  0  0  0  0  0  0
    8.8919   43.8516   49.3535 N   0  0  0  0  0  0  0  0  0  0  0  0
    8.8095   45.8102   50.6624 N   0  0  0  0  0  0  0  0  0  0  0  0
   10.2639   45.9368   50.7700 C   0  0  0  0  0  2  0  0  0  0  0  0
    8.0109   46.9581   51.0519 C   0  0  0  0  0  2  0  0  0  0  0  0
   10.5769   46.3686   52.2069 C   0  0  0  0  0  2  0  0  0  0  0  0
    8.2123   47.1322   52.5421 C   0  0  0  0  0  2  0  0  0  0  0  0
    9.3398   46.2785   53.0885 C   0  0  0  0  0  2  0  0  0  0  0  0
  1  6  1  0
  1  2  1  0
  3  2  1  0
  4  3  1  0
  5  4  1  0
  5  1  1  0
  7  6  1  0
  7 11  2  0
  8  9  2  0
  9 11  1  0
 10 12  2  0
 10  8  1  0
 12  7  1  0
 13 14  2  0
 13  4  1  0
 15 13  1  0
 16 14  1  0
 17 18  1  0
 17 15  2  0
 18 16  2  0
 19 17  1  0
 20 19  1  0
 21 19  1  0
 22 20  1  0
 23 24  1  0
 23 21  1  0
 24 22  1  0
M  RAD  8   1   2   2   3   3   3   5   3   8   2   9   2  10   2  11   2
M  RAD  8  12   2  14   2  16   2  20   3  21   3  22   3  23   3  24   3
M  END
>  <REMARK>  (1) 
 SMILES c1ccc(NC2CCN(c3ccnc(N4CCCCC4)n3)C2)cc1
 SMILES IDX 6 1 7 2 8 3 9 4 22 5 5 6 4 8 1 9 2 10 24 11 3 12 23 13 10 14
 SMILES IDX 11 15 21 16 12 17 14 18 13 19 15 20 16 21 20 22 17 23 19 24
 SMILES IDX 18 25
 H PARENT 5 7

>  <TORSDO>  (1) 
F 4

$$$$
