/home/pchatterjee/Documents/git/vs_workflow/DiffDock/diffdock_run/pdbqt_scrubbed/Z1623913958.pdbqt
     RDKit          3D

 24 27  0  0  1  0  0  0  0  0999 V2000
    2.8293   43.0729   50.6334 C   0  0  0  0  0  3  0  0  0  0  0  0
    3.1872   41.9001   49.7486 C   0  0  0  0  0  2  0  0  0  0  0  0
    4.5315   41.4766   50.3207 C   0  0  0  0  0  2  0  0  0  0  0  0
    5.1593   42.7846   50.4980 N   0  0  0  0  0  0  0  0  0  0  0  0
    4.1512   43.5618   51.2317 C   0  0  0  0  0  2  0  0  0  0  0  0
    1.8635   42.7066   51.6176 N   0  0  0  0  0  0  0  0  0  0  0  0
    1.4665   43.6697   52.5831 C   0  0  0  0  0  0  0  0  0  0  0  0
    0.6819   45.5613   54.5246 C   0  0  0  0  0  3  0  0  0  0  0  0
    0.7329   45.8920   53.1869 C   0  0  0  0  0  3  0  0  0  0  0  0
    1.0253   44.2776   54.8914 C   0  0  0  0  0  3  0  0  0  0  0  0
    1.1161   44.9688   52.2376 C   0  0  0  0  0  3  0  0  0  0  0  0
    1.4065   43.3658   53.9296 C   0  0  0  0  0  3  0  0  0  0  0  0
    6.4472   43.2141   50.0640 C   0  0  0  0  0  0  0  0  0  0  0  0
    7.1131   42.4252   49.1454 C   0  0  0  0  0  3  0  0  0  0  0  0
    7.0308   44.3441   50.5097 N   0  0  0  0  0  0  0  0  0  0  0  0
    8.3476   42.8015   48.7051 C   0  0  0  0  0  3  0  0  0  0  0  0
    8.2468   44.7113   50.0737 C   0  0  0  0  0  0  0  0  0  0  0  0
    8.8884   43.9369   49.1787 N   0  0  0  0  0  0  0  0  0  0  0  0
    8.9162   45.8872   50.5023 N   0  0  0  0  0  0  0  0  0  0  0  0
   10.3762   45.9840   50.5469 C   0  0  0  0  0  2  0  0  0  0  0  0
    8.1588   47.0536   50.9180 C   0  0  0  0  0  2  0  0  0  0  0  0
   10.7592   46.4173   51.9663 C   0  0  0  0  0  2  0  0  0  0  0  0
    8.4274   47.2318   52.3971 C   0  0  0  0  0  2  0  0  0  0  0  0
    9.5594   46.3580   52.9005 C   0  0  0  0  0  2  0  0  0  0  0  0
  1  6  1  0
  1  2  1  0
  3  2  1  0
  4  3  1  0
  5  4  1  0
  5  1  1  0
  7  6  1  0
  7 11  2  0
  8  9  2  0
  9 11  1  0
 10 12  2  0
 10  8  1  0
 12  7  1  0
 13 14  2  0
 13  4  1  0
 15 13  1  0
 16 14  1  0
 17 18  1  0
 17 15  2  0
 18 16  2  0
 19 17  1  0
 20 19  1  0
 21 19  1  0
 22 20  1  0
 23 24  1  0
 23 21  1  0
 24 22  1  0
M  RAD  8   1   2   2   3   3   3   5   3   8   2   9   2  10   2  11   2
M  RAD  8  12   2  14   2  16   2  20   3  21   3  22   3  23   3  24   3
M  END
>  <REMARK>  (1) 
 SMILES c1ccc(NC2CCN(c3ccnc(N4CCCCC4)n3)C2)cc1
 SMILES IDX 6 1 7 2 8 3 9 4 22 5 5 6 4 8 1 9 2 10 24 11 3 12 23 13 10 14
 SMILES IDX 11 15 21 16 12 17 14 18 13 19 15 20 16 21 20 22 17 23 19 24
 SMILES IDX 18 25
 H PARENT 5 7

>  <TORSDO>  (1) 
F 4

$$$$
