/home/pchatterjee/Documents/git/vs_workflow/DiffDock/diffdock_run/pdbqt_scrubbed/Z1623913958.pdbqt
     RDKit          3D

 24 27  0  0  1  0  0  0  0  0999 V2000
    2.8436   43.0095   50.4535 C   0  0  0  0  0  3  0  0  0  0  0  0
    3.2590   41.8021   49.6434 C   0  0  0  0  0  2  0  0  0  0  0  0
    4.6039   41.4571   50.2649 C   0  0  0  0  0  2  0  0  0  0  0  0
    5.1843   42.7936   50.3805 N   0  0  0  0  0  0  0  0  0  0  0  0
    4.1355   43.5756   51.0493 C   0  0  0  0  0  2  0  0  0  0  0  0
    1.8694   42.6658   51.4375 N   0  0  0  0  0  0  0  0  0  0  0  0
    1.4505   43.6561   52.3654 C   0  0  0  0  0  0  0  0  0  0  0  0
    0.6128   45.6007   54.2309 C   0  0  0  0  0  3  0  0  0  0  0  0
    1.0250   45.9586   52.9646 C   0  0  0  0  0  3  0  0  0  0  0  0
    0.6202   44.2632   54.5642 C   0  0  0  0  0  3  0  0  0  0  0  0
    1.4344   45.0095   52.0525 C   0  0  0  0  0  3  0  0  0  0  0  0
    1.0327   43.3260   53.6404 C   0  0  0  0  0  3  0  0  0  0  0  0
    6.4664   43.2419   49.9485 C   0  0  0  0  0  0  0  0  0  0  0  0
    7.1068   42.5106   48.9664 C   0  0  0  0  0  3  0  0  0  0  0  0
    7.0683   44.3362   50.4549 N   0  0  0  0  0  0  0  0  0  0  0  0
    8.3350   42.9065   48.5257 C   0  0  0  0  0  3  0  0  0  0  0  0
    8.2779   44.7230   50.0183 C   0  0  0  0  0  0  0  0  0  0  0  0
    8.8947   44.0047   49.0612 N   0  0  0  0  0  0  0  0  0  0  0  0
    8.9657   45.8636   50.5088 N   0  0  0  0  0  0  0  0  0  0  0  0
   10.4257   45.9177   50.5996 C   0  0  0  0  0  2  0  0  0  0  0  0
    8.2279   47.0353   50.9443 C   0  0  0  0  0  2  0  0  0  0  0  0
   10.7772   46.2893   52.0445 C   0  0  0  0  0  2  0  0  0  0  0  0
    8.4563   47.1532   52.4362 C   0  0  0  0  0  2  0  0  0  0  0  0
    9.5485   46.2306   52.9404 C   0  0  0  0  0  2  0  0  0  0  0  0
  1  6  1  0
  1  2  1  0
  3  2  1  0
  4  3  1  0
  5  4  1  0
  5  1  1  0
  7  6  1  0
  7 11  2  0
  8  9  2  0
  9 11  1  0
 10 12  2  0
 10  8  1  0
 12  7  1  0
 13 14  2  0
 13  4  1  0
 15 13  1  0
 16 14  1  0
 17 18  1  0
 17 15  2  0
 18 16  2  0
 19 17  1  0
 20 19  1  0
 21 19  1  0
 22 20  1  0
 23 24  1  0
 23 21  1  0
 24 22  1  0
M  RAD  8   1   2   2   3   3   3   5   3   8   2   9   2  10   2  11   2
M  RAD  8  12   2  14   2  16   2  20   3  21   3  22   3  23   3  24   3
M  END
>  <REMARK>  (1) 
 SMILES c1ccc(NC2CCN(c3ccnc(N4CCCCC4)n3)C2)cc1
 SMILES IDX 6 1 7 2 8 3 9 4 22 5 5 6 4 8 1 9 2 10 24 11 3 12 23 13 10 14
 SMILES IDX 11 15 21 16 12 17 14 18 13 19 15 20 16 21 20 22 17 23 19 24
 SMILES IDX 18 25
 H PARENT 5 7

>  <TORSDO>  (1) 
F 4

$$$$
