/home/pchatterjee/Documents/git/vs_workflow/DiffDock/diffdock_run/pdbqt_scrubbed/Z1623913958.pdbqt
     RDKit          3D

 24 27  0  0  1  0  0  0  0  0999 V2000
    2.8669   42.4347   49.9885 C   0  0  0  0  0  3  0  0  0  0  0  0
    3.3732   41.5115   48.9031 C   0  0  0  0  0  2  0  0  0  0  0  0
    4.7297   41.0977   49.4532 C   0  0  0  0  0  2  0  0  0  0  0  0
    5.2176   42.3892   49.9332 N   0  0  0  0  0  0  0  0  0  0  0  0
    4.1098   42.9015   50.7512 C   0  0  0  0  0  2  0  0  0  0  0  0
    1.9047   41.7847   50.8174 N   0  0  0  0  0  0  0  0  0  0  0  0
    1.2020   42.5506   51.7854 C   0  0  0  0  0  0  0  0  0  0  0  0
   -0.1857   44.0992   53.6931 C   0  0  0  0  0  3  0  0  0  0  0  0
   -0.1472   42.7237   53.7832 C   0  0  0  0  0  3  0  0  0  0  0  0
    0.4737   44.7015   52.6431 C   0  0  0  0  0  3  0  0  0  0  0  0
    0.5304   41.9662   52.8518 C   0  0  0  0  0  3  0  0  0  0  0  0
    1.1470   43.9296   51.7197 C   0  0  0  0  0  3  0  0  0  0  0  0
    6.4725   43.0131   49.6735 C   0  0  0  0  0  0  0  0  0  0  0  0
    7.3332   42.3858   48.7931 C   0  0  0  0  0  3  0  0  0  0  0  0
    6.8450   44.1747   50.2463 N   0  0  0  0  0  0  0  0  0  0  0  0
    8.5435   42.9505   48.5180 C   0  0  0  0  0  3  0  0  0  0  0  0
    8.0379   44.7277   49.9729 C   0  0  0  0  0  0  0  0  0  0  0  0
    8.8703   44.1099   49.1139 N   0  0  0  0  0  0  0  0  0  0  0  0
    8.4905   45.9471   50.5410 N   0  0  0  0  0  0  0  0  0  0  0  0
    9.8910   46.3681   50.4760 C   0  0  0  0  0  2  0  0  0  0  0  0
    7.5602   46.8322   51.2178 C   0  0  0  0  0  2  0  0  0  0  0  0
   10.3450   46.6580   51.9109 C   0  0  0  0  0  2  0  0  0  0  0  0
    7.9645   46.8416   52.6766 C   0  0  0  0  0  2  0  0  0  0  0  0
    9.3090   46.1848   52.9202 C   0  0  0  0  0  2  0  0  0  0  0  0
  1  6  1  0
  1  2  1  0
  3  2  1  0
  4  3  1  0
  5  4  1  0
  5  1  1  0
  7  6  1  0
  7 11  2  0
  8  9  2  0
  9 11  1  0
 10 12  2  0
 10  8  1  0
 12  7  1  0
 13 14  2  0
 13  4  1  0
 15 13  1  0
 16 14  1  0
 17 18  1  0
 17 15  2  0
 18 16  2  0
 19 17  1  0
 20 19  1  0
 21 19  1  0
 22 20  1  0
 23 24  1  0
 23 21  1  0
 24 22  1  0
M  RAD  8   1   2   2   3   3   3   5   3   8   2   9   2  10   2  11   2
M  RAD  8  12   2  14   2  16   2  20   3  21   3  22   3  23   3  24   3
M  END
>  <REMARK>  (1) 
 SMILES c1ccc(NC2CCN(c3ccnc(N4CCCCC4)n3)C2)cc1
 SMILES IDX 6 1 7 2 8 3 9 4 22 5 5 6 4 8 1 9 2 10 24 11 3 12 23 13 10 14
 SMILES IDX 11 15 21 16 12 17 14 18 13 19 15 20 16 21 20 22 17 23 19 24
 SMILES IDX 18 25
 H PARENT 5 7

>  <TORSDO>  (1) 
F 4

$$$$
