/home/pchatterjee/Documents/git/vs_workflow/DiffDock/diffdock_run/pdbqt_scrubbed/Z646130978.pdbqt
     RDKit          3D

 24 26  0  0  0  0  0  0  0  0999 V2000
    4.2813   40.4736   47.1599 C   0  0  0  0  0  0  0  0  0  0  0  0
    3.2128   40.2616   48.0315 C   0  0  0  0  0  3  0  0  0  0  0  0
    3.1794   40.6869   49.3210 C   0  0  0  0  0  3  0  0  0  0  0  0
    4.2819   41.3820   49.8140 C   0  0  0  0  0  3  0  0  0  0  0  0
    5.3657   41.6211   49.0005 C   0  0  0  0  0  0  0  0  0  0  0  0
    5.3560   41.1704   47.6966 C   0  0  0  0  0  3  0  0  0  0  0  0
    4.2659   40.0173   45.8479 O   0  0  0  0  0  0  0  0  0  0  0  0
    3.6835   40.6995   44.7665 C   0  0  0  0  0  2  0  0  0  0  0  0
    3.8476   39.9913   43.4847 C   0  0  0  0  0  0  0  0  0  0  0  0
    3.1043   40.2957   42.3093 N   0  0  0  0  0  0  0  0  0  0  0  0
    1.8024   40.9113   42.4908 C   0  0  0  0  0  1  0  0  0  0  0  0
    3.6619   39.9876   41.0249 C   0  0  0  0  0  1  0  0  0  0  0  0
    4.6953   39.0586   43.4171 O   0  0  0  0  0  0  0  0  0  0  0  0
    6.5784   42.3635   49.4776 C   0  0  0  0  0  2  0  0  0  0  0  0
    6.4728   43.7703   49.2333 N   0  0  0  0  0  0  0  0  0  0  0  0
    6.8779   44.6592   50.2751 C   0  0  0  0  0  0  0  0  0  0  0  0
    5.9471   45.1900   51.0936 N   0  0  0  0  0  0  0  0  0  0  0  0
    8.2001   44.9982   50.4768 C   0  0  0  0  0  0  0  0  0  0  0  0
    6.3143   46.0165   52.0638 C   0  0  0  0  0  3  0  0  0  0  0  0
    9.3024   44.6290   49.8314 N   0  0  0  0  0  0  0  0  0  0  0  0
    8.5682   45.8585   51.4891 C   0  0  0  0  0  0  0  0  0  0  0  0
    7.5920   46.3527   52.2695 N   0  0  0  0  0  0  0  0  0  0  0  0
   10.3476   45.2399   50.4189 C   0  0  0  0  0  3  0  0  0  0  0  0
    9.9106   46.0094   51.4527 N   0  0  0  0  0  0  0  0  0  0  0  0
  1  2  2  0
  2  3  1  0
  4  3  2  0
  5  4  1  0
  6  1  1  0
  6  5  2  0
  7  1  1  0
  8  7  1  0
  9  8  1  0
  9 10  1  0
 10 11  1  0
 12 10  1  0
 13  9  2  0
 14  5  1  0
 14 15  1  0
 15 16  1  0
 16 18  1  0
 17 16  2  0
 17 19  1  0
 18 20  1  0
 18 21  2  0
 19 22  2  0
 20 23  1  0
 21 24  1  0
 22 21  1  0
 23 24  2  0
M  RAD  8   2   2   3   2   4   2   6   2   8   3  11   2  12   2  14   3
M  RAD  2  19   2  23   2
M  END
>  <REMARK>  (1) 
 SMILES CN(C)C(=O)COc1cccc(CNc2ncnc3nc[nH]c23)c1
 SMILES IDX 8 1 9 2 10 3 11 4 12 5 24 6 7 7 6 8 4 9 2 10 1 11 3 12 5 13
 SMILES IDX 13 14 14 15 15 17 16 18 23 19 17 20 22 21 19 22 18 23 21 24
 SMILES IDX 20 25
 H PARENT 14 16 22 26

>  <TORSDO>  (1) 
F 6

$$$$
