/home/pchatterjee/Documents/git/vs_workflow/DiffDock/diffdock_run/pdbqt_scrubbed/Z646130978.pdbqt
     RDKit          3D

 24 26  0  0  0  0  0  0  0  0999 V2000
    3.1440   40.3619   47.9546 C   0  0  0  0  0  0  0  0  0  0  0  0
    4.1084   39.9870   47.0189 C   0  0  0  0  0  3  0  0  0  0  0  0
    5.3543   40.5227   46.9453 C   0  0  0  0  0  3  0  0  0  0  0  0
    5.7003   41.5135   47.8620 C   0  0  0  0  0  3  0  0  0  0  0  0
    4.7900   41.9245   48.8087 C   0  0  0  0  0  0  0  0  0  0  0  0
    3.5353   41.3521   48.8461 C   0  0  0  0  0  3  0  0  0  0  0  0
    1.8821   39.7820   47.9874 O   0  0  0  0  0  0  0  0  0  0  0  0
    0.6975   40.4106   47.5687 C   0  0  0  0  0  2  0  0  0  0  0  0
   -0.4966   39.5665   47.7511 C   0  0  0  0  0  0  0  0  0  0  0  0
   -1.8047   40.0807   47.9770 N   0  0  0  0  0  0  0  0  0  0  0  0
   -1.9819   40.9603   49.1179 C   0  0  0  0  0  1  0  0  0  0  0  0
   -2.8675   39.7154   47.0868 C   0  0  0  0  0  1  0  0  0  0  0  0
   -0.3594   38.3126   47.7055 O   0  0  0  0  0  0  0  0  0  0  0  0
    5.1077   42.9861   49.8193 C   0  0  0  0  0  2  0  0  0  0  0  0
    6.4966   43.3339   49.8087 N   0  0  0  0  0  0  0  0  0  0  0  0
    6.9223   44.4009   50.6573 C   0  0  0  0  0  0  0  0  0  0  0  0
    6.0311   44.9900   51.4799 N   0  0  0  0  0  0  0  0  0  0  0  0
    8.2249   44.8554   50.6662 C   0  0  0  0  0  0  0  0  0  0  0  0
    6.4177   45.9816   52.2715 C   0  0  0  0  0  3  0  0  0  0  0  0
    9.2890   44.4641   49.9714 N   0  0  0  0  0  0  0  0  0  0  0  0
    8.6135   45.8870   51.4940 C   0  0  0  0  0  0  0  0  0  0  0  0
    7.6769   46.4311   52.2894 N   0  0  0  0  0  0  0  0  0  0  0  0
   10.3304   45.2286   50.3480 C   0  0  0  0  0  3  0  0  0  0  0  0
    9.9297   46.1201   51.2948 N   0  0  0  0  0  0  0  0  0  0  0  0
  1  2  2  0
  2  3  1  0
  4  3  2  0
  5  4  1  0
  6  1  1  0
  6  5  2  0
  7  1  1  0
  8  7  1  0
  9  8  1  0
  9 10  1  0
 10 11  1  0
 12 10  1  0
 13  9  2  0
 14  5  1  0
 14 15  1  0
 15 16  1  0
 16 18  1  0
 17 16  2  0
 17 19  1  0
 18 20  1  0
 18 21  2  0
 19 22  2  0
 20 23  1  0
 21 24  1  0
 22 21  1  0
 23 24  2  0
M  RAD  8   2   2   3   2   4   2   6   2   8   3  11   2  12   2  14   3
M  RAD  2  19   2  23   2
M  END
>  <REMARK>  (1) 
 SMILES CN(C)C(=O)COc1cccc(CNc2ncnc3nc[nH]c23)c1
 SMILES IDX 8 1 9 2 10 3 11 4 12 5 24 6 7 7 6 8 4 9 2 10 1 11 3 12 5 13
 SMILES IDX 13 14 14 15 15 17 16 18 23 19 17 20 22 21 19 22 18 23 21 24
 SMILES IDX 20 25
 H PARENT 14 16 22 26

>  <TORSDO>  (1) 
F 6

$$$$
