/home/pchatterjee/Documents/git/vs_workflow/DiffDock/diffdock_run/pdbqt_scrubbed/Z646130978.pdbqt
     RDKit          3D

 24 26  0  0  0  0  0  0  0  0999 V2000
    2.0806   43.5573   51.0641 C   0  0  0  0  0  0  0  0  0  0  0  0
    1.2272   44.6342   51.3057 C   0  0  0  0  0  3  0  0  0  0  0  0
    1.5954   45.7764   51.9418 C   0  0  0  0  0  3  0  0  0  0  0  0
    2.9115   45.8880   52.3859 C   0  0  0  0  0  3  0  0  0  0  0  0
    3.7992   44.8576   52.1759 C   0  0  0  0  0  0  0  0  0  0  0  0
    3.3810   43.7154   51.5249 C   0  0  0  0  0  3  0  0  0  0  0  0
    1.6538   42.4096   50.4081 O   0  0  0  0  0  0  0  0  0  0  0  0
    1.8280   42.1557   49.0373 C   0  0  0  0  0  2  0  0  0  0  0  0
    1.2582   40.8639   48.6152 C   0  0  0  0  0  0  0  0  0  0  0  0
    1.5066   40.2632   47.3486 N   0  0  0  0  0  0  0  0  0  0  0  0
    2.4097   40.9605   46.4514 C   0  0  0  0  0  1  0  0  0  0  0  0
    0.8677   39.0222   47.0212 C   0  0  0  0  0  1  0  0  0  0  0  0
    0.5045   40.2477   49.4185 O   0  0  0  0  0  0  0  0  0  0  0  0
    5.2265   44.9231   52.6319 C   0  0  0  0  0  2  0  0  0  0  0  0
    6.0109   45.7905   51.8060 N   0  0  0  0  0  0  0  0  0  0  0  0
    7.1066   45.2179   51.0909 C   0  0  0  0  0  0  0  0  0  0  0  0
    6.8625   44.3883   50.0564 N   0  0  0  0  0  0  0  0  0  0  0  0
    8.4187   45.4851   51.4232 C   0  0  0  0  0  0  0  0  0  0  0  0
    7.8740   43.8520   49.3867 C   0  0  0  0  0  3  0  0  0  0  0  0
    8.9369   46.2513   52.3785 N   0  0  0  0  0  0  0  0  0  0  0  0
    9.4608   44.9210   50.7188 C   0  0  0  0  0  0  0  0  0  0  0  0
    9.1497   44.1030   49.6989 N   0  0  0  0  0  0  0  0  0  0  0  0
   10.2771   46.1767   52.2844 C   0  0  0  0  0  3  0  0  0  0  0  0
   10.6223   45.3535   51.2574 N   0  0  0  0  0  0  0  0  0  0  0  0
  1  2  2  0
  2  3  1  0
  4  3  2  0
  5  4  1  0
  6  1  1  0
  6  5  2  0
  7  1  1  0
  8  7  1  0
  9  8  1  0
  9 10  1  0
 10 11  1  0
 12 10  1  0
 13  9  2  0
 14  5  1  0
 14 15  1  0
 15 16  1  0
 16 18  1  0
 17 16  2  0
 17 19  1  0
 18 20  1  0
 18 21  2  0
 19 22  2  0
 20 23  1  0
 21 24  1  0
 22 21  1  0
 23 24  2  0
M  RAD  8   2   2   3   2   4   2   6   2   8   3  11   2  12   2  14   3
M  RAD  2  19   2  23   2
M  END
>  <REMARK>  (1) 
 SMILES CN(C)C(=O)COc1cccc(CNc2ncnc3nc[nH]c23)c1
 SMILES IDX 8 1 9 2 10 3 11 4 12 5 24 6 7 7 6 8 4 9 2 10 1 11 3 12 5 13
 SMILES IDX 13 14 14 15 15 17 16 18 23 19 17 20 22 21 19 22 18 23 21 24
 SMILES IDX 20 25
 H PARENT 14 16 22 26

>  <TORSDO>  (1) 
F 6

$$$$
