/home/pchatterjee/Documents/git/vs_workflow/DiffDock/diffdock_run/pdbqt_scrubbed/Z646130978.pdbqt
     RDKit          3D

 24 26  0  0  0  0  0  0  0  0999 V2000
    2.9597   40.6374   48.1810 C   0  0  0  0  0  0  0  0  0  0  0  0
    3.6228   40.3280   46.9932 C   0  0  0  0  0  3  0  0  0  0  0  0
    4.9397   40.5696   46.7650 C   0  0  0  0  0  3  0  0  0  0  0  0
    5.6854   41.1662   47.7799 C   0  0  0  0  0  3  0  0  0  0  0  0
    5.0852   41.4941   48.9740 C   0  0  0  0  0  0  0  0  0  0  0  0
    3.7441   41.2301   49.1617 C   0  0  0  0  0  3  0  0  0  0  0  0
    1.6091   40.3692   48.3642 O   0  0  0  0  0  0  0  0  0  0  0  0
    0.7785   39.7437   47.4193 C   0  0  0  0  0  2  0  0  0  0  0  0
   -0.6257   39.6554   47.8576 C   0  0  0  0  0  0  0  0  0  0  0  0
   -1.7080   39.3306   46.9917 N   0  0  0  0  0  0  0  0  0  0  0  0
   -1.5940   39.7459   45.6056 C   0  0  0  0  0  1  0  0  0  0  0  0
   -2.8395   38.6225   47.5152 C   0  0  0  0  0  1  0  0  0  0  0  0
   -0.8924   39.8797   49.0707 O   0  0  0  0  0  0  0  0  0  0  0  0
    5.8383   42.1374   50.1002 C   0  0  0  0  0  2  0  0  0  0  0  0
    6.6777   43.2024   49.6407 N   0  0  0  0  0  0  0  0  0  0  0  0
    6.9628   44.2655   50.5508 C   0  0  0  0  0  0  0  0  0  0  0  0
    5.9518   44.8529   51.2223 N   0  0  0  0  0  0  0  0  0  0  0  0
    8.2475   44.7180   50.7703 C   0  0  0  0  0  0  0  0  0  0  0  0
    6.2073   45.8409   52.0695 C   0  0  0  0  0  3  0  0  0  0  0  0
    9.4089   44.3278   50.2536 N   0  0  0  0  0  0  0  0  0  0  0  0
    8.4992   45.7459   51.6537 C   0  0  0  0  0  0  0  0  0  0  0  0
    7.4477   46.2884   52.2909 N   0  0  0  0  0  0  0  0  0  0  0  0
   10.3771   45.0894   50.7953 C   0  0  0  0  0  3  0  0  0  0  0  0
    9.8305   45.9778   51.6691 N   0  0  0  0  0  0  0  0  0  0  0  0
  1  2  2  0
  2  3  1  0
  4  3  2  0
  5  4  1  0
  6  1  1  0
  6  5  2  0
  7  1  1  0
  8  7  1  0
  9  8  1  0
  9 10  1  0
 10 11  1  0
 12 10  1  0
 13  9  2  0
 14  5  1  0
 14 15  1  0
 15 16  1  0
 16 18  1  0
 17 16  2  0
 17 19  1  0
 18 20  1  0
 18 21  2  0
 19 22  2  0
 20 23  1  0
 21 24  1  0
 22 21  1  0
 23 24  2  0
M  RAD  8   2   2   3   2   4   2   6   2   8   3  11   2  12   2  14   3
M  RAD  2  19   2  23   2
M  END
>  <REMARK>  (1) 
 SMILES CN(C)C(=O)COc1cccc(CNc2ncnc3nc[nH]c23)c1
 SMILES IDX 8 1 9 2 10 3 11 4 12 5 24 6 7 7 6 8 4 9 2 10 1 11 3 12 5 13
 SMILES IDX 13 14 14 15 15 17 16 18 23 19 17 20 22 21 19 22 18 23 21 24
 SMILES IDX 20 25
 H PARENT 14 16 22 26

>  <TORSDO>  (1) 
F 6

$$$$
