/home/pchatterjee/Documents/git/vs_workflow/DiffDock/diffdock_run/pdbqt_scrubbed/Z646130978.pdbqt
     RDKit          3D

 24 26  0  0  0  0  0  0  0  0999 V2000
    2.2273   41.6250   49.8121 C   0  0  0  0  0  0  0  0  0  0  0  0
    3.2303   40.6945   49.5397 C   0  0  0  0  0  3  0  0  0  0  0  0
    4.5602   40.9443   49.6567 C   0  0  0  0  0  3  0  0  0  0  0  0
    4.9576   42.2123   50.0764 C   0  0  0  0  0  3  0  0  0  0  0  0
    4.0128   43.1718   50.3598 C   0  0  0  0  0  0  0  0  0  0  0  0
    2.6724   42.8733   50.2268 C   0  0  0  0  0  3  0  0  0  0  0  0
    0.8792   41.3187   49.6764 O   0  0  0  0  0  0  0  0  0  0  0  0
   -0.0317   42.0348   48.8818 C   0  0  0  0  0  2  0  0  0  0  0  0
   -1.4012   41.4949   48.9489 C   0  0  0  0  0  0  0  0  0  0  0  0
   -2.4997   42.0249   48.2147 N   0  0  0  0  0  0  0  0  0  0  0  0
   -2.2357   43.1711   47.3643 C   0  0  0  0  0  1  0  0  0  0  0  0
   -3.7915   41.4165   48.3444 C   0  0  0  0  0  1  0  0  0  0  0  0
   -1.6211   40.5042   49.6994 O   0  0  0  0  0  0  0  0  0  0  0  0
    4.3828   44.5521   50.8149 C   0  0  0  0  0  2  0  0  0  0  0  0
    5.6412   44.5690   51.4976 N   0  0  0  0  0  0  0  0  0  0  0  0
    6.8273   44.4531   50.7105 C   0  0  0  0  0  0  0  0  0  0  0  0
    6.8079   43.7072   49.5875 N   0  0  0  0  0  0  0  0  0  0  0  0
    8.0040   45.0827   51.0607 C   0  0  0  0  0  0  0  0  0  0  0  0
    7.9049   43.5939   48.8505 C   0  0  0  0  0  3  0  0  0  0  0  0
    8.2997   45.8641   52.0952 N   0  0  0  0  0  0  0  0  0  0  0  0
    9.1370   44.9567   50.2856 C   0  0  0  0  0  0  0  0  0  0  0  0
    9.0511   44.1990   49.1791 N   0  0  0  0  0  0  0  0  0  0  0  0
    9.5905   46.2269   51.9813 C   0  0  0  0  0  3  0  0  0  0  0  0
   10.1286   45.6720   50.8614 N   0  0  0  0  0  0  0  0  0  0  0  0
  1  2  2  0
  2  3  1  0
  4  3  2  0
  5  4  1  0
  6  1  1  0
  6  5  2  0
  7  1  1  0
  8  7  1  0
  9  8  1  0
  9 10  1  0
 10 11  1  0
 12 10  1  0
 13  9  2  0
 14  5  1  0
 14 15  1  0
 15 16  1  0
 16 18  1  0
 17 16  2  0
 17 19  1  0
 18 20  1  0
 18 21  2  0
 19 22  2  0
 20 23  1  0
 21 24  1  0
 22 21  1  0
 23 24  2  0
M  RAD  8   2   2   3   2   4   2   6   2   8   3  11   2  12   2  14   3
M  RAD  2  19   2  23   2
M  END
>  <REMARK>  (1) 
 SMILES CN(C)C(=O)COc1cccc(CNc2ncnc3nc[nH]c23)c1
 SMILES IDX 8 1 9 2 10 3 11 4 12 5 24 6 7 7 6 8 4 9 2 10 1 11 3 12 5 13
 SMILES IDX 13 14 14 15 15 17 16 18 23 19 17 20 22 21 19 22 18 23 21 24
 SMILES IDX 20 25
 H PARENT 14 16 22 26

>  <TORSDO>  (1) 
F 6

$$$$
