/home/pchatterjee/Documents/git/vs_workflow/DiffDock/diffdock_run/pdbqt_scrubbed/Z646130978.pdbqt
     RDKit          3D

 24 26  0  0  0  0  0  0  0  0999 V2000
    1.9057   43.9152   51.4515 C   0  0  0  0  0  0  0  0  0  0  0  0
    1.2532   45.1057   51.7725 C   0  0  0  0  0  3  0  0  0  0  0  0
    1.8521   46.1739   52.3598 C   0  0  0  0  0  3  0  0  0  0  0  0
    3.2086   46.0828   52.6654 C   0  0  0  0  0  3  0  0  0  0  0  0
    3.9051   44.9328   52.3721 C   0  0  0  0  0  0  0  0  0  0  0  0
    3.2555   43.8721   51.7751 C   0  0  0  0  0  3  0  0  0  0  0  0
    1.2463   42.8505   50.8503 O   0  0  0  0  0  0  0  0  0  0  0  0
    1.8283   41.9591   49.9334 C   0  0  0  0  0  2  0  0  0  0  0  0
    0.8584   41.0085   49.3613 C   0  0  0  0  0  0  0  0  0  0  0  0
    1.2255   39.8581   48.6074 N   0  0  0  0  0  0  0  0  0  0  0  0
    2.6340   39.5092   48.5762 C   0  0  0  0  0  1  0  0  0  0  0  0
    0.2096   39.1100   47.9263 C   0  0  0  0  0  1  0  0  0  0  0  0
   -0.3720   41.2200   49.5465 O   0  0  0  0  0  0  0  0  0  0  0  0
    5.3652   44.7791   52.6784 C   0  0  0  0  0  2  0  0  0  0  0  0
    6.1615   45.7384   51.9745 N   0  0  0  0  0  0  0  0  0  0  0  0
    7.2281   45.2493   51.1603 C   0  0  0  0  0  0  0  0  0  0  0  0
    6.9620   44.3600   50.1824 N   0  0  0  0  0  0  0  0  0  0  0  0
    8.5338   45.6574   51.3396 C   0  0  0  0  0  0  0  0  0  0  0  0
    7.9465   43.9004   49.4215 C   0  0  0  0  0  3  0  0  0  0  0  0
    9.0691   46.5076   52.2106 N   0  0  0  0  0  0  0  0  0  0  0  0
    9.5476   45.1718   50.5416 C   0  0  0  0  0  0  0  0  0  0  0  0
    9.2156   44.2881   49.5852 N   0  0  0  0  0  0  0  0  0  0  0  0
   10.3924   46.5620   51.9727 C   0  0  0  0  0  3  0  0  0  0  0  0
   10.7093   45.7375   50.9377 N   0  0  0  0  0  0  0  0  0  0  0  0
  1  2  2  0
  2  3  1  0
  4  3  2  0
  5  4  1  0
  6  1  1  0
  6  5  2  0
  7  1  1  0
  8  7  1  0
  9  8  1  0
  9 10  1  0
 10 11  1  0
 12 10  1  0
 13  9  2  0
 14  5  1  0
 14 15  1  0
 15 16  1  0
 16 18  1  0
 17 16  2  0
 17 19  1  0
 18 20  1  0
 18 21  2  0
 19 22  2  0
 20 23  1  0
 21 24  1  0
 22 21  1  0
 23 24  2  0
M  RAD  8   2   2   3   2   4   2   6   2   8   3  11   2  12   2  14   3
M  RAD  2  19   2  23   2
M  END
>  <REMARK>  (1) 
 SMILES CN(C)C(=O)COc1cccc(CNc2ncnc3nc[nH]c23)c1
 SMILES IDX 8 1 9 2 10 3 11 4 12 5 24 6 7 7 6 8 4 9 2 10 1 11 3 12 5 13
 SMILES IDX 13 14 14 15 15 17 16 18 23 19 17 20 22 21 19 22 18 23 21 24
 SMILES IDX 20 25
 H PARENT 14 16 22 26

>  <TORSDO>  (1) 
F 6

$$$$
