/home/pchatterjee/Documents/git/vs_workflow/DiffDock/diffdock_run/pdbqt_scrubbed/Z646130978.pdbqt
     RDKit          3D

 24 26  0  0  0  0  0  0  0  0999 V2000
    1.4488   42.6306   51.0059 C   0  0  0  0  0  0  0  0  0  0  0  0
    1.5942   42.4035   52.3746 C   0  0  0  0  0  3  0  0  0  0  0  0
    2.6144   42.8895   53.1282 C   0  0  0  0  0  3  0  0  0  0  0  0
    3.5846   43.6677   52.4998 C   0  0  0  0  0  3  0  0  0  0  0  0
    3.4938   43.9256   51.1512 C   0  0  0  0  0  0  0  0  0  0  0  0
    2.4397   43.4110   50.4250 C   0  0  0  0  0  3  0  0  0  0  0  0
    0.3851   42.1098   50.2798 O   0  0  0  0  0  0  0  0  0  0  0  0
    0.3226   42.0484   48.8776 C   0  0  0  0  0  2  0  0  0  0  0  0
   -0.9086   41.4060   48.3848 C   0  0  0  0  0  0  0  0  0  0  0  0
   -1.3048   41.3945   47.0174 N   0  0  0  0  0  0  0  0  0  0  0  0
   -0.6370   42.3265   46.1273 C   0  0  0  0  0  1  0  0  0  0  0  0
   -2.3243   40.4825   46.5881 C   0  0  0  0  0  1  0  0  0  0  0  0
   -1.6615   40.8299   49.2181 O   0  0  0  0  0  0  0  0  0  0  0  0
    4.5086   44.7561   50.4232 C   0  0  0  0  0  2  0  0  0  0  0  0
    5.6633   45.0146   51.2293 N   0  0  0  0  0  0  0  0  0  0  0  0
    6.9469   44.7816   50.6479 C   0  0  0  0  0  0  0  0  0  0  0  0
    7.0637   43.9104   49.6254 N   0  0  0  0  0  0  0  0  0  0  0  0
    8.0830   45.4215   51.0987 C   0  0  0  0  0  0  0  0  0  0  0  0
    8.2518   43.6878   49.0795 C   0  0  0  0  0  3  0  0  0  0  0  0
    8.2537   46.3114   52.0718 N   0  0  0  0  0  0  0  0  0  0  0  0
    9.3119   45.1810   50.5222 C   0  0  0  0  0  0  0  0  0  0  0  0
    9.3601   44.3016   49.5072 N   0  0  0  0  0  0  0  0  0  0  0  0
    9.5604   46.6299   52.1139 C   0  0  0  0  0  3  0  0  0  0  0  0
   10.2353   45.9365   51.1571 N   0  0  0  0  0  0  0  0  0  0  0  0
  1  2  2  0
  2  3  1  0
  4  3  2  0
  5  4  1  0
  6  1  1  0
  6  5  2  0
  7  1  1  0
  8  7  1  0
  9  8  1  0
  9 10  1  0
 10 11  1  0
 12 10  1  0
 13  9  2  0
 14  5  1  0
 14 15  1  0
 15 16  1  0
 16 18  1  0
 17 16  2  0
 17 19  1  0
 18 20  1  0
 18 21  2  0
 19 22  2  0
 20 23  1  0
 21 24  1  0
 22 21  1  0
 23 24  2  0
M  RAD  8   2   2   3   2   4   2   6   2   8   3  11   2  12   2  14   3
M  RAD  2  19   2  23   2
M  END
>  <REMARK>  (1) 
 SMILES CN(C)C(=O)COc1cccc(CNc2ncnc3nc[nH]c23)c1
 SMILES IDX 8 1 9 2 10 3 11 4 12 5 24 6 7 7 6 8 4 9 2 10 1 11 3 12 5 13
 SMILES IDX 13 14 14 15 15 17 16 18 23 19 17 20 22 21 19 22 18 23 21 24
 SMILES IDX 20 25
 H PARENT 14 16 22 26

>  <TORSDO>  (1) 
F 6

$$$$
