/home/pchatterjee/Documents/git/vs_workflow/DiffDock/diffdock_run/pdbqt_scrubbed/Z646130978.pdbqt
     RDKit          3D

 24 26  0  0  0  0  0  0  0  0999 V2000
    1.2322   44.1098   52.7717 C   0  0  0  0  0  0  0  0  0  0  0  0
    1.5203   44.7149   53.9952 C   0  0  0  0  0  3  0  0  0  0  0  0
    2.7137   45.2835   54.3071 C   0  0  0  0  0  3  0  0  0  0  0  0
    3.7230   45.2654   53.3464 C   0  0  0  0  0  3  0  0  0  0  0  0
    3.4968   44.6823   52.1206 C   0  0  0  0  0  0  0  0  0  0  0  0
    2.2686   44.1166   51.8474 C   0  0  0  0  0  3  0  0  0  0  0  0
   -0.0066   43.5418   52.5023 O   0  0  0  0  0  0  0  0  0  0  0  0
   -0.3060   42.7662   51.3698 C   0  0  0  0  0  2  0  0  0  0  0  0
   -1.7057   42.3061   51.3419 C   0  0  0  0  0  0  0  0  0  0  0  0
   -2.2820   41.5843   50.2586 N   0  0  0  0  0  0  0  0  0  0  0  0
   -1.4097   41.2503   49.1476 C   0  0  0  0  0  1  0  0  0  0  0  0
   -3.6693   41.2261   50.3110 C   0  0  0  0  0  1  0  0  0  0  0  0
   -2.4433   42.5635   52.3332 O   0  0  0  0  0  0  0  0  0  0  0  0
    4.5457   44.6339   51.0497 C   0  0  0  0  0  2  0  0  0  0  0  0
    5.7715   45.2384   51.4762 N   0  0  0  0  0  0  0  0  0  0  0  0
    6.9771   44.8263   50.8307 C   0  0  0  0  0  0  0  0  0  0  0  0
    6.9281   43.8685   49.8830 N   0  0  0  0  0  0  0  0  0  0  0  0
    8.2022   45.3778   51.1445 C   0  0  0  0  0  0  0  0  0  0  0  0
    8.0427   43.4796   49.2784 C   0  0  0  0  0  3  0  0  0  0  0  0
    8.5345   46.3202   52.0219 N   0  0  0  0  0  0  0  0  0  0  0  0
    9.3532   44.9644   50.5084 C   0  0  0  0  0  0  0  0  0  0  0  0
    9.2358   44.0062   49.5735 N   0  0  0  0  0  0  0  0  0  0  0  0
    9.8655   46.5023   51.9459 C   0  0  0  0  0  3  0  0  0  0  0  0
   10.3928   45.6676   51.0096 N   0  0  0  0  0  0  0  0  0  0  0  0
  1  2  2  0
  2  3  1  0
  4  3  2  0
  5  4  1  0
  6  1  1  0
  6  5  2  0
  7  1  1  0
  8  7  1  0
  9  8  1  0
  9 10  1  0
 10 11  1  0
 12 10  1  0
 13  9  2  0
 14  5  1  0
 14 15  1  0
 15 16  1  0
 16 18  1  0
 17 16  2  0
 17 19  1  0
 18 20  1  0
 18 21  2  0
 19 22  2  0
 20 23  1  0
 21 24  1  0
 22 21  1  0
 23 24  2  0
M  RAD  8   2   2   3   2   4   2   6   2   8   3  11   2  12   2  14   3
M  RAD  2  19   2  23   2
M  END
>  <REMARK>  (1) 
 SMILES CN(C)C(=O)COc1cccc(CNc2ncnc3nc[nH]c23)c1
 SMILES IDX 8 1 9 2 10 3 11 4 12 5 24 6 7 7 6 8 4 9 2 10 1 11 3 12 5 13
 SMILES IDX 13 14 14 15 15 17 16 18 23 19 17 20 22 21 19 22 18 23 21 24
 SMILES IDX 20 25
 H PARENT 14 16 22 26

>  <TORSDO>  (1) 
F 6

$$$$
