/home/pchatterjee/Documents/git/vs_workflow/DiffDock/diffdock_run/pdbqt_scrubbed/Z646130978.pdbqt
     RDKit          3D

 24 26  0  0  0  0  0  0  0  0999 V2000
    1.4862   44.1022   51.5835 C   0  0  0  0  0  0  0  0  0  0  0  0
    1.0350   45.3817   51.9082 C   0  0  0  0  0  3  0  0  0  0  0  0
    1.8300   46.3796   52.3741 C   0  0  0  0  0  3  0  0  0  0  0  0
    3.1880   46.1158   52.5418 C   0  0  0  0  0  3  0  0  0  0  0  0
    3.6907   44.8714   52.2380 C   0  0  0  0  0  0  0  0  0  0  0  0
    2.8458   43.8876   51.7673 C   0  0  0  0  0  3  0  0  0  0  0  0
    0.6305   43.1155   51.1100 O   0  0  0  0  0  0  0  0  0  0  0  0
    0.3774   42.8548   49.7528 C   0  0  0  0  0  2  0  0  0  0  0  0
   -0.5768   41.7507   49.5480 C   0  0  0  0  0  0  0  0  0  0  0  0
   -0.7060   41.0301   48.3270 N   0  0  0  0  0  0  0  0  0  0  0  0
   -1.8407   40.1332   48.2049 C   0  0  0  0  0  1  0  0  0  0  0  0
    0.2693   41.2177   47.2930 C   0  0  0  0  0  1  0  0  0  0  0  0
   -1.3272   41.4184   50.5069 O   0  0  0  0  0  0  0  0  0  0  0  0
    5.1427   44.5317   52.3989 C   0  0  0  0  0  2  0  0  0  0  0  0
    5.9915   45.5457   51.8500 N   0  0  0  0  0  0  0  0  0  0  0  0
    7.0752   45.1285   51.0185 C   0  0  0  0  0  0  0  0  0  0  0  0
    6.8232   44.3770   49.9277 N   0  0  0  0  0  0  0  0  0  0  0  0
    8.3835   45.4696   51.2932 C   0  0  0  0  0  0  0  0  0  0  0  0
    7.8235   43.9850   49.1499 C   0  0  0  0  0  3  0  0  0  0  0  0
    8.9076   46.1871   52.2824 N   0  0  0  0  0  0  0  0  0  0  0  0
    9.4139   45.0555   50.4763 C   0  0  0  0  0  0  0  0  0  0  0  0
    9.0954   44.3090   49.4053 N   0  0  0  0  0  0  0  0  0  0  0  0
   10.2401   46.2289   52.0996 C   0  0  0  0  0  3  0  0  0  0  0  0
   10.5743   45.5303   50.9807 N   0  0  0  0  0  0  0  0  0  0  0  0
  1  2  2  0
  2  3  1  0
  4  3  2  0
  5  4  1  0
  6  1  1  0
  6  5  2  0
  7  1  1  0
  8  7  1  0
  9  8  1  0
  9 10  1  0
 10 11  1  0
 12 10  1  0
 13  9  2  0
 14  5  1  0
 14 15  1  0
 15 16  1  0
 16 18  1  0
 17 16  2  0
 17 19  1  0
 18 20  1  0
 18 21  2  0
 19 22  2  0
 20 23  1  0
 21 24  1  0
 22 21  1  0
 23 24  2  0
M  RAD  8   2   2   3   2   4   2   6   2   8   3  11   2  12   2  14   3
M  RAD  2  19   2  23   2
M  END
>  <REMARK>  (1) 
 SMILES CN(C)C(=O)COc1cccc(CNc2ncnc3nc[nH]c23)c1
 SMILES IDX 8 1 9 2 10 3 11 4 12 5 24 6 7 7 6 8 4 9 2 10 1 11 3 12 5 13
 SMILES IDX 13 14 14 15 15 17 16 18 23 19 17 20 22 21 19 22 18 23 21 24
 SMILES IDX 20 25
 H PARENT 14 16 22 26

>  <TORSDO>  (1) 
F 6

$$$$
