/home/pchatterjee/Documents/git/vs_workflow/DiffDock/diffdock_run/pdbqt_scrubbed/Z646130978.pdbqt
     RDKit          3D

 24 26  0  0  0  0  0  0  0  0999 V2000
    4.7487   48.2938   55.0066 C   0  0  0  0  0  0  0  0  0  0  0  0
    3.5694   47.5723   55.1933 C   0  0  0  0  0  3  0  0  0  0  0  0
    3.1942   46.5078   54.4378 C   0  0  0  0  0  3  0  0  0  0  0  0
    4.0378   46.1029   53.4052 C   0  0  0  0  0  3  0  0  0  0  0  0
    5.2151   46.7766   53.1733 C   0  0  0  0  0  0  0  0  0  0  0  0
    5.5560   47.8528   53.9663 C   0  0  0  0  0  3  0  0  0  0  0  0
    5.0866   49.3767   55.8083 O   0  0  0  0  0  0  0  0  0  0  0  0
    4.9694   50.7246   55.4296 C   0  0  0  0  0  2  0  0  0  0  0  0
    5.5556   51.6513   56.4141 C   0  0  0  0  0  0  0  0  0  0  0  0
    5.1500   53.0073   56.5667 N   0  0  0  0  0  0  0  0  0  0  0  0
    4.5990   53.6686   55.3980 C   0  0  0  0  0  1  0  0  0  0  0  0
    5.3003   53.6473   57.8408 C   0  0  0  0  0  1  0  0  0  0  0  0
    6.4719   51.2248   57.1702 O   0  0  0  0  0  0  0  0  0  0  0  0
    6.1607   46.3851   52.0769 C   0  0  0  0  0  2  0  0  0  0  0  0
    6.5030   44.9962   52.1386 N   0  0  0  0  0  0  0  0  0  0  0  0
    7.3576   44.4752   51.1197 C   0  0  0  0  0  0  0  0  0  0  0  0
    8.6359   44.8976   51.0461 N   0  0  0  0  0  0  0  0  0  0  0  0
    6.9186   43.5463   50.1989 C   0  0  0  0  0  0  0  0  0  0  0  0
    9.4366   44.4191   50.1031 C   0  0  0  0  0  3  0  0  0  0  0  0
    5.7314   42.9680   50.0427 N   0  0  0  0  0  0  0  0  0  0  0  0
    7.7613   43.0571   49.2238 C   0  0  0  0  0  0  0  0  0  0  0  0
    9.0232   43.5188   49.2051 N   0  0  0  0  0  0  0  0  0  0  0  0
    5.8165   42.1304   48.9930 C   0  0  0  0  0  3  0  0  0  0  0  0
    7.0720   42.1720   48.4701 N   0  0  0  0  0  0  0  0  0  0  0  0
  1  2  2  0
  2  3  1  0
  4  3  2  0
  5  4  1  0
  6  1  1  0
  6  5  2  0
  7  1  1  0
  8  7  1  0
  9  8  1  0
  9 10  1  0
 10 11  1  0
 12 10  1  0
 13  9  2  0
 14  5  1  0
 14 15  1  0
 15 16  1  0
 16 18  1  0
 17 16  2  0
 17 19  1  0
 18 20  1  0
 18 21  2  0
 19 22  2  0
 20 23  1  0
 21 24  1  0
 22 21  1  0
 23 24  2  0
M  RAD  8   2   2   3   2   4   2   6   2   8   3  11   2  12   2  14   3
M  RAD  2  19   2  23   2
M  END
>  <REMARK>  (1) 
 SMILES CN(C)C(=O)COc1cccc(CNc2ncnc3nc[nH]c23)c1
 SMILES IDX 8 1 9 2 10 3 11 4 12 5 24 6 7 7 6 8 4 9 2 10 1 11 3 12 5 13
 SMILES IDX 13 14 14 15 15 17 16 18 23 19 17 20 22 21 19 22 18 23 21 24
 SMILES IDX 20 25
 H PARENT 14 16 22 26

>  <TORSDO>  (1) 
F 6

$$$$
