/home/pchatterjee/Documents/git/vs_workflow/DiffDock/diffdock_run/pdbqt_scrubbed/Z4521998795.pdbqt
     RDKit          3D

 24 27  0  0  1  0  0  0  0  0999 V2000
    7.6266   44.1205   49.7690 C   0  0  0  0  0  0  0  0  0  0  0  0
    8.5739   43.3265   50.0087 O   0  0  0  0  0  0  0  0  0  0  0  0
    7.8492   45.5259   49.8081 N   0  0  0  0  0  0  0  0  0  0  0  0
    6.3044   43.5191   49.4528 C   0  0  0  0  0  3  0  0  0  0  0  0
    6.4361   42.2239   48.5910 C   0  0  0  0  0  3  0  0  0  0  0  0
    5.8889   42.2130   49.9941 C   0  0  0  0  0  3  0  0  0  0  0  0
    5.4660   42.2947   47.4181 C   0  0  0  0  0  1  0  0  0  0  0  0
    4.4040   41.9742   50.0496 C   0  0  0  0  0  0  0  0  0  0  0  0
    3.5464   42.8987   50.6065 C   0  0  0  0  0  3  0  0  0  0  0  0
    3.9754   40.7759   49.5076 C   0  0  0  0  0  3  0  0  0  0  0  0
    2.2026   42.6258   50.6286 C   0  0  0  0  0  3  0  0  0  0  0  0
    2.6085   40.5397   49.5506 C   0  0  0  0  0  3  0  0  0  0  0  0
    1.7374   41.4536   50.1038 C   0  0  0  0  0  3  0  0  0  0  0  0
    8.4554   46.0711   50.9606 C   0  0  0  0  0  0  0  0  0  0  0  0
    9.8508   46.1038   50.9791 C   0  0  0  0  0  3  0  0  0  0  0  0
    7.7581   46.5620   52.0443 C   0  0  0  0  0  0  0  0  0  0  0  0
   10.5093   46.6235   52.0747 C   0  0  0  0  0  3  0  0  0  0  0  0
    6.4129   46.5271   52.0189 N   0  0  0  0  0  0  0  0  0  0  0  0
    8.4608   47.0757   53.1252 C   0  0  0  0  0  0  0  0  0  0  0  0
    9.8362   47.1198   53.1693 C   0  0  0  0  0  3  0  0  0  0  0  0
    5.7787   47.0201   53.1050 C   0  0  0  0  0  3  0  0  0  0  0  0
    7.7809   47.5747   54.2257 C   0  0  0  0  0  0  0  0  0  0  0  0
    6.4222   47.5255   54.1701 N   0  0  0  0  0  0  0  0  0  0  0  0
    8.3923   48.0448   55.2162 O   0  0  0  0  0  0  0  0  0  0  0  0
  1  3  1  0
  2  1  2  0
  4  1  1  0
  4  5  1  0
  4  6  1  0
  5  6  1  0
  5  7  1  0
  6  8  1  0
  8 10  2  0
  9 11  2  0
  9  8  1  0
 10 12  1  0
 11 13  1  0
 13 12  2  0
 14  3  1  0
 14 15  2  0
 16 14  1  0
 17 15  1  0
 18 16  1  0
 19 16  2  0
 19 20  1  0
 20 17  2  0
 21 18  1  0
 22 19  1  0
 23 21  2  0
 23 22  1  0
 24 22  2  0
M  RAD  8   4   2   5   2   6   2   7   2   9   2  10   2  11   2  12   2
M  RAD  5  13   2  15   2  17   2  20   2  21   2
M  END
>  <REMARK>  (1) 
 SMILES CC1C(C(=O)Nc2cccc3c(=O)nc[nH]c23)C1c1ccccc1
 SMILES IDX 4 1 5 2 6 3 3 5 2 6 18 7 1 8 19 9 20 10 24 11 21 12 23 13
 SMILES IDX 22 14 7 15 8 16 17 17 9 18 16 19 11 20 10 21 15 22 12 23
 SMILES IDX 14 24 13 26
 H PARENT 6 4 16 25

>  <TORSDO>  (1) 
F 3

$$$$
