/home/pchatterjee/Documents/git/vs_workflow/DiffDock/diffdock_run/pdbqt_scrubbed/Z4521998795.pdbqt
     RDKit          3D

 24 27  0  0  1  0  0  0  0  0999 V2000
    5.9604   47.0172   54.0424 C   0  0  0  0  0  0  0  0  0  0  0  0
    6.5914   47.0651   55.1309 O   0  0  0  0  0  0  0  0  0  0  0  0
    6.4624   47.6998   52.8986 N   0  0  0  0  0  0  0  0  0  0  0  0
    4.6999   46.2295   54.0262 C   0  0  0  0  0  3  0  0  0  0  0  0
    4.4968   45.4136   55.3419 C   0  0  0  0  0  3  0  0  0  0  0  0
    3.5759   46.5320   54.9300 C   0  0  0  0  0  3  0  0  0  0  0  0
    4.1203   43.9784   54.9952 C   0  0  0  0  0  1  0  0  0  0  0  0
    2.2255   46.0501   54.4729 C   0  0  0  0  0  0  0  0  0  0  0  0
    1.3155   45.5122   55.3577 C   0  0  0  0  0  3  0  0  0  0  0  0
    1.9738   46.1869   53.1196 C   0  0  0  0  0  3  0  0  0  0  0  0
    0.1003   45.0900   54.8826 C   0  0  0  0  0  3  0  0  0  0  0  0
    0.7327   45.7473   52.6811 C   0  0  0  0  0  3  0  0  0  0  0  0
   -0.1885   45.2071   53.5527 C   0  0  0  0  0  3  0  0  0  0  0  0
    7.6273   47.1950   52.2812 C   0  0  0  0  0  0  0  0  0  0  0  0
    8.8343   47.8056   52.6258 C   0  0  0  0  0  3  0  0  0  0  0  0
    7.6358   46.1544   51.3764 C   0  0  0  0  0  0  0  0  0  0  0  0
   10.0122   47.3624   52.0600 C   0  0  0  0  0  3  0  0  0  0  0  0
    6.4680   45.5708   51.0492 N   0  0  0  0  0  0  0  0  0  0  0  0
    8.8435   45.7409   50.8317 C   0  0  0  0  0  0  0  0  0  0  0  0
   10.0477   46.3254   51.1541 C   0  0  0  0  0  3  0  0  0  0  0  0
    6.5321   44.5568   50.1590 C   0  0  0  0  0  3  0  0  0  0  0  0
    8.8764   44.6967   49.9201 C   0  0  0  0  0  0  0  0  0  0  0  0
    7.6801   44.1275   49.6097 N   0  0  0  0  0  0  0  0  0  0  0  0
    9.9551   44.3033   49.4127 O   0  0  0  0  0  0  0  0  0  0  0  0
  1  3  1  0
  2  1  2  0
  4  1  1  0
  4  5  1  0
  4  6  1  0
  5  6  1  0
  5  7  1  0
  6  8  1  0
  8 10  2  0
  9 11  2  0
  9  8  1  0
 10 12  1  0
 11 13  1  0
 13 12  2  0
 14  3  1  0
 14 15  2  0
 16 14  1  0
 17 15  1  0
 18 16  1  0
 19 16  2  0
 19 20  1  0
 20 17  2  0
 21 18  1  0
 22 19  1  0
 23 21  2  0
 23 22  1  0
 24 22  2  0
M  RAD  8   4   2   5   2   6   2   7   2   9   2  10   2  11   2  12   2
M  RAD  5  13   2  15   2  17   2  20   2  21   2
M  END
>  <REMARK>  (1) 
 SMILES CC1C(C(=O)Nc2cccc3c(=O)nc[nH]c23)C1c1ccccc1
 SMILES IDX 4 1 5 2 6 3 3 5 2 6 18 7 1 8 19 9 20 10 24 11 21 12 23 13
 SMILES IDX 22 14 7 15 8 16 17 17 9 18 16 19 11 20 10 21 15 22 12 23
 SMILES IDX 14 24 13 26
 H PARENT 6 4 16 25

>  <TORSDO>  (1) 
F 3

$$$$
