/home/pchatterjee/Documents/git/vs_workflow/DiffDock/diffdock_run/pdbqt_scrubbed/Z4521998795.pdbqt
     RDKit          3D

 24 27  0  0  1  0  0  0  0  0999 V2000
    7.7633   44.2590   49.7236 C   0  0  0  0  0  0  0  0  0  0  0  0
    8.7309   43.4713   49.8929 O   0  0  0  0  0  0  0  0  0  0  0  0
    7.9605   45.6637   49.8421 N   0  0  0  0  0  0  0  0  0  0  0  0
    6.4453   43.6511   49.4026 C   0  0  0  0  0  3  0  0  0  0  0  0
    6.5880   42.3386   48.5689 C   0  0  0  0  0  3  0  0  0  0  0  0
    6.0227   42.3560   49.9648 C   0  0  0  0  0  3  0  0  0  0  0  0
    5.6331   42.3856   47.3825 C   0  0  0  0  0  1  0  0  0  0  0  0
    4.5372   42.1182   50.0059 C   0  0  0  0  0  0  0  0  0  0  0  0
    3.6650   43.0870   50.4541 C   0  0  0  0  0  3  0  0  0  0  0  0
    4.1235   40.8735   49.5666 C   0  0  0  0  0  3  0  0  0  0  0  0
    2.3214   42.8126   50.4686 C   0  0  0  0  0  3  0  0  0  0  0  0
    2.7563   40.6375   49.5979 C   0  0  0  0  0  3  0  0  0  0  0  0
    1.8708   41.5954   50.0431 C   0  0  0  0  0  3  0  0  0  0  0  0
    8.4373   46.1666   51.0721 C   0  0  0  0  0  0  0  0  0  0  0  0
    9.8227   46.2539   51.2189 C   0  0  0  0  0  3  0  0  0  0  0  0
    7.6256   46.5672   52.1124 C   0  0  0  0  0  0  0  0  0  0  0  0
   10.3577   46.7367   52.3956 C   0  0  0  0  0  3  0  0  0  0  0  0
    6.2908   46.4800   51.9631 N   0  0  0  0  0  0  0  0  0  0  0  0
    8.2062   47.0465   53.2782 C   0  0  0  0  0  0  0  0  0  0  0  0
    9.5690   47.1430   53.4492 C   0  0  0  0  0  3  0  0  0  0  0  0
    5.5416   46.8851   53.0117 C   0  0  0  0  0  3  0  0  0  0  0  0
    7.4099   47.4549   54.3372 C   0  0  0  0  0  0  0  0  0  0  0  0
    6.0651   47.3547   54.1560 N   0  0  0  0  0  0  0  0  0  0  0  0
    7.9097   47.8923   55.4025 O   0  0  0  0  0  0  0  0  0  0  0  0
  1  3  1  0
  2  1  2  0
  4  1  1  0
  4  5  1  0
  4  6  1  0
  5  6  1  0
  5  7  1  0
  6  8  1  0
  8 10  2  0
  9 11  2  0
  9  8  1  0
 10 12  1  0
 11 13  1  0
 13 12  2  0
 14  3  1  0
 14 15  2  0
 16 14  1  0
 17 15  1  0
 18 16  1  0
 19 16  2  0
 19 20  1  0
 20 17  2  0
 21 18  1  0
 22 19  1  0
 23 21  2  0
 23 22  1  0
 24 22  2  0
M  RAD  8   4   2   5   2   6   2   7   2   9   2  10   2  11   2  12   2
M  RAD  5  13   2  15   2  17   2  20   2  21   2
M  END
>  <REMARK>  (1) 
 SMILES CC1C(C(=O)Nc2cccc3c(=O)nc[nH]c23)C1c1ccccc1
 SMILES IDX 4 1 5 2 6 3 3 5 2 6 18 7 1 8 19 9 20 10 24 11 21 12 23 13
 SMILES IDX 22 14 7 15 8 16 17 17 9 18 16 19 11 20 10 21 15 22 12 23
 SMILES IDX 14 24 13 26
 H PARENT 6 4 16 25

>  <TORSDO>  (1) 
F 3

$$$$
