/home/pchatterjee/Documents/git/vs_workflow/DiffDock/diffdock_run/pdbqt_scrubbed/Z4521998795.pdbqt
     RDKit          3D

 24 27  0  0  1  0  0  0  0  0999 V2000
    5.5202   46.8838   53.8071 C   0  0  0  0  0  0  0  0  0  0  0  0
    5.3006   48.0824   53.4903 O   0  0  0  0  0  0  0  0  0  0  0  0
    6.8107   46.4937   54.2640 N   0  0  0  0  0  0  0  0  0  0  0  0
    4.3854   45.9322   53.6786 C   0  0  0  0  0  3  0  0  0  0  0  0
    3.1896   46.3107   54.6083 C   0  0  0  0  0  3  0  0  0  0  0  0
    3.0882   46.3334   53.1058 C   0  0  0  0  0  3  0  0  0  0  0  0
    2.7231   45.0723   55.3636 C   0  0  0  0  0  1  0  0  0  0  0  0
    2.2479   45.2148   52.5513 C   0  0  0  0  0  0  0  0  0  0  0  0
    2.8010   43.9981   52.2134 C   0  0  0  0  0  3  0  0  0  0  0  0
    0.9014   45.4984   52.4100 C   0  0  0  0  0  3  0  0  0  0  0  0
    1.9849   43.0162   51.7126 C   0  0  0  0  0  3  0  0  0  0  0  0
    0.1119   44.4775   51.8998 C   0  0  0  0  0  3  0  0  0  0  0  0
    0.6491   43.2552   51.5571 C   0  0  0  0  0  3  0  0  0  0  0  0
    7.8467   46.3796   53.3118 C   0  0  0  0  0  0  0  0  0  0  0  0
    8.9689   47.1865   53.5067 C   0  0  0  0  0  3  0  0  0  0  0  0
    7.8096   45.5326   52.2242 C   0  0  0  0  0  0  0  0  0  0  0  0
   10.0194   47.1259   52.6140 C   0  0  0  0  0  3  0  0  0  0  0  0
    6.7240   44.7579   52.0432 N   0  0  0  0  0  0  0  0  0  0  0  0
    8.8883   45.5039   51.3516 C   0  0  0  0  0  0  0  0  0  0  0  0
   10.0069   46.2887   51.5202 C   0  0  0  0  0  3  0  0  0  0  0  0
    6.7385   43.9468   50.9630 C   0  0  0  0  0  3  0  0  0  0  0  0
    8.8731   44.6602   50.2513 C   0  0  0  0  0  0  0  0  0  0  0  0
    7.7624   43.8899   50.0957 N   0  0  0  0  0  0  0  0  0  0  0  0
    9.8357   44.6150   49.4467 O   0  0  0  0  0  0  0  0  0  0  0  0
  1  3  1  0
  2  1  2  0
  4  1  1  0
  4  5  1  0
  4  6  1  0
  5  6  1  0
  5  7  1  0
  6  8  1  0
  8 10  2  0
  9 11  2  0
  9  8  1  0
 10 12  1  0
 11 13  1  0
 13 12  2  0
 14  3  1  0
 14 15  2  0
 16 14  1  0
 17 15  1  0
 18 16  1  0
 19 16  2  0
 19 20  1  0
 20 17  2  0
 21 18  1  0
 22 19  1  0
 23 21  2  0
 23 22  1  0
 24 22  2  0
M  RAD  8   4   2   5   2   6   2   7   2   9   2  10   2  11   2  12   2
M  RAD  5  13   2  15   2  17   2  20   2  21   2
M  END
>  <REMARK>  (1) 
 SMILES CC1C(C(=O)Nc2cccc3c(=O)nc[nH]c23)C1c1ccccc1
 SMILES IDX 4 1 5 2 6 3 3 5 2 6 18 7 1 8 19 9 20 10 24 11 21 12 23 13
 SMILES IDX 22 14 7 15 8 16 17 17 9 18 16 19 11 20 10 21 15 22 12 23
 SMILES IDX 14 24 13 26
 H PARENT 6 4 16 25

>  <TORSDO>  (1) 
F 3

$$$$
