/home/pchatterjee/Documents/git/vs_workflow/DiffDock/diffdock_run/pdbqt_scrubbed/Z4521998795.pdbqt
     RDKit          3D

 24 27  0  0  1  0  0  0  0  0999 V2000
   11.5152   86.2391   70.1468 C   0  0  0  0  0  0  0  0  0  0  0  0
   10.3604   86.0347   69.6884 O   0  0  0  0  0  0  0  0  0  0  0  0
   12.1180   87.5214   70.0103 N   0  0  0  0  0  0  0  0  0  0  0  0
   12.1881   85.0958   70.8175 C   0  0  0  0  0  3  0  0  0  0  0  0
   11.4596   83.7415   70.5477 C   0  0  0  0  0  3  0  0  0  0  0  0
   12.8551   84.0243   70.0568 C   0  0  0  0  0  3  0  0  0  0  0  0
   11.2742   82.9950   71.8630 C   0  0  0  0  0  1  0  0  0  0  0  0
   13.9131   83.2578   70.8038 C   0  0  0  0  0  0  0  0  0  0  0  0
   14.4360   83.7231   71.9913 C   0  0  0  0  0  3  0  0  0  0  0  0
   14.3123   82.0711   70.2156 C   0  0  0  0  0  3  0  0  0  0  0  0
   15.3982   82.9808   72.6270 C   0  0  0  0  0  3  0  0  0  0  0  0
   15.2875   81.3514   70.8916 C   0  0  0  0  0  3  0  0  0  0  0  0
   15.8207   81.8027   72.0799 C   0  0  0  0  0  3  0  0  0  0  0  0
   11.4959   88.4614   69.1603 C   0  0  0  0  0  0  0  0  0  0  0  0
   11.6702   88.2770   67.7876 C   0  0  0  0  0  3  0  0  0  0  0  0
   10.7425   89.5277   69.6040 C   0  0  0  0  0  0  0  0  0  0  0  0
   11.0897   89.1587   66.8990 C   0  0  0  0  0  3  0  0  0  0  0  0
   10.5792   89.6988   70.9289 N   0  0  0  0  0  0  0  0  0  0  0  0
   10.1770   90.3900   68.6751 C   0  0  0  0  0  0  0  0  0  0  0  0
   10.3329   90.2312   67.3165 C   0  0  0  0  0  3  0  0  0  0  0  0
    9.8327   90.7582   71.3101 C   0  0  0  0  0  3  0  0  0  0  0  0
    9.4156   91.4688   69.0981 C   0  0  0  0  0  0  0  0  0  0  0  0
    9.2689   91.6149   70.4429 N   0  0  0  0  0  0  0  0  0  0  0  0
    8.8930   92.2636   68.2788 O   0  0  0  0  0  0  0  0  0  0  0  0
  1  3  1  0
  2  1  2  0
  4  1  1  0
  4  5  1  0
  4  6  1  0
  5  6  1  0
  5  7  1  0
  6  8  1  0
  8 10  2  0
  9 11  2  0
  9  8  1  0
 10 12  1  0
 11 13  1  0
 13 12  2  0
 14  3  1  0
 14 15  2  0
 16 14  1  0
 17 15  1  0
 18 16  1  0
 19 16  2  0
 19 20  1  0
 20 17  2  0
 21 18  1  0
 22 19  1  0
 23 21  2  0
 23 22  1  0
 24 22  2  0
M  RAD  8   4   2   5   2   6   2   7   2   9   2  10   2  11   2  12   2
M  RAD  5  13   2  15   2  17   2  20   2  21   2
M  END
>  <REMARK>  (1) 
 SMILES CC1C(C(=O)Nc2cccc3c(=O)nc[nH]c23)C1c1ccccc1
 SMILES IDX 4 1 5 2 6 3 3 5 2 6 18 7 1 8 19 9 20 10 24 11 21 12 23 13
 SMILES IDX 22 14 7 15 8 16 17 17 9 18 16 19 11 20 10 21 15 22 12 23
 SMILES IDX 14 24 13 26
 H PARENT 6 4 16 25

>  <TORSDO>  (1) 
F 3

$$$$
