/home/pchatterjee/Documents/git/vs_workflow/DiffDock/diffdock_run/pdbqt_scrubbed/Z4521998795.pdbqt
     RDKit          3D

 24 27  0  0  1  0  0  0  0  0999 V2000
    7.4849   43.9786   49.6857 C   0  0  0  0  0  0  0  0  0  0  0  0
    8.5919   43.4912   50.0354 O   0  0  0  0  0  0  0  0  0  0  0  0
    7.1765   45.3344   49.9904 N   0  0  0  0  0  0  0  0  0  0  0  0
    6.5505   43.0799   48.9585 C   0  0  0  0  0  3  0  0  0  0  0  0
    6.3652   41.7096   49.6836 C   0  0  0  0  0  3  0  0  0  0  0  0
    5.2406   42.6970   49.5146 C   0  0  0  0  0  3  0  0  0  0  0  0
    6.5153   40.5779   48.6745 C   0  0  0  0  0  1  0  0  0  0  0  0
    4.2107   42.2562   48.5096 C   0  0  0  0  0  0  0  0  0  0  0  0
    2.8662   42.4863   48.7083 C   0  0  0  0  0  3  0  0  0  0  0  0
    4.7105   41.6138   47.3911 C   0  0  0  0  0  3  0  0  0  0  0  0
    1.9742   42.0615   47.7571 C   0  0  0  0  0  3  0  0  0  0  0  0
    3.7740   41.2006   46.4539 C   0  0  0  0  0  3  0  0  0  0  0  0
    2.4261   41.4228   46.6374 C   0  0  0  0  0  3  0  0  0  0  0  0
    7.9111   45.9692   51.0154 C   0  0  0  0  0  0  0  0  0  0  0  0
    9.3014   45.9546   50.8915 C   0  0  0  0  0  3  0  0  0  0  0  0
    7.3410   46.5887   52.1075 C   0  0  0  0  0  0  0  0  0  0  0  0
   10.0814   46.5565   51.8576 C   0  0  0  0  0  3  0  0  0  0  0  0
    5.9998   46.5986   52.2198 N   0  0  0  0  0  0  0  0  0  0  0  0
    8.1634   47.1816   53.0552 C   0  0  0  0  0  0  0  0  0  0  0  0
    9.5368   47.1817   52.9575 C   0  0  0  0  0  3  0  0  0  0  0  0
    5.4929   47.2183   53.3078 C   0  0  0  0  0  3  0  0  0  0  0  0
    7.6125   47.8102   54.1615 C   0  0  0  0  0  0  0  0  0  0  0  0
    6.2546   47.8034   54.2466 N   0  0  0  0  0  0  0  0  0  0  0  0
    8.3339   48.3541   55.0332 O   0  0  0  0  0  0  0  0  0  0  0  0
  1  3  1  0
  2  1  2  0
  4  1  1  0
  4  5  1  0
  4  6  1  0
  5  6  1  0
  5  7  1  0
  6  8  1  0
  8 10  2  0
  9 11  2  0
  9  8  1  0
 10 12  1  0
 11 13  1  0
 13 12  2  0
 14  3  1  0
 14 15  2  0
 16 14  1  0
 17 15  1  0
 18 16  1  0
 19 16  2  0
 19 20  1  0
 20 17  2  0
 21 18  1  0
 22 19  1  0
 23 21  2  0
 23 22  1  0
 24 22  2  0
M  RAD  8   4   2   5   2   6   2   7   2   9   2  10   2  11   2  12   2
M  RAD  5  13   2  15   2  17   2  20   2  21   2
M  END
>  <REMARK>  (1) 
 SMILES CC1C(C(=O)Nc2cccc3c(=O)nc[nH]c23)C1c1ccccc1
 SMILES IDX 4 1 5 2 6 3 3 5 2 6 18 7 1 8 19 9 20 10 24 11 21 12 23 13
 SMILES IDX 22 14 7 15 8 16 17 17 9 18 16 19 11 20 10 21 15 22 12 23
 SMILES IDX 14 24 13 26
 H PARENT 6 4 16 25

>  <TORSDO>  (1) 
F 3

$$$$
