/home/pchatterjee/Documents/git/vs_workflow/DiffDock/diffdock_run/pdbqt_scrubbed/Z4521998795.pdbqt
     RDKit          3D

 24 27  0  0  1  0  0  0  0  0999 V2000
    5.4645   46.8394   53.6337 C   0  0  0  0  0  0  0  0  0  0  0  0
    5.2880   48.0302   53.2647 O   0  0  0  0  0  0  0  0  0  0  0  0
    6.7438   46.4202   54.0961 N   0  0  0  0  0  0  0  0  0  0  0  0
    4.2925   45.9281   53.5589 C   0  0  0  0  0  3  0  0  0  0  0  0
    3.2148   46.2629   54.6379 C   0  0  0  0  0  3  0  0  0  0  0  0
    2.9554   46.4032   53.1610 C   0  0  0  0  0  3  0  0  0  0  0  0
    2.7914   44.9819   55.3459 C   0  0  0  0  0  1  0  0  0  0  0  0
    2.0255   45.3511   52.6197 C   0  0  0  0  0  0  0  0  0  0  0  0
    2.4746   44.0866   52.3040 C   0  0  0  0  0  3  0  0  0  0  0  0
    0.7084   45.7455   52.4668 C   0  0  0  0  0  3  0  0  0  0  0  0
    1.5802   43.1695   51.8144 C   0  0  0  0  0  3  0  0  0  0  0  0
   -0.1629   44.7870   51.9686 C   0  0  0  0  0  3  0  0  0  0  0  0
    0.2701   43.5182   51.6480 C   0  0  0  0  0  3  0  0  0  0  0  0
    7.7855   46.2990   53.1509 C   0  0  0  0  0  0  0  0  0  0  0  0
    8.9027   47.1140   53.3413 C   0  0  0  0  0  3  0  0  0  0  0  0
    7.7585   45.4379   52.0742 C   0  0  0  0  0  0  0  0  0  0  0  0
    9.9582   47.0473   52.4550 C   0  0  0  0  0  3  0  0  0  0  0  0
    6.6778   44.6554   51.8974 N   0  0  0  0  0  0  0  0  0  0  0  0
    8.8420   45.4034   51.2077 C   0  0  0  0  0  0  0  0  0  0  0  0
    9.9557   46.1960   51.3722 C   0  0  0  0  0  3  0  0  0  0  0  0
    6.7021   43.8306   50.8279 C   0  0  0  0  0  3  0  0  0  0  0  0
    8.8370   44.5456   50.1184 C   0  0  0  0  0  0  0  0  0  0  0  0
    7.7309   43.7677   49.9668 N   0  0  0  0  0  0  0  0  0  0  0  0
    9.8040   44.4948   49.3195 O   0  0  0  0  0  0  0  0  0  0  0  0
  1  3  1  0
  2  1  2  0
  4  1  1  0
  4  5  1  0
  4  6  1  0
  5  6  1  0
  5  7  1  0
  6  8  1  0
  8 10  2  0
  9 11  2  0
  9  8  1  0
 10 12  1  0
 11 13  1  0
 13 12  2  0
 14  3  1  0
 14 15  2  0
 16 14  1  0
 17 15  1  0
 18 16  1  0
 19 16  2  0
 19 20  1  0
 20 17  2  0
 21 18  1  0
 22 19  1  0
 23 21  2  0
 23 22  1  0
 24 22  2  0
M  RAD  8   4   2   5   2   6   2   7   2   9   2  10   2  11   2  12   2
M  RAD  5  13   2  15   2  17   2  20   2  21   2
M  END
>  <REMARK>  (1) 
 SMILES CC1C(C(=O)Nc2cccc3c(=O)nc[nH]c23)C1c1ccccc1
 SMILES IDX 4 1 5 2 6 3 3 5 2 6 18 7 1 8 19 9 20 10 24 11 21 12 23 13
 SMILES IDX 22 14 7 15 8 16 17 17 9 18 16 19 11 20 10 21 15 22 12 23
 SMILES IDX 14 24 13 26
 H PARENT 6 4 16 25

>  <TORSDO>  (1) 
F 3

$$$$
