/home/pchatterjee/Documents/git/vs_workflow/DiffDock/diffdock_run/pdbqt_scrubbed/Z4521998795.pdbqt
     RDKit          3D

 24 27  0  0  1  0  0  0  0  0999 V2000
    6.1729   47.0792   54.0889 C   0  0  0  0  0  0  0  0  0  0  0  0
    6.7021   47.1429   55.2297 O   0  0  0  0  0  0  0  0  0  0  0  0
    6.7731   47.7528   52.9878 N   0  0  0  0  0  0  0  0  0  0  0  0
    4.9235   46.2831   53.9671 C   0  0  0  0  0  3  0  0  0  0  0  0
    4.5425   45.5743   55.3051 C   0  0  0  0  0  3  0  0  0  0  0  0
    3.6891   46.6488   54.6841 C   0  0  0  0  0  3  0  0  0  0  0  0
    4.2114   44.1131   55.0281 C   0  0  0  0  0  1  0  0  0  0  0  0
    2.4110   46.1213   54.0900 C   0  0  0  0  0  0  0  0  0  0  0  0
    1.8046   44.9845   54.5800 C   0  0  0  0  0  3  0  0  0  0  0  0
    1.9018   46.8538   53.0327 C   0  0  0  0  0  3  0  0  0  0  0  0
    0.6408   44.5516   53.9978 C   0  0  0  0  0  3  0  0  0  0  0  0
    0.7231   46.3810   52.4730 C   0  0  0  0  0  3  0  0  0  0  0  0
    0.1042   45.2460   52.9511 C   0  0  0  0  0  3  0  0  0  0  0  0
    7.8818   47.1444   52.3605 C   0  0  0  0  0  0  0  0  0  0  0  0
    9.1335   47.7065   52.6168 C   0  0  0  0  0  3  0  0  0  0  0  0
    7.7957   46.0492   51.5269 C   0  0  0  0  0  0  0  0  0  0  0  0
   10.2607   47.1620   52.0362 C   0  0  0  0  0  3  0  0  0  0  0  0
    6.5853   45.5130   51.2847 N   0  0  0  0  0  0  0  0  0  0  0  0
    8.9551   45.5340   50.9643 C   0  0  0  0  0  0  0  0  0  0  0  0
   10.2017   46.0688   51.2003 C   0  0  0  0  0  3  0  0  0  0  0  0
    6.5567   44.4421   50.4617 C   0  0  0  0  0  3  0  0  0  0  0  0
    8.8929   44.4335   50.1232 C   0  0  0  0  0  0  0  0  0  0  0  0
    7.6555   43.9142   49.8979 N   0  0  0  0  0  0  0  0  0  0  0  0
    9.9263   43.9480   49.6014 O   0  0  0  0  0  0  0  0  0  0  0  0
  1  3  1  0
  2  1  2  0
  4  1  1  0
  4  5  1  0
  4  6  1  0
  5  6  1  0
  5  7  1  0
  6  8  1  0
  8 10  2  0
  9 11  2  0
  9  8  1  0
 10 12  1  0
 11 13  1  0
 13 12  2  0
 14  3  1  0
 14 15  2  0
 16 14  1  0
 17 15  1  0
 18 16  1  0
 19 16  2  0
 19 20  1  0
 20 17  2  0
 21 18  1  0
 22 19  1  0
 23 21  2  0
 23 22  1  0
 24 22  2  0
M  RAD  8   4   2   5   2   6   2   7   2   9   2  10   2  11   2  12   2
M  RAD  5  13   2  15   2  17   2  20   2  21   2
M  END
>  <REMARK>  (1) 
 SMILES CC1C(C(=O)Nc2cccc3c(=O)nc[nH]c23)C1c1ccccc1
 SMILES IDX 4 1 5 2 6 3 3 5 2 6 18 7 1 8 19 9 20 10 24 11 21 12 23 13
 SMILES IDX 22 14 7 15 8 16 17 17 9 18 16 19 11 20 10 21 15 22 12 23
 SMILES IDX 14 24 13 26
 H PARENT 6 4 16 25

>  <TORSDO>  (1) 
F 3

$$$$
