/home/pchatterjee/Documents/git/vs_workflow/DiffDock/diffdock_run/pdbqt_scrubbed/Z4521998795.pdbqt
     RDKit          3D

 24 27  0  0  1  0  0  0  0  0999 V2000
    7.6292   44.0186   49.7078 C   0  0  0  0  0  0  0  0  0  0  0  0
    8.5955   43.2497   49.9535 O   0  0  0  0  0  0  0  0  0  0  0  0
    7.8068   45.4292   49.7778 N   0  0  0  0  0  0  0  0  0  0  0  0
    6.3335   43.3828   49.3516 C   0  0  0  0  0  3  0  0  0  0  0  0
    6.5145   42.1878   48.3631 C   0  0  0  0  0  3  0  0  0  0  0  0
    5.9953   42.0095   49.7656 C   0  0  0  0  0  3  0  0  0  0  0  0
    5.5199   42.3233   47.2168 C   0  0  0  0  0  1  0  0  0  0  0  0
    4.5258   41.6889   49.8176 C   0  0  0  0  0  0  0  0  0  0  0  0
    4.0349   40.4851   49.3590 C   0  0  0  0  0  3  0  0  0  0  0  0
    3.7212   42.6791   50.3520 C   0  0  0  0  0  3  0  0  0  0  0  0
    2.6859   40.2493   49.4321 C   0  0  0  0  0  3  0  0  0  0  0  0
    2.3630   42.3995   50.4074 C   0  0  0  0  0  3  0  0  0  0  0  0
    1.8560   41.2010   49.9531 C   0  0  0  0  0  3  0  0  0  0  0  0
    8.3372   45.9742   50.9672 C   0  0  0  0  0  0  0  0  0  0  0  0
    9.7275   45.9734   51.0918 C   0  0  0  0  0  3  0  0  0  0  0  0
    7.5720   46.4955   51.9892 C   0  0  0  0  0  0  0  0  0  0  0  0
   10.3136   46.4909   52.2288 C   0  0  0  0  0  3  0  0  0  0  0  0
    6.2322   46.4928   51.8616 N   0  0  0  0  0  0  0  0  0  0  0  0
    8.2032   47.0058   53.1149 C   0  0  0  0  0  0  0  0  0  0  0  0
    9.5720   47.0172   53.2633 C   0  0  0  0  0  3  0  0  0  0  0  0
    5.5299   47.0148   52.8907 C   0  0  0  0  0  3  0  0  0  0  0  0
    7.4543   47.5350   54.1549 C   0  0  0  0  0  0  0  0  0  0  0  0
    6.1030   47.5179   53.9963 N   0  0  0  0  0  0  0  0  0  0  0  0
    8.0003   48.0028   55.1840 O   0  0  0  0  0  0  0  0  0  0  0  0
  1  3  1  0
  2  1  2  0
  4  1  1  0
  4  5  1  0
  4  6  1  0
  5  6  1  0
  5  7  1  0
  6  8  1  0
  8 10  2  0
  9 11  2  0
  9  8  1  0
 10 12  1  0
 11 13  1  0
 13 12  2  0
 14  3  1  0
 14 15  2  0
 16 14  1  0
 17 15  1  0
 18 16  1  0
 19 16  2  0
 19 20  1  0
 20 17  2  0
 21 18  1  0
 22 19  1  0
 23 21  2  0
 23 22  1  0
 24 22  2  0
M  RAD  8   4   2   5   2   6   2   7   2   9   2  10   2  11   2  12   2
M  RAD  5  13   2  15   2  17   2  20   2  21   2
M  END
>  <REMARK>  (1) 
 SMILES CC1C(C(=O)Nc2cccc3c(=O)nc[nH]c23)C1c1ccccc1
 SMILES IDX 4 1 5 2 6 3 3 5 2 6 18 7 1 8 19 9 20 10 24 11 21 12 23 13
 SMILES IDX 22 14 7 15 8 16 17 17 9 18 16 19 11 20 10 21 15 22 12 23
 SMILES IDX 14 24 13 26
 H PARENT 6 4 16 25

>  <TORSDO>  (1) 
F 3

$$$$
