/home/pchatterjee/Documents/git/vs_workflow/DiffDock/diffdock_run/pdbqt_scrubbed/Z4521998795.pdbqt
     RDKit          3D

 24 27  0  0  1  0  0  0  0  0999 V2000
    8.8299   83.7794   72.5932 C   0  0  0  0  0  0  0  0  0  0  0  0
    8.8898   83.1638   71.4965 O   0  0  0  0  0  0  0  0  0  0  0  0
    9.2006   85.1522   72.6597 N   0  0  0  0  0  0  0  0  0  0  0  0
    8.3633   83.0091   73.7758 C   0  0  0  0  0  3  0  0  0  0  0  0
    6.9576   82.3694   73.5464 C   0  0  0  0  0  3  0  0  0  0  0  0
    8.2024   81.5446   73.7425 C   0  0  0  0  0  3  0  0  0  0  0  0
    6.0659   82.6615   74.7469 C   0  0  0  0  0  1  0  0  0  0  0  0
    8.2516   80.8540   75.0787 C   0  0  0  0  0  0  0  0  0  0  0  0
    9.3266   81.0054   75.9283 C   0  0  0  0  0  3  0  0  0  0  0  0
    7.1532   80.0696   75.3817 C   0  0  0  0  0  3  0  0  0  0  0  0
    9.3152   80.3509   77.1334 C   0  0  0  0  0  3  0  0  0  0  0  0
    7.1824   79.4254   76.6106 C   0  0  0  0  0  3  0  0  0  0  0  0
    8.2496   79.5662   77.4717 C   0  0  0  0  0  3  0  0  0  0  0  0
   10.1723   85.6232   71.7503 C   0  0  0  0  0  0  0  0  0  0  0  0
    9.7263   85.9454   70.4674 C   0  0  0  0  0  3  0  0  0  0  0  0
   11.5082   85.7782   72.0552 C   0  0  0  0  0  0  0  0  0  0  0  0
   10.6227   86.4119   69.5277 C   0  0  0  0  0  3  0  0  0  0  0  0
   11.9304   85.4653   73.2942 N   0  0  0  0  0  0  0  0  0  0  0  0
   12.3748   86.2504   71.0794 C   0  0  0  0  0  0  0  0  0  0  0  0
   11.9615   86.5756   69.8070 C   0  0  0  0  0  3  0  0  0  0  0  0
   13.2477   85.6354   73.5405 C   0  0  0  0  0  3  0  0  0  0  0  0
   13.7220   86.4143   71.3632 C   0  0  0  0  0  0  0  0  0  0  0  0
   14.1180   86.0896   72.6239 N   0  0  0  0  0  0  0  0  0  0  0  0
   14.5270   86.8396   70.4989 O   0  0  0  0  0  0  0  0  0  0  0  0
  1  3  1  0
  2  1  2  0
  4  1  1  0
  4  5  1  0
  4  6  1  0
  5  6  1  0
  5  7  1  0
  6  8  1  0
  8 10  2  0
  9 11  2  0
  9  8  1  0
 10 12  1  0
 11 13  1  0
 13 12  2  0
 14  3  1  0
 14 15  2  0
 16 14  1  0
 17 15  1  0
 18 16  1  0
 19 16  2  0
 19 20  1  0
 20 17  2  0
 21 18  1  0
 22 19  1  0
 23 21  2  0
 23 22  1  0
 24 22  2  0
M  RAD  8   4   2   5   2   6   2   7   2   9   2  10   2  11   2  12   2
M  RAD  5  13   2  15   2  17   2  20   2  21   2
M  END
>  <REMARK>  (1) 
 SMILES CC1C(C(=O)Nc2cccc3c(=O)nc[nH]c23)C1c1ccccc1
 SMILES IDX 4 1 5 2 6 3 3 5 2 6 18 7 1 8 19 9 20 10 24 11 21 12 23 13
 SMILES IDX 22 14 7 15 8 16 17 17 9 18 16 19 11 20 10 21 15 22 12 23
 SMILES IDX 14 24 13 26
 H PARENT 6 4 16 25

>  <TORSDO>  (1) 
F 3

$$$$
