/home/pchatterjee/Documents/git/vs_workflow/DiffDock/diffdock_run/pdbqt_scrubbed/5329558.pdbqt
     RDKit          3D

 25 28  0  0  1  0  0  0  0  0999 V2000
   11.3465   64.7840   82.8029 C   0  0  0  0  0  0  0  0  0  0  0  0
    9.9875   65.0760   82.5361 N   0  0  0  0  0  0  0  0  0  0  0  0
    9.6230   66.2308   82.0315 C   0  0  0  0  0  0  0  0  0  0  0  0
   10.6163   67.1992   81.7615 C   0  0  0  0  0  3  0  0  0  0  0  0
   10.5503   68.2068   80.7958 N   0  0  0  0  0  0  0  0  0  0  0  0
   11.8262   68.9590   81.0173 C   0  0  0  0  0  2  0  0  0  0  0  0
   12.6985   67.9054   81.5636 N   0  0  0  0  0  0  0  0  0  0  0  0
   12.0179   66.9120   81.9815 C   0  0  0  0  0  0  0  0  0  0  0  0
   12.3249   65.6197   82.5611 N   0  0  0  0  0  0  0  0  0  0  0  0
   11.7459   63.5322   83.3651 N   0  0  0  0  0  0  0  0  0  0  0  0
   12.7701   63.5229   84.3642 C   0  0  0  0  0  0  0  0  0  0  0  0
   14.6098   63.4705   86.4237 C   0  0  0  0  0  0  0  0  0  0  0  0
   15.0211   63.6946   85.1261 C   0  0  0  0  0  3  0  0  0  0  0  0
   13.2645   63.2658   86.7296 C   0  0  0  0  0  3  0  0  0  0  0  0
   14.0982   63.7228   84.0781 C   0  0  0  0  0  3  0  0  0  0  0  0
   12.3541   63.2970   85.6712 C   0  0  0  0  0  3  0  0  0  0  0  0
   15.5097   63.4418   87.4542 F   0  0  0  0  0  0  0  0  0  0  0  0
    8.2817   66.4635   81.7803 O   0  0  0  0  0  0  0  0  0  0  0  0
    7.3787   65.3975   82.0071 C   0  0  0  0  0  2  0  0  0  0  0  0
    6.8665   65.3518   83.4135 C   0  0  0  0  0  3  0  0  0  0  0  0
    6.0664   64.1623   83.7772 C   0  0  0  0  0  2  0  0  0  0  0  0
    6.3534   66.6547   83.9180 C   0  0  0  0  0  2  0  0  0  0  0  0
    4.6021   64.3722   83.9417 C   0  0  0  0  0  2  0  0  0  0  0  0
    5.3948   66.4480   85.0450 C   0  0  0  0  0  2  0  0  0  0  0  0
    4.1997   65.7057   84.4764 C   0  0  0  0  0  2  0  0  0  0  0  0
  1  9  2  0
  2  1  1  0
  2  3  2  0
  4  3  1  0
  4  5  1  0
  5  6  1  0
  7  6  1  0
  8  4  1  0
  8  7  2  0
  9  8  1  0
 10  1  1  0
 11 10  1  0
 11 16  2  0
 12 14  2  0
 13 15  2  0
 13 12  1  0
 14 16  1  0
 15 11  1  0
 17 12  1  0
 18  3  1  0
 19 18  1  0
 20 19  1  0
 21 20  1  0
 22 20  1  0
 23 21  1  0
 24 22  1  0
 25 23  1  0
 25 24  1  0
M  RAD  8   4   2   6   3  13   2  14   2  15   2  16   2  19   3  20   2
M  RAD  5  21   3  22   3  23   3  24   3  25   3
M  END
>  <REMARK>  (1) 
 SMILES Fc1ccc(Nc2nc(OCC3CCCCC3)c3[nH]cnc3n2)cc1
 SMILES IDX 7 1 8 2 9 3 18 4 19 5 20 6 21 7 22 8 23 9 6 11 5 13 2 14
 SMILES IDX 3 15 25 16 4 17 24 18 1 19 10 20 11 21 12 22 13 23 17 24
 SMILES IDX 14 25 16 26 15 27
 H PARENT 19 10 6 12

>  <TORSDO>  (1) 
F 5

$$$$
