/home/pchatterjee/Documents/git/vs_workflow/DiffDock/diffdock_run/pdbqt_scrubbed/5329558.pdbqt
     RDKit          3D

 25 28  0  0  1  0  0  0  0  0999 V2000
    7.6815   43.5380   49.4704 C   0  0  0  0  0  0  0  0  0  0  0  0
    6.6939   44.2082   50.2311 N   0  0  0  0  0  0  0  0  0  0  0  0
    7.0081   45.1809   51.0535 C   0  0  0  0  0  0  0  0  0  0  0  0
    8.3657   45.5523   51.1808 C   0  0  0  0  0  3  0  0  0  0  0  0
    8.8497   46.8121   51.5424 N   0  0  0  0  0  0  0  0  0  0  0  0
   10.3308   46.5949   51.5883 C   0  0  0  0  0  2  0  0  0  0  0  0
   10.4988   45.5029   50.6143 N   0  0  0  0  0  0  0  0  0  0  0  0
    9.3916   44.9157   50.3821 C   0  0  0  0  0  0  0  0  0  0  0  0
    8.9550   43.8376   49.5175 N   0  0  0  0  0  0  0  0  0  0  0  0
    7.3445   42.4689   48.5837 N   0  0  0  0  0  0  0  0  0  0  0  0
    5.9995   41.9810   48.5751 C   0  0  0  0  0  0  0  0  0  0  0  0
    3.4300   40.9878   48.3746 C   0  0  0  0  0  0  0  0  0  0  0  0
    3.8741   41.5408   49.5579 C   0  0  0  0  0  3  0  0  0  0  0  0
    4.2593   40.9152   47.2555 C   0  0  0  0  0  3  0  0  0  0  0  0
    5.1717   42.0456   49.6688 C   0  0  0  0  0  3  0  0  0  0  0  0
    5.5535   41.4240   47.3821 C   0  0  0  0  0  3  0  0  0  0  0  0
    2.1598   40.4917   48.2604 F   0  0  0  0  0  0  0  0  0  0  0  0
    6.0034   45.8106   51.7679 O   0  0  0  0  0  0  0  0  0  0  0  0
    4.6681   45.5887   51.3543 C   0  0  0  0  0  2  0  0  0  0  0  0
    3.7976   45.0496   52.4471 C   0  0  0  0  0  3  0  0  0  0  0  0
    2.3549   45.3581   52.3426 C   0  0  0  0  0  2  0  0  0  0  0  0
    4.3864   45.1663   53.8090 C   0  0  0  0  0  2  0  0  0  0  0  0
    1.8198   46.3630   53.3013 C   0  0  0  0  0  2  0  0  0  0  0  0
    3.3189   45.1394   54.8538 C   0  0  0  0  0  2  0  0  0  0  0  0
    2.4672   46.3779   54.6454 C   0  0  0  0  0  2  0  0  0  0  0  0
  1  9  2  0
  2  1  1  0
  2  3  2  0
  4  3  1  0
  4  5  1  0
  5  6  1  0
  7  6  1  0
  8  4  1  0
  8  7  2  0
  9  8  1  0
 10  1  1  0
 11 10  1  0
 11 16  2  0
 12 14  2  0
 13 15  2  0
 13 12  1  0
 14 16  1  0
 15 11  1  0
 17 12  1  0
 18  3  1  0
 19 18  1  0
 20 19  1  0
 21 20  1  0
 22 20  1  0
 23 21  1  0
 24 22  1  0
 25 23  1  0
 25 24  1  0
M  RAD  8   4   2   6   3  13   2  14   2  15   2  16   2  19   3  20   2
M  RAD  5  21   3  22   3  23   3  24   3  25   3
M  END
>  <REMARK>  (1) 
 SMILES Fc1ccc(Nc2nc(OCC3CCCCC3)c3[nH]cnc3n2)cc1
 SMILES IDX 7 1 8 2 9 3 18 4 19 5 20 6 21 7 22 8 23 9 6 11 5 13 2 14
 SMILES IDX 3 15 25 16 4 17 24 18 1 19 10 20 11 21 12 22 13 23 17 24
 SMILES IDX 14 25 16 26 15 27
 H PARENT 19 10 6 12

>  <TORSDO>  (1) 
F 5

$$$$
