/home/pchatterjee/Documents/git/vs_workflow/DiffDock/diffdock_run/pdbqt_scrubbed/5329558.pdbqt
     RDKit          3D

 25 28  0  0  1  0  0  0  0  0999 V2000
    7.8638   43.4303   49.5124 C   0  0  0  0  0  0  0  0  0  0  0  0
    6.9013   44.1056   50.3003 N   0  0  0  0  0  0  0  0  0  0  0  0
    7.2350   45.1122   51.0728 C   0  0  0  0  0  0  0  0  0  0  0  0
    8.5887   45.5155   51.1178 C   0  0  0  0  0  3  0  0  0  0  0  0
    9.0621   46.7967   51.4122 N   0  0  0  0  0  0  0  0  0  0  0  0
   10.5481   46.6118   51.3890 C   0  0  0  0  0  2  0  0  0  0  0  0
   10.6910   45.4908   50.4443 N   0  0  0  0  0  0  0  0  0  0  0  0
    9.5867   44.8733   50.2889 C   0  0  0  0  0  0  0  0  0  0  0  0
    9.1311   43.7576   49.4841 N   0  0  0  0  0  0  0  0  0  0  0  0
    7.5063   42.3248   48.6801 N   0  0  0  0  0  0  0  0  0  0  0  0
    6.1589   41.8450   48.7158 C   0  0  0  0  0  0  0  0  0  0  0  0
    3.5833   40.8535   48.6050 C   0  0  0  0  0  0  0  0  0  0  0  0
    4.0375   41.4908   49.7411 C   0  0  0  0  0  3  0  0  0  0  0  0
    4.4051   40.6933   47.4896 C   0  0  0  0  0  3  0  0  0  0  0  0
    5.3382   41.9954   49.8065 C   0  0  0  0  0  3  0  0  0  0  0  0
    5.7026   41.2031   47.5703 C   0  0  0  0  0  3  0  0  0  0  0  0
    2.3099   40.3573   48.5356 F   0  0  0  0  0  0  0  0  0  0  0  0
    6.2540   45.7451   51.8167 O   0  0  0  0  0  0  0  0  0  0  0  0
    4.9795   45.1325   51.8754 C   0  0  0  0  0  2  0  0  0  0  0  0
    3.9845   45.9233   52.6673 C   0  0  0  0  0  3  0  0  0  0  0  0
    4.0004   45.7113   54.1309 C   0  0  0  0  0  2  0  0  0  0  0  0
    2.6369   46.0088   52.0413 C   0  0  0  0  0  2  0  0  0  0  0  0
    2.8640   44.9383   54.7021 C   0  0  0  0  0  2  0  0  0  0  0  0
    1.5918   46.3037   53.0673 C   0  0  0  0  0  2  0  0  0  0  0  0
    1.5536   45.1160   54.0111 C   0  0  0  0  0  2  0  0  0  0  0  0
  1  9  2  0
  2  1  1  0
  2  3  2  0
  4  3  1  0
  4  5  1  0
  5  6  1  0
  7  6  1  0
  8  4  1  0
  8  7  2  0
  9  8  1  0
 10  1  1  0
 11 10  1  0
 11 16  2  0
 12 14  2  0
 13 15  2  0
 13 12  1  0
 14 16  1  0
 15 11  1  0
 17 12  1  0
 18  3  1  0
 19 18  1  0
 20 19  1  0
 21 20  1  0
 22 20  1  0
 23 21  1  0
 24 22  1  0
 25 23  1  0
 25 24  1  0
M  RAD  8   4   2   6   3  13   2  14   2  15   2  16   2  19   3  20   2
M  RAD  5  21   3  22   3  23   3  24   3  25   3
M  END
>  <REMARK>  (1) 
 SMILES Fc1ccc(Nc2nc(OCC3CCCCC3)c3[nH]cnc3n2)cc1
 SMILES IDX 7 1 8 2 9 3 18 4 19 5 20 6 21 7 22 8 23 9 6 11 5 13 2 14
 SMILES IDX 3 15 25 16 4 17 24 18 1 19 10 20 11 21 12 22 13 23 17 24
 SMILES IDX 14 25 16 26 15 27
 H PARENT 19 10 6 12

>  <TORSDO>  (1) 
F 5

$$$$
