/home/pchatterjee/Documents/git/vs_workflow/DiffDock/diffdock_run/pdbqt_scrubbed/5329558.pdbqt
     RDKit          3D

 25 28  0  0  1  0  0  0  0  0999 V2000
    7.7169   43.4941   49.3829 C   0  0  0  0  0  0  0  0  0  0  0  0
    6.7724   44.0702   50.2658 N   0  0  0  0  0  0  0  0  0  0  0  0
    7.0961   45.0631   51.0598 C   0  0  0  0  0  0  0  0  0  0  0  0
    8.4213   45.5533   51.0305 C   0  0  0  0  0  3  0  0  0  0  0  0
    8.8325   46.8495   51.3514 N   0  0  0  0  0  0  0  0  0  0  0  0
   10.3218   46.7649   51.2176 C   0  0  0  0  0  2  0  0  0  0  0  0
   10.4673   45.6968   50.2139 N   0  0  0  0  0  0  0  0  0  0  0  0
    9.3962   45.0145   50.1060 C   0  0  0  0  0  0  0  0  0  0  0  0
    8.9557   43.9059   49.2830 N   0  0  0  0  0  0  0  0  0  0  0  0
    7.3715   42.4036   48.5263 N   0  0  0  0  0  0  0  0  0  0  0  0
    6.0354   41.8934   48.5677 C   0  0  0  0  0  0  0  0  0  0  0  0
    3.4518   40.9540   48.8351 C   0  0  0  0  0  0  0  0  0  0  0  0
    4.0923   40.8970   47.6145 C   0  0  0  0  0  3  0  0  0  0  0  0
    4.0857   41.4832   49.9591 C   0  0  0  0  0  3  0  0  0  0  0  0
    5.3986   41.3696   47.4696 C   0  0  0  0  0  3  0  0  0  0  0  0
    5.3913   41.9515   49.7982 C   0  0  0  0  0  3  0  0  0  0  0  0
    2.1720   40.4925   48.9827 F   0  0  0  0  0  0  0  0  0  0  0  0
    6.1328   45.5975   51.8980 O   0  0  0  0  0  0  0  0  0  0  0  0
    4.8235   45.0667   51.8130 C   0  0  0  0  0  2  0  0  0  0  0  0
    3.8350   45.8049   52.6616 C   0  0  0  0  0  3  0  0  0  0  0  0
    3.9632   45.6182   54.1230 C   0  0  0  0  0  2  0  0  0  0  0  0
    2.4455   45.7939   52.1282 C   0  0  0  0  0  2  0  0  0  0  0  0
    2.9205   44.7834   54.7797 C   0  0  0  0  0  2  0  0  0  0  0  0
    1.4551   46.0379   53.2197 C   0  0  0  0  0  2  0  0  0  0  0  0
    1.5577   44.8657   54.1778 C   0  0  0  0  0  2  0  0  0  0  0  0
  1  9  2  0
  2  1  1  0
  2  3  2  0
  4  3  1  0
  4  5  1  0
  5  6  1  0
  7  6  1  0
  8  4  1  0
  8  7  2  0
  9  8  1  0
 10  1  1  0
 11 10  1  0
 11 16  2  0
 12 14  2  0
 13 15  2  0
 13 12  1  0
 14 16  1  0
 15 11  1  0
 17 12  1  0
 18  3  1  0
 19 18  1  0
 20 19  1  0
 21 20  1  0
 22 20  1  0
 23 21  1  0
 24 22  1  0
 25 23  1  0
 25 24  1  0
M  RAD  8   4   2   6   3  13   2  14   2  15   2  16   2  19   3  20   2
M  RAD  5  21   3  22   3  23   3  24   3  25   3
M  END
>  <REMARK>  (1) 
 SMILES Fc1ccc(Nc2nc(OCC3CCCCC3)c3[nH]cnc3n2)cc1
 SMILES IDX 7 1 8 2 9 3 18 4 19 5 20 6 21 7 22 8 23 9 6 11 5 13 2 14
 SMILES IDX 3 15 25 16 4 17 24 18 1 19 10 20 11 21 12 22 13 23 17 24
 SMILES IDX 14 25 16 26 15 27
 H PARENT 19 10 6 12

>  <TORSDO>  (1) 
F 5

$$$$
