/home/pchatterjee/Documents/git/vs_workflow/DiffDock/diffdock_run/pdbqt_scrubbed/5329558.pdbqt
     RDKit          3D

 25 28  0  0  1  0  0  0  0  0999 V2000
    7.6732   43.5319   49.4211 C   0  0  0  0  0  0  0  0  0  0  0  0
    6.6399   44.0620   50.2303 N   0  0  0  0  0  0  0  0  0  0  0  0
    6.8794   44.9966   51.1192 C   0  0  0  0  0  0  0  0  0  0  0  0
    8.2028   45.4696   51.2693 C   0  0  0  0  0  3  0  0  0  0  0  0
    8.5838   46.7364   51.7189 N   0  0  0  0  0  0  0  0  0  0  0  0
   10.0782   46.6403   51.7454 C   0  0  0  0  0  2  0  0  0  0  0  0
   10.3278   45.6380   50.6955 N   0  0  0  0  0  0  0  0  0  0  0  0
    9.2710   44.9788   50.4247 C   0  0  0  0  0  0  0  0  0  0  0  0
    8.9179   43.9323   49.4864 N   0  0  0  0  0  0  0  0  0  0  0  0
    7.4184   42.5042   48.4611 N   0  0  0  0  0  0  0  0  0  0  0  0
    6.1153   41.9150   48.4144 C   0  0  0  0  0  0  0  0  0  0  0  0
    3.6319   40.7382   48.1380 C   0  0  0  0  0  0  0  0  0  0  0  0
    4.0253   41.2606   49.3527 C   0  0  0  0  0  3  0  0  0  0  0  0
    4.4702   40.7892   47.0245 C   0  0  0  0  0  3  0  0  0  0  0  0
    5.2791   41.8575   49.5021 C   0  0  0  0  0  3  0  0  0  0  0  0
    5.7203   41.3890   47.1897 C   0  0  0  0  0  3  0  0  0  0  0  0
    2.4046   40.1523   47.9861 F   0  0  0  0  0  0  0  0  0  0  0  0
    5.8322   45.4884   51.8792 O   0  0  0  0  0  0  0  0  0  0  0  0
    4.5863   44.8235   51.7850 C   0  0  0  0  0  2  0  0  0  0  0  0
    3.6147   45.2456   52.8435 C   0  0  0  0  0  3  0  0  0  0  0  0
    2.9259   46.5349   52.6187 C   0  0  0  0  0  2  0  0  0  0  0  0
    4.0823   44.9966   54.2344 C   0  0  0  0  0  2  0  0  0  0  0  0
    3.3538   47.6744   53.4753 C   0  0  0  0  0  2  0  0  0  0  0  0
    3.3772   45.8917   55.2005 C   0  0  0  0  0  2  0  0  0  0  0  0
    3.7810   47.3140   54.8587 C   0  0  0  0  0  2  0  0  0  0  0  0
  1  9  2  0
  2  1  1  0
  2  3  2  0
  4  3  1  0
  4  5  1  0
  5  6  1  0
  7  6  1  0
  8  4  1  0
  8  7  2  0
  9  8  1  0
 10  1  1  0
 11 10  1  0
 11 16  2  0
 12 14  2  0
 13 15  2  0
 13 12  1  0
 14 16  1  0
 15 11  1  0
 17 12  1  0
 18  3  1  0
 19 18  1  0
 20 19  1  0
 21 20  1  0
 22 20  1  0
 23 21  1  0
 24 22  1  0
 25 23  1  0
 25 24  1  0
M  RAD  8   4   2   6   3  13   2  14   2  15   2  16   2  19   3  20   2
M  RAD  5  21   3  22   3  23   3  24   3  25   3
M  END
>  <REMARK>  (1) 
 SMILES Fc1ccc(Nc2nc(OCC3CCCCC3)c3[nH]cnc3n2)cc1
 SMILES IDX 7 1 8 2 9 3 18 4 19 5 20 6 21 7 22 8 23 9 6 11 5 13 2 14
 SMILES IDX 3 15 25 16 4 17 24 18 1 19 10 20 11 21 12 22 13 23 17 24
 SMILES IDX 14 25 16 26 15 27
 H PARENT 19 10 6 12

>  <TORSDO>  (1) 
F 5

$$$$
