/home/pchatterjee/Documents/git/vs_workflow/DiffDock/diffdock_run/pdbqt_scrubbed/5329558.pdbqt
     RDKit          3D

 25 28  0  0  1  0  0  0  0  0999 V2000
    7.6871   43.3894   49.4583 C   0  0  0  0  0  0  0  0  0  0  0  0
    6.6278   43.9755   50.1915 N   0  0  0  0  0  0  0  0  0  0  0  0
    6.8447   44.9421   51.0516 C   0  0  0  0  0  0  0  0  0  0  0  0
    8.1696   45.3929   51.2484 C   0  0  0  0  0  3  0  0  0  0  0  0
    8.5574   46.6695   51.6633 N   0  0  0  0  0  0  0  0  0  0  0  0
   10.0460   46.5430   51.7692 C   0  0  0  0  0  2  0  0  0  0  0  0
   10.3238   45.4915   50.7759 N   0  0  0  0  0  0  0  0  0  0  0  0
    9.2667   44.8439   50.4799 C   0  0  0  0  0  0  0  0  0  0  0  0
    8.9361   43.7658   49.5695 N   0  0  0  0  0  0  0  0  0  0  0  0
    7.4563   42.3272   48.5305 N   0  0  0  0  0  0  0  0  0  0  0  0
    6.1449   41.7612   48.4460 C   0  0  0  0  0  0  0  0  0  0  0  0
    3.5947   40.7007   48.4721 C   0  0  0  0  0  0  0  0  0  0  0  0
    4.3165   40.7536   47.2977 C   0  0  0  0  0  3  0  0  0  0  0  0
    4.1280   41.1774   49.6695 C   0  0  0  0  0  3  0  0  0  0  0  0
    5.6067   41.2880   47.2746 C   0  0  0  0  0  3  0  0  0  0  0  0
    5.4188   41.7086   49.6302 C   0  0  0  0  0  3  0  0  0  0  0  0
    2.3303   40.1782   48.5005 F   0  0  0  0  0  0  0  0  0  0  0  0
    5.7729   45.4880   51.7367 O   0  0  0  0  0  0  0  0  0  0  0  0
    4.5296   44.8175   51.6486 C   0  0  0  0  0  2  0  0  0  0  0  0
    3.5550   45.2482   52.7009 C   0  0  0  0  0  3  0  0  0  0  0  0
    2.1747   44.7364   52.5591 C   0  0  0  0  0  2  0  0  0  0  0  0
    3.6768   46.6780   53.0959 C   0  0  0  0  0  2  0  0  0  0  0  0
    1.1438   45.7186   52.1258 C   0  0  0  0  0  2  0  0  0  0  0  0
    2.4005   47.1753   53.6923 C   0  0  0  0  0  2  0  0  0  0  0  0
    1.3513   47.1189   52.5975 C   0  0  0  0  0  2  0  0  0  0  0  0
  1  9  2  0
  2  1  1  0
  2  3  2  0
  4  3  1  0
  4  5  1  0
  5  6  1  0
  7  6  1  0
  8  4  1  0
  8  7  2  0
  9  8  1  0
 10  1  1  0
 11 10  1  0
 11 16  2  0
 12 14  2  0
 13 15  2  0
 13 12  1  0
 14 16  1  0
 15 11  1  0
 17 12  1  0
 18  3  1  0
 19 18  1  0
 20 19  1  0
 21 20  1  0
 22 20  1  0
 23 21  1  0
 24 22  1  0
 25 23  1  0
 25 24  1  0
M  RAD  8   4   2   6   3  13   2  14   2  15   2  16   2  19   3  20   2
M  RAD  5  21   3  22   3  23   3  24   3  25   3
M  END
>  <REMARK>  (1) 
 SMILES Fc1ccc(Nc2nc(OCC3CCCCC3)c3[nH]cnc3n2)cc1
 SMILES IDX 7 1 8 2 9 3 18 4 19 5 20 6 21 7 22 8 23 9 6 11 5 13 2 14
 SMILES IDX 3 15 25 16 4 17 24 18 1 19 10 20 11 21 12 22 13 23 17 24
 SMILES IDX 14 25 16 26 15 27
 H PARENT 19 10 6 12

>  <TORSDO>  (1) 
F 5

$$$$
