/home/pchatterjee/Documents/git/vs_workflow/DiffDock/diffdock_run/pdbqt_scrubbed/5329558.pdbqt
     RDKit          3D

 25 28  0  0  1  0  0  0  0  0999 V2000
    7.7963   43.3994   49.5288 C   0  0  0  0  0  0  0  0  0  0  0  0
    6.7627   44.0507   50.2436 N   0  0  0  0  0  0  0  0  0  0  0  0
    7.0202   45.0326   51.0746 C   0  0  0  0  0  0  0  0  0  0  0  0
    8.3629   45.4337   51.2585 C   0  0  0  0  0  3  0  0  0  0  0  0
    8.8036   46.7049   51.6354 N   0  0  0  0  0  0  0  0  0  0  0  0
   10.2857   46.5199   51.7457 C   0  0  0  0  0  2  0  0  0  0  0  0
   10.5189   45.4286   50.7844 N   0  0  0  0  0  0  0  0  0  0  0  0
    9.4356   44.8169   50.5074 C   0  0  0  0  0  0  0  0  0  0  0  0
    9.0599   43.7268   49.6294 N   0  0  0  0  0  0  0  0  0  0  0  0
    7.5209   42.3205   48.6330 N   0  0  0  0  0  0  0  0  0  0  0  0
    6.1835   41.8183   48.5523 C   0  0  0  0  0  0  0  0  0  0  0  0
    3.6381   40.8011   48.2133 C   0  0  0  0  0  0  0  0  0  0  0  0
    4.0191   41.3387   49.4253 C   0  0  0  0  0  3  0  0  0  0  0  0
    4.5203   40.7565   47.1338 C   0  0  0  0  0  3  0  0  0  0  0  0
    5.3040   41.8554   49.6062 C   0  0  0  0  0  3  0  0  0  0  0  0
    5.8010   41.2770   47.3303 C   0  0  0  0  0  3  0  0  0  0  0  0
    2.3805   40.2934   48.0305 F   0  0  0  0  0  0  0  0  0  0  0  0
    5.9725   45.6428   51.7425 O   0  0  0  0  0  0  0  0  0  0  0  0
    4.6581   45.2411   51.4044 C   0  0  0  0  0  2  0  0  0  0  0  0
    3.8254   44.8934   52.5995 C   0  0  0  0  0  3  0  0  0  0  0  0
    2.3615   44.8735   52.3900 C   0  0  0  0  0  2  0  0  0  0  0  0
    4.2882   45.5196   53.8679 C   0  0  0  0  0  2  0  0  0  0  0  0
    1.5894   45.9948   52.9915 C   0  0  0  0  0  2  0  0  0  0  0  0
    3.1734   45.5988   54.8594 C   0  0  0  0  0  2  0  0  0  0  0  0
    2.1293   46.5318   54.2745 C   0  0  0  0  0  2  0  0  0  0  0  0
  1  9  2  0
  2  1  1  0
  2  3  2  0
  4  3  1  0
  4  5  1  0
  5  6  1  0
  7  6  1  0
  8  4  1  0
  8  7  2  0
  9  8  1  0
 10  1  1  0
 11 10  1  0
 11 16  2  0
 12 14  2  0
 13 15  2  0
 13 12  1  0
 14 16  1  0
 15 11  1  0
 17 12  1  0
 18  3  1  0
 19 18  1  0
 20 19  1  0
 21 20  1  0
 22 20  1  0
 23 21  1  0
 24 22  1  0
 25 23  1  0
 25 24  1  0
M  RAD  8   4   2   6   3  13   2  14   2  15   2  16   2  19   3  20   2
M  RAD  5  21   3  22   3  23   3  24   3  25   3
M  END
>  <REMARK>  (1) 
 SMILES Fc1ccc(Nc2nc(OCC3CCCCC3)c3[nH]cnc3n2)cc1
 SMILES IDX 7 1 8 2 9 3 18 4 19 5 20 6 21 7 22 8 23 9 6 11 5 13 2 14
 SMILES IDX 3 15 25 16 4 17 24 18 1 19 10 20 11 21 12 22 13 23 17 24
 SMILES IDX 14 25 16 26 15 27
 H PARENT 19 10 6 12

>  <TORSDO>  (1) 
F 5

$$$$
