/home/pchatterjee/Documents/git/vs_workflow/DiffDock/diffdock_run/pdbqt_scrubbed/5329558.pdbqt
     RDKit          3D

 25 28  0  0  1  0  0  0  0  0999 V2000
    7.7713   43.4160   49.6219 C   0  0  0  0  0  0  0  0  0  0  0  0
    6.8060   44.0705   50.4238 N   0  0  0  0  0  0  0  0  0  0  0  0
    7.1429   45.0305   51.2521 C   0  0  0  0  0  0  0  0  0  0  0  0
    8.5029   45.4038   51.3437 C   0  0  0  0  0  3  0  0  0  0  0  0
    8.9946   46.6589   51.7112 N   0  0  0  0  0  0  0  0  0  0  0  0
   10.4769   46.4455   51.7078 C   0  0  0  0  0  2  0  0  0  0  0  0
   10.6176   45.3703   50.7110 N   0  0  0  0  0  0  0  0  0  0  0  0
    9.5052   44.7837   50.5033 C   0  0  0  0  0  0  0  0  0  0  0  0
    9.0450   43.7187   49.6348 N   0  0  0  0  0  0  0  0  0  0  0  0
    7.4099   42.3608   48.7283 N   0  0  0  0  0  0  0  0  0  0  0  0
    6.0460   41.9302   48.6891 C   0  0  0  0  0  0  0  0  0  0  0  0
    3.3965   41.1571   48.7965 C   0  0  0  0  0  0  0  0  0  0  0  0
    4.1284   40.9817   47.6403 C   0  0  0  0  0  3  0  0  0  0  0  0
    3.9692   41.7250   49.9344 C   0  0  0  0  0  3  0  0  0  0  0  0
    5.4686   41.3695   47.5765 C   0  0  0  0  0  3  0  0  0  0  0  0
    5.3098   42.1075   49.8549 C   0  0  0  0  0  3  0  0  0  0  0  0
    2.0832   40.7790   48.8646 F   0  0  0  0  0  0  0  0  0  0  0  0
    6.1592   45.6452   52.0075 O   0  0  0  0  0  0  0  0  0  0  0  0
    4.8247   45.2113   51.8225 C   0  0  0  0  0  2  0  0  0  0  0  0
    3.8397   45.9723   52.6550 C   0  0  0  0  0  3  0  0  0  0  0  0
    4.0608   45.9410   54.1170 C   0  0  0  0  0  2  0  0  0  0  0  0
    2.4263   45.8271   52.2119 C   0  0  0  0  0  2  0  0  0  0  0  0
    3.1117   45.1172   54.9144 C   0  0  0  0  0  2  0  0  0  0  0  0
    1.4846   46.1215   53.3336 C   0  0  0  0  0  2  0  0  0  0  0  0
    1.7151   45.0593   54.3926 C   0  0  0  0  0  2  0  0  0  0  0  0
  1  9  2  0
  2  1  1  0
  2  3  2  0
  4  3  1  0
  4  5  1  0
  5  6  1  0
  7  6  1  0
  8  4  1  0
  8  7  2  0
  9  8  1  0
 10  1  1  0
 11 10  1  0
 11 16  2  0
 12 14  2  0
 13 15  2  0
 13 12  1  0
 14 16  1  0
 15 11  1  0
 17 12  1  0
 18  3  1  0
 19 18  1  0
 20 19  1  0
 21 20  1  0
 22 20  1  0
 23 21  1  0
 24 22  1  0
 25 23  1  0
 25 24  1  0
M  RAD  8   4   2   6   3  13   2  14   2  15   2  16   2  19   3  20   2
M  RAD  5  21   3  22   3  23   3  24   3  25   3
M  END
>  <REMARK>  (1) 
 SMILES Fc1ccc(Nc2nc(OCC3CCCCC3)c3[nH]cnc3n2)cc1
 SMILES IDX 7 1 8 2 9 3 18 4 19 5 20 6 21 7 22 8 23 9 6 11 5 13 2 14
 SMILES IDX 3 15 25 16 4 17 24 18 1 19 10 20 11 21 12 22 13 23 17 24
 SMILES IDX 14 25 16 26 15 27
 H PARENT 19 10 6 12

>  <TORSDO>  (1) 
F 5

$$$$
