/home/pchatterjee/Documents/git/vs_workflow/DiffDock/diffdock_run/pdbqt_scrubbed/5329558.pdbqt
     RDKit          3D

 25 28  0  0  1  0  0  0  0  0999 V2000
    7.7185   43.3408   49.6477 C   0  0  0  0  0  0  0  0  0  0  0  0
    6.7526   44.0402   50.4101 N   0  0  0  0  0  0  0  0  0  0  0  0
    7.0915   45.0344   51.1961 C   0  0  0  0  0  0  0  0  0  0  0  0
    8.4540   45.3996   51.2822 C   0  0  0  0  0  3  0  0  0  0  0  0
    8.9541   46.6660   51.5956 N   0  0  0  0  0  0  0  0  0  0  0  0
   10.4344   46.4397   51.6149 C   0  0  0  0  0  2  0  0  0  0  0  0
   10.5735   45.3184   50.6701 N   0  0  0  0  0  0  0  0  0  0  0  0
    9.4576   44.7326   50.4801 C   0  0  0  0  0  0  0  0  0  0  0  0
    8.9947   43.6327   49.6577 N   0  0  0  0  0  0  0  0  0  0  0  0
    7.3549   42.2487   48.8007 N   0  0  0  0  0  0  0  0  0  0  0  0
    5.9874   41.8288   48.7694 C   0  0  0  0  0  0  0  0  0  0  0  0
    3.3768   40.9597   48.5276 C   0  0  0  0  0  0  0  0  0  0  0  0
    3.8174   41.5266   49.7056 C   0  0  0  0  0  3  0  0  0  0  0  0
    4.2303   40.8107   47.4345 C   0  0  0  0  0  3  0  0  0  0  0  0
    5.1356   41.9689   49.8373 C   0  0  0  0  0  3  0  0  0  0  0  0
    5.5450   41.2577   47.5817 C   0  0  0  0  0  3  0  0  0  0  0  0
    2.0864   40.5247   48.3931 F   0  0  0  0  0  0  0  0  0  0  0  0
    6.1072   45.6920   51.9138 O   0  0  0  0  0  0  0  0  0  0  0  0
    4.8334   45.0798   51.9906 C   0  0  0  0  0  2  0  0  0  0  0  0
    3.8643   45.8462   52.8366 C   0  0  0  0  0  3  0  0  0  0  0  0
    3.5779   45.2816   54.1732 C   0  0  0  0  0  2  0  0  0  0  0  0
    2.6879   46.3720   52.0916 C   0  0  0  0  0  2  0  0  0  0  0  0
    2.2402   44.6555   54.3566 C   0  0  0  0  0  2  0  0  0  0  0  0
    1.5418   46.6229   53.0164 C   0  0  0  0  0  2  0  0  0  0  0  0
    1.1276   45.2763   53.5801 C   0  0  0  0  0  2  0  0  0  0  0  0
  1  9  2  0
  2  1  1  0
  2  3  2  0
  4  3  1  0
  4  5  1  0
  5  6  1  0
  7  6  1  0
  8  4  1  0
  8  7  2  0
  9  8  1  0
 10  1  1  0
 11 10  1  0
 11 16  2  0
 12 14  2  0
 13 15  2  0
 13 12  1  0
 14 16  1  0
 15 11  1  0
 17 12  1  0
 18  3  1  0
 19 18  1  0
 20 19  1  0
 21 20  1  0
 22 20  1  0
 23 21  1  0
 24 22  1  0
 25 23  1  0
 25 24  1  0
M  RAD  8   4   2   6   3  13   2  14   2  15   2  16   2  19   3  20   2
M  RAD  5  21   3  22   3  23   3  24   3  25   3
M  END
>  <REMARK>  (1) 
 SMILES Fc1ccc(Nc2nc(OCC3CCCCC3)c3[nH]cnc3n2)cc1
 SMILES IDX 7 1 8 2 9 3 18 4 19 5 20 6 21 7 22 8 23 9 6 11 5 13 2 14
 SMILES IDX 3 15 25 16 4 17 24 18 1 19 10 20 11 21 12 22 13 23 17 24
 SMILES IDX 14 25 16 26 15 27
 H PARENT 19 10 6 12

>  <TORSDO>  (1) 
F 5

$$$$
