/home/pchatterjee/Documents/git/vs_workflow/DiffDock/diffdock_run/pdbqt_scrubbed/5329558.pdbqt
     RDKit          3D

 25 28  0  0  1  0  0  0  0  0999 V2000
    7.8031   43.3800   49.5200 C   0  0  0  0  0  0  0  0  0  0  0  0
    6.8521   44.0427   50.3322 N   0  0  0  0  0  0  0  0  0  0  0  0
    7.1992   45.0291   51.1246 C   0  0  0  0  0  0  0  0  0  0  0  0
    8.5558   45.4231   51.1664 C   0  0  0  0  0  3  0  0  0  0  0  0
    9.0399   46.6941   51.4859 N   0  0  0  0  0  0  0  0  0  0  0  0
   10.5244   46.5008   51.4447 C   0  0  0  0  0  2  0  0  0  0  0  0
   10.6516   45.4011   50.4731 N   0  0  0  0  0  0  0  0  0  0  0  0
    9.5421   44.7942   50.3137 C   0  0  0  0  0  0  0  0  0  0  0  0
    9.0722   43.7001   49.4876 N   0  0  0  0  0  0  0  0  0  0  0  0
    7.4311   42.2963   48.6657 N   0  0  0  0  0  0  0  0  0  0  0  0
    6.0734   41.8448   48.6797 C   0  0  0  0  0  0  0  0  0  0  0  0
    3.4780   40.9127   48.5254 C   0  0  0  0  0  0  0  0  0  0  0  0
    3.9383   41.5075   49.6819 C   0  0  0  0  0  3  0  0  0  0  0  0
    4.3036   40.7665   47.4107 C   0  0  0  0  0  3  0  0  0  0  0  0
    5.2491   41.9819   49.7693 C   0  0  0  0  0  3  0  0  0  0  0  0
    5.6111   41.2457   47.5137 C   0  0  0  0  0  3  0  0  0  0  0  0
    2.1948   40.4462   48.4342 F   0  0  0  0  0  0  0  0  0  0  0  0
    6.2290   45.6506   51.8920 O   0  0  0  0  0  0  0  0  0  0  0  0
    4.9448   45.0569   51.9301 C   0  0  0  0  0  2  0  0  0  0  0  0
    3.9703   45.8207   52.7725 C   0  0  0  0  0  3  0  0  0  0  0  0
    3.9578   45.4919   54.2143 C   0  0  0  0  0  2  0  0  0  0  0  0
    2.6358   46.0095   52.1411 C   0  0  0  0  0  2  0  0  0  0  0  0
    2.7845   44.7214   54.7094 C   0  0  0  0  0  2  0  0  0  0  0  0
    1.5889   46.2626   53.1764 C   0  0  0  0  0  2  0  0  0  0  0  0
    1.4917   45.0057   54.0210 C   0  0  0  0  0  2  0  0  0  0  0  0
  1  9  2  0
  2  1  1  0
  2  3  2  0
  4  3  1  0
  4  5  1  0
  5  6  1  0
  7  6  1  0
  8  4  1  0
  8  7  2  0
  9  8  1  0
 10  1  1  0
 11 10  1  0
 11 16  2  0
 12 14  2  0
 13 15  2  0
 13 12  1  0
 14 16  1  0
 15 11  1  0
 17 12  1  0
 18  3  1  0
 19 18  1  0
 20 19  1  0
 21 20  1  0
 22 20  1  0
 23 21  1  0
 24 22  1  0
 25 23  1  0
 25 24  1  0
M  RAD  8   4   2   6   3  13   2  14   2  15   2  16   2  19   3  20   2
M  RAD  5  21   3  22   3  23   3  24   3  25   3
M  END
>  <REMARK>  (1) 
 SMILES Fc1ccc(Nc2nc(OCC3CCCCC3)c3[nH]cnc3n2)cc1
 SMILES IDX 7 1 8 2 9 3 18 4 19 5 20 6 21 7 22 8 23 9 6 11 5 13 2 14
 SMILES IDX 3 15 25 16 4 17 24 18 1 19 10 20 11 21 12 22 13 23 17 24
 SMILES IDX 14 25 16 26 15 27
 H PARENT 19 10 6 12

>  <TORSDO>  (1) 
F 5

$$$$
