/home/pchatterjee/Documents/git/vs_workflow/DiffDock/diffdock_run/pdbqt_scrubbed/5329562.pdbqt
     RDKit          3D

 29 32  0  0  1  0  0  0  0  0999 V2000
    7.2671   42.8993   48.8952 N   0  0  0  0  0  0  0  0  0  0  0  0
    6.0495   42.1768   48.7245 C   0  0  0  0  0  0  0  0  0  0  0  0
    3.6465   40.7554   48.4007 C   0  0  0  0  0  0  0  0  0  0  0  0
    4.5596   40.8988   47.3745 C   0  0  0  0  0  3  0  0  0  0  0  0
    3.9679   41.3510   49.6185 C   0  0  0  0  0  3  0  0  0  0  0  0
    5.7487   41.5898   47.4991 C   0  0  0  0  0  3  0  0  0  0  0  0
    5.1462   42.0493   49.7814 C   0  0  0  0  0  3  0  0  0  0  0  0
    2.1478   39.8653   48.1884 S   0  0  2  0  0  0  0  0  0  0  0  0
    1.7091   39.4055   49.5624 O   0  0  0  0  0  0  0  0  0  0  0  0
    2.4345   38.6937   47.2985 O   0  0  0  0  0  0  0  0  0  0  0  0
    0.9555   40.9214   47.5239 N   0  0  0  0  0  0  0  0  0  0  0  0
    0.5304   41.8238   48.5774 C   0  0  0  0  0  1  0  0  0  0  0  0
    7.9098   42.7924   50.1910 C   0  0  0  0  0  3  0  0  0  0  0  0
    7.0722   43.5061   51.1426 N   0  0  0  0  0  0  0  0  0  0  0  0
    9.2636   43.3207   50.1919 N   0  0  0  0  0  0  0  0  0  0  0  0
    7.2327   44.7993   51.2543 C   0  0  0  0  0  0  0  0  0  0  0  0
    9.4333   44.5875   50.2993 C   0  0  0  0  0  0  0  0  0  0  0  0
    8.2481   45.4886   50.4201 C   0  0  0  0  0  3  0  0  0  0  0  0
   10.5562   45.4796   50.3438 N   0  0  0  0  0  0  0  0  0  0  0  0
    8.7933   46.6647   51.0829 N   0  0  0  0  0  0  0  0  0  0  0  0
   10.1886   46.6361   50.7824 C   0  0  0  0  0  3  0  0  0  0  0  0
    6.4194   45.4358   52.1669 O   0  0  0  0  0  0  0  0  0  0  0  0
    5.3465   44.7460   52.8250 C   0  0  0  0  0  2  0  0  0  0  0  0
    4.0864   44.7639   52.0331 C   0  0  0  0  0  3  0  0  0  0  0  0
    2.9506   43.9840   52.5960 C   0  0  0  0  0  2  0  0  0  0  0  0
    3.7383   46.0635   51.3983 C   0  0  0  0  0  2  0  0  0  0  0  0
    2.0004   44.8433   53.3706 C   0  0  0  0  0  2  0  0  0  0  0  0
    2.5903   46.7895   52.0378 C   0  0  0  0  0  2  0  0  0  0  0  0
    1.4340   45.8857   52.4074 C   0  0  0  0  0  2  0  0  0  0  0  0
  2  1  1  0
  3  4  2  0
  3  5  1  0
  4  6  1  0
  5  7  2  0
  6  2  2  0
  7  2  1  0
  8  9  2  0
  8  3  1  0
 10  8  2  0
  8 11  1  6
 12 11  1  0
 13  1  1  0
 13 14  1  0
 13 15  1  0
 14 16  2  0
 15 17  2  0
 16 22  1  0
 17 18  1  0
 17 19  1  0
 18 16  1  0
 18 20  1  0
 19 21  2  0
 20 21  1  0
 23 24  1  0
 23 22  1  0
 24 26  1  0
 24 25  1  0
 25 27  1  0
 26 28  1  0
 28 29  1  0
 29 27  1  0
M  RAD  8   4   2   5   2   6   2   7   2  12   2  13   2  18   2  21   2
M  RAD  7  23   3  24   2  25   3  26   3  27   3  28   3  29   3
M  END
>  <REMARK>  (1) 
 SMILES CNS(=O)(=O)c1ccc(Nc2nc(OCC3CCCCC3)c3[nH]cnc3n2)cc1
 SMILES IDX 10 1 9 3 6 4 7 5 29 6 8 7 28 8 3 9 4 10 5 11 2 12 1 13 11 15
 SMILES IDX 12 16 27 17 13 18 26 19 22 20 25 21 23 22 24 23 14 25 15 26
 SMILES IDX 16 27 17 28 21 29 18 30 20 31 19 32
 H PARENT 10 2 2 14 23 24

>  <TORSDO>  (1) 
F 7

$$$$
