/home/pchatterjee/Documents/git/vs_workflow/DiffDock/diffdock_run/pdbqt_scrubbed/5329562.pdbqt
     RDKit          3D

 29 32  0  0  1  0  0  0  0  0999 V2000
    7.4235   42.8278   49.0103 N   0  0  0  0  0  0  0  0  0  0  0  0
    6.1478   42.2141   48.8380 C   0  0  0  0  0  0  0  0  0  0  0  0
    3.6299   41.0088   48.5106 C   0  0  0  0  0  0  0  0  0  0  0  0
    4.6028   40.9561   47.5318 C   0  0  0  0  0  3  0  0  0  0  0  0
    3.9501   41.6920   49.6818 C   0  0  0  0  0  3  0  0  0  0  0  0
    5.8492   41.5367   47.6596 C   0  0  0  0  0  3  0  0  0  0  0  0
    5.1846   42.2848   49.8463 C   0  0  0  0  0  3  0  0  0  0  0  0
    2.0597   40.2524   48.2965 S   0  0  2  0  0  0  0  0  0  0  0  0
    2.0190   39.0515   49.2173 O   0  0  0  0  0  0  0  0  0  0  0  0
    1.9475   39.8309   46.8625 O   0  0  0  0  0  0  0  0  0  0  0  0
    0.8287   41.3728   48.7524 N   0  0  0  0  0  0  0  0  0  0  0  0
    0.6133   42.2700   47.6328 C   0  0  0  0  0  1  0  0  0  0  0  0
    7.9687   42.8271   50.3542 C   0  0  0  0  0  3  0  0  0  0  0  0
    7.0687   43.6175   51.1798 N   0  0  0  0  0  0  0  0  0  0  0  0
    9.3225   43.3521   50.4115 N   0  0  0  0  0  0  0  0  0  0  0  0
    7.2299   44.9154   51.1969 C   0  0  0  0  0  0  0  0  0  0  0  0
    9.4930   44.6232   50.4271 C   0  0  0  0  0  0  0  0  0  0  0  0
    8.3086   45.5326   50.3860 C   0  0  0  0  0  3  0  0  0  0  0  0
   10.6160   45.5148   50.4809 N   0  0  0  0  0  0  0  0  0  0  0  0
    8.8122   46.7585   50.9887 N   0  0  0  0  0  0  0  0  0  0  0  0
   10.2255   46.7037   50.7951 C   0  0  0  0  0  3  0  0  0  0  0  0
    6.3564   45.6256   51.9919 O   0  0  0  0  0  0  0  0  0  0  0  0
    4.9457   45.3616   51.9786 C   0  0  0  0  0  2  0  0  0  0  0  0
    4.2187   46.0920   53.0525 C   0  0  0  0  0  3  0  0  0  0  0  0
    2.8260   46.5075   52.7318 C   0  0  0  0  0  2  0  0  0  0  0  0
    4.4557   45.6092   54.4396 C   0  0  0  0  0  2  0  0  0  0  0  0
    1.8100   45.5423   53.2586 C   0  0  0  0  0  2  0  0  0  0  0  0
    3.3047   44.8662   55.0533 C   0  0  0  0  0  2  0  0  0  0  0  0
    1.9591   45.5025   54.7788 C   0  0  0  0  0  2  0  0  0  0  0  0
  2  1  1  0
  3  4  2  0
  3  5  1  0
  4  6  1  0
  5  7  2  0
  6  2  2  0
  7  2  1  0
  8  9  2  0
  8  3  1  0
 10  8  2  0
  8 11  1  1
 12 11  1  0
 13  1  1  0
 13 14  1  0
 13 15  1  0
 14 16  2  0
 15 17  2  0
 16 22  1  0
 17 18  1  0
 17 19  1  0
 18 16  1  0
 18 20  1  0
 19 21  2  0
 20 21  1  0
 23 24  1  0
 23 22  1  0
 24 26  1  0
 24 25  1  0
 25 27  1  0
 26 28  1  0
 28 29  1  0
 29 27  1  0
M  RAD  8   4   2   5   2   6   2   7   2  12   2  13   2  18   2  21   2
M  RAD  7  23   3  24   2  25   3  26   3  27   3  28   3  29   3
M  END
>  <REMARK>  (1) 
 SMILES CNS(=O)(=O)c1ccc(Nc2nc(OCC3CCCCC3)c3[nH]cnc3n2)cc1
 SMILES IDX 10 1 9 3 6 4 7 5 29 6 8 7 28 8 3 9 4 10 5 11 2 12 1 13 11 15
 SMILES IDX 12 16 27 17 13 18 26 19 22 20 25 21 23 22 24 23 14 25 15 26
 SMILES IDX 16 27 17 28 21 29 18 30 20 31 19 32
 H PARENT 10 2 2 14 23 24

>  <TORSDO>  (1) 
F 7

$$$$
