/home/pchatterjee/Documents/git/vs_workflow/DiffDock/diffdock_run/pdbqt_scrubbed/5329562.pdbqt
     RDKit          3D

 29 32  0  0  1  0  0  0  0  0999 V2000
    7.2587   42.9930   48.9044 N   0  0  0  0  0  0  0  0  0  0  0  0
    6.0348   42.2936   48.6886 C   0  0  0  0  0  0  0  0  0  0  0  0
    3.6260   40.9132   48.2504 C   0  0  0  0  0  0  0  0  0  0  0  0
    3.9604   41.4342   49.4849 C   0  0  0  0  0  3  0  0  0  0  0  0
    4.5418   41.1015   47.2174 C   0  0  0  0  0  3  0  0  0  0  0  0
    5.1344   42.1171   49.7349 C   0  0  0  0  0  3  0  0  0  0  0  0
    5.7250   41.7783   47.4285 C   0  0  0  0  0  3  0  0  0  0  0  0
    2.1185   40.0523   47.9867 S   0  0  2  0  0  0  0  0  0  0  0  0
    1.6814   39.5061   49.3292 O   0  0  0  0  0  0  0  0  0  0  0  0
    2.3908   38.9398   47.0197 O   0  0  0  0  0  0  0  0  0  0  0  0
    0.9330   41.1605   47.3994 N   0  0  0  0  0  0  0  0  0  0  0  0
    0.2285   41.7007   48.5469 C   0  0  0  0  0  1  0  0  0  0  0  0
    7.8398   42.8922   50.2294 C   0  0  0  0  0  3  0  0  0  0  0  0
    6.9325   43.5663   51.1453 N   0  0  0  0  0  0  0  0  0  0  0  0
    9.1732   43.4652   50.3031 N   0  0  0  0  0  0  0  0  0  0  0  0
    7.0435   44.8627   51.2782 C   0  0  0  0  0  0  0  0  0  0  0  0
    9.2945   44.7356   50.4319 C   0  0  0  0  0  0  0  0  0  0  0  0
    8.0750   45.5953   50.5026 C   0  0  0  0  0  3  0  0  0  0  0  0
   10.3830   45.6640   50.5413 N   0  0  0  0  0  0  0  0  0  0  0  0
    8.5467   46.7808   51.2038 N   0  0  0  0  0  0  0  0  0  0  0  0
    9.9553   46.8022   50.9729 C   0  0  0  0  0  3  0  0  0  0  0  0
    6.1650   45.4609   52.1556 O   0  0  0  0  0  0  0  0  0  0  0  0
    4.8596   44.9161   52.3985 C   0  0  0  0  0  2  0  0  0  0  0  0
    3.9991   45.8313   53.1969 C   0  0  0  0  0  3  0  0  0  0  0  0
    3.1584   46.7813   52.4187 C   0  0  0  0  0  2  0  0  0  0  0  0
    3.3688   45.2375   54.4065 C   0  0  0  0  0  2  0  0  0  0  0  0
    1.7591   46.2815   52.2345 C   0  0  0  0  0  2  0  0  0  0  0  0
    1.8924   44.9915   54.2912 C   0  0  0  0  0  2  0  0  0  0  0  0
    1.1413   46.1230   53.6230 C   0  0  0  0  0  2  0  0  0  0  0  0
  2  1  1  0
  3  4  2  0
  3  5  1  0
  4  6  1  0
  5  7  2  0
  6  2  2  0
  7  2  1  0
  8  9  2  0
  8  3  1  0
 10  8  2  0
  8 11  1  6
 12 11  1  0
 13  1  1  0
 13 14  1  0
 13 15  1  0
 14 16  2  0
 15 17  2  0
 16 22  1  0
 17 18  1  0
 17 19  1  0
 18 16  1  0
 18 20  1  0
 19 21  2  0
 20 21  1  0
 23 24  1  0
 23 22  1  0
 24 26  1  0
 24 25  1  0
 25 27  1  0
 26 28  1  0
 28 29  1  0
 29 27  1  0
M  RAD  8   4   2   5   2   6   2   7   2  12   2  13   2  18   2  21   2
M  RAD  7  23   3  24   2  25   3  26   3  27   3  28   3  29   3
M  END
>  <REMARK>  (1) 
 SMILES CNS(=O)(=O)c1ccc(Nc2nc(OCC3CCCCC3)c3[nH]cnc3n2)cc1
 SMILES IDX 10 1 9 3 6 4 7 5 29 6 8 7 28 8 3 9 4 10 5 11 2 12 1 13 11 15
 SMILES IDX 12 16 27 17 13 18 26 19 22 20 25 21 23 22 24 23 14 25 15 26
 SMILES IDX 16 27 17 28 21 29 18 30 20 31 19 32
 H PARENT 10 2 2 14 23 24

>  <TORSDO>  (1) 
F 7

$$$$
