/home/pchatterjee/Documents/git/vs_workflow/DiffDock/diffdock_run/pdbqt_scrubbed/5329562.pdbqt
     RDKit          3D

 29 32  0  0  1  0  0  0  0  0999 V2000
    7.3909   42.9475   49.0998 N   0  0  0  0  0  0  0  0  0  0  0  0
    6.1586   42.2402   48.9774 C   0  0  0  0  0  0  0  0  0  0  0  0
    3.7265   40.8502   48.7485 C   0  0  0  0  0  0  0  0  0  0  0  0
    4.6547   40.8805   47.7263 C   0  0  0  0  0  3  0  0  0  0  0  0
    4.0476   41.5449   49.9127 C   0  0  0  0  0  3  0  0  0  0  0  0
    5.8583   41.5529   47.8052 C   0  0  0  0  0  3  0  0  0  0  0  0
    5.2401   42.2283   50.0288 C   0  0  0  0  0  3  0  0  0  0  0  0
    2.2097   39.9787   48.5958 S   0  0  2  0  0  0  0  0  0  0  0  0
    2.2885   38.7887   49.5282 O   0  0  0  0  0  0  0  0  0  0  0  0
    2.0802   39.5336   47.1704 O   0  0  0  0  0  0  0  0  0  0  0  0
    0.9159   41.0113   49.0840 N   0  0  0  0  0  0  0  0  0  0  0  0
    0.8119   42.0787   48.1071 C   0  0  0  0  0  1  0  0  0  0  0  0
    8.0172   42.9399   50.4079 C   0  0  0  0  0  3  0  0  0  0  0  0
    7.1032   43.6070   51.3222 N   0  0  0  0  0  0  0  0  0  0  0  0
    9.3190   43.5858   50.4111 N   0  0  0  0  0  0  0  0  0  0  0  0
    7.1472   44.9123   51.3926 C   0  0  0  0  0  0  0  0  0  0  0  0
    9.3747   44.8654   50.4783 C   0  0  0  0  0  0  0  0  0  0  0  0
    8.1127   45.6614   50.5508 C   0  0  0  0  0  3  0  0  0  0  0  0
   10.4137   45.8544   50.5094 N   0  0  0  0  0  0  0  0  0  0  0  0
    8.5404   46.9020   51.1816 N   0  0  0  0  0  0  0  0  0  0  0  0
    9.9379   46.9874   50.9031 C   0  0  0  0  0  3  0  0  0  0  0  0
    6.2648   45.5034   52.2708 O   0  0  0  0  0  0  0  0  0  0  0  0
    5.3166   44.7272   53.0181 C   0  0  0  0  0  2  0  0  0  0  0  0
    4.0734   44.4501   52.2480 C   0  0  0  0  0  3  0  0  0  0  0  0
    3.0029   43.7181   52.9780 C   0  0  0  0  0  2  0  0  0  0  0  0
    3.6209   45.5347   51.3358 C   0  0  0  0  0  2  0  0  0  0  0  0
    1.9665   44.6404   53.5408 C   0  0  0  0  0  2  0  0  0  0  0  0
    2.4019   46.2791   51.7981 C   0  0  0  0  0  2  0  0  0  0  0  0
    1.3252   45.3811   52.3682 C   0  0  0  0  0  2  0  0  0  0  0  0
  2  1  1  0
  3  4  2  0
  3  5  1  0
  4  6  1  0
  5  7  2  0
  6  2  2  0
  7  2  1  0
  8  9  2  0
  8  3  1  0
 10  8  2  0
  8 11  1  1
 12 11  1  0
 13  1  1  0
 13 14  1  0
 13 15  1  0
 14 16  2  0
 15 17  2  0
 16 22  1  0
 17 18  1  0
 17 19  1  0
 18 16  1  0
 18 20  1  0
 19 21  2  0
 20 21  1  0
 23 24  1  0
 23 22  1  0
 24 26  1  0
 24 25  1  0
 25 27  1  0
 26 28  1  0
 28 29  1  0
 29 27  1  0
M  RAD  8   4   2   5   2   6   2   7   2  12   2  13   2  18   2  21   2
M  RAD  7  23   3  24   2  25   3  26   3  27   3  28   3  29   3
M  END
>  <REMARK>  (1) 
 SMILES CNS(=O)(=O)c1ccc(Nc2nc(OCC3CCCCC3)c3[nH]cnc3n2)cc1
 SMILES IDX 10 1 9 3 6 4 7 5 29 6 8 7 28 8 3 9 4 10 5 11 2 12 1 13 11 15
 SMILES IDX 12 16 27 17 13 18 26 19 22 20 25 21 23 22 24 23 14 25 15 26
 SMILES IDX 16 27 17 28 21 29 18 30 20 31 19 32
 H PARENT 10 2 2 14 23 24

>  <TORSDO>  (1) 
F 7

$$$$
