/home/pchatterjee/Documents/git/vs_workflow/DiffDock/diffdock_run/pdbqt_scrubbed/5329562.pdbqt
     RDKit          3D

 29 32  0  0  1  0  0  0  0  0999 V2000
    7.3510   42.8849   48.8441 N   0  0  0  0  0  0  0  0  0  0  0  0
    6.1611   42.1291   48.6283 C   0  0  0  0  0  0  0  0  0  0  0  0
    3.8124   40.6414   48.2158 C   0  0  0  0  0  0  0  0  0  0  0  0
    4.7337   40.8544   47.2093 C   0  0  0  0  0  3  0  0  0  0  0  0
    4.0969   41.2004   49.4599 C   0  0  0  0  0  3  0  0  0  0  0  0
    5.8968   41.5797   47.3774 C   0  0  0  0  0  3  0  0  0  0  0  0
    5.2485   41.9311   49.6662 C   0  0  0  0  0  3  0  0  0  0  0  0
    2.3478   39.7104   47.9480 S   0  0  2  0  0  0  0  0  0  0  0  0
    1.9407   39.1331   49.2870 O   0  0  0  0  0  0  0  0  0  0  0  0
    2.6717   38.6201   46.9718 O   0  0  0  0  0  0  0  0  0  0  0  0
    1.1086   40.7643   47.3719 N   0  0  0  0  0  0  0  0  0  0  0  0
    0.5505   41.4561   48.5185 C   0  0  0  0  0  1  0  0  0  0  0  0
    7.9139   42.8432   50.1800 C   0  0  0  0  0  3  0  0  0  0  0  0
    6.9502   43.4742   51.0687 N   0  0  0  0  0  0  0  0  0  0  0  0
    9.2073   43.5002   50.2654 N   0  0  0  0  0  0  0  0  0  0  0  0
    6.9774   44.7771   51.1801 C   0  0  0  0  0  0  0  0  0  0  0  0
    9.2465   44.7776   50.3733 C   0  0  0  0  0  0  0  0  0  0  0  0
    7.9744   45.5599   50.4086 C   0  0  0  0  0  3  0  0  0  0  0  0
   10.2726   45.7744   50.4840 N   0  0  0  0  0  0  0  0  0  0  0  0
    8.3585   46.7845   51.0961 N   0  0  0  0  0  0  0  0  0  0  0  0
    9.7668   46.8906   50.8880 C   0  0  0  0  0  3  0  0  0  0  0  0
    6.0479   45.3335   52.0321 O   0  0  0  0  0  0  0  0  0  0  0  0
    4.7977   44.6838   52.3061 C   0  0  0  0  0  2  0  0  0  0  0  0
    3.8988   45.5121   53.1553 C   0  0  0  0  0  3  0  0  0  0  0  0
    3.7116   46.9242   52.7242 C   0  0  0  0  0  2  0  0  0  0  0  0
    2.6914   44.8230   53.6851 C   0  0  0  0  0  2  0  0  0  0  0  0
    2.4610   47.1122   51.9228 C   0  0  0  0  0  2  0  0  0  0  0  0
    1.3988   45.2321   53.0404 C   0  0  0  0  0  2  0  0  0  0  0  0
    1.2818   46.7239   52.8137 C   0  0  0  0  0  2  0  0  0  0  0  0
  2  1  1  0
  3  4  2  0
  3  5  1  0
  4  6  1  0
  5  7  2  0
  6  2  2  0
  7  2  1  0
  8  9  2  0
  8  3  1  0
 10  8  2  0
  8 11  1  6
 12 11  1  0
 13  1  1  0
 13 14  1  0
 13 15  1  0
 14 16  2  0
 15 17  2  0
 16 22  1  0
 17 18  1  0
 17 19  1  0
 18 16  1  0
 18 20  1  0
 19 21  2  0
 20 21  1  0
 23 24  1  0
 23 22  1  0
 24 26  1  0
 24 25  1  0
 25 27  1  0
 26 28  1  0
 28 29  1  0
 29 27  1  0
M  RAD  8   4   2   5   2   6   2   7   2  12   2  13   2  18   2  21   2
M  RAD  7  23   3  24   2  25   3  26   3  27   3  28   3  29   3
M  END
>  <REMARK>  (1) 
 SMILES CNS(=O)(=O)c1ccc(Nc2nc(OCC3CCCCC3)c3[nH]cnc3n2)cc1
 SMILES IDX 10 1 9 3 6 4 7 5 29 6 8 7 28 8 3 9 4 10 5 11 2 12 1 13 11 15
 SMILES IDX 12 16 27 17 13 18 26 19 22 20 25 21 23 22 24 23 14 25 15 26
 SMILES IDX 16 27 17 28 21 29 18 30 20 31 19 32
 H PARENT 10 2 2 14 23 24

>  <TORSDO>  (1) 
F 7

$$$$
