/home/pchatterjee/Documents/git/vs_workflow/DiffDock/diffdock_run/pdbqt_scrubbed/5329562.pdbqt
     RDKit          3D

 29 32  0  0  1  0  0  0  0  0999 V2000
    7.3404   43.0560   49.0627 N   0  0  0  0  0  0  0  0  0  0  0  0
    6.1093   42.3789   48.8184 C   0  0  0  0  0  0  0  0  0  0  0  0
    3.6781   41.0492   48.3484 C   0  0  0  0  0  0  0  0  0  0  0  0
    4.7363   40.9807   47.4636 C   0  0  0  0  0  3  0  0  0  0  0  0
    3.8659   41.8134   49.4981 C   0  0  0  0  0  3  0  0  0  0  0  0
    5.9435   41.6209   47.6632 C   0  0  0  0  0  3  0  0  0  0  0  0
    5.0576   42.4674   49.7323 C   0  0  0  0  0  3  0  0  0  0  0  0
    2.1630   40.2147   48.0457 S   0  0  2  0  0  0  0  0  0  0  0  0
    2.5043   38.7653   47.7728 O   0  0  0  0  0  0  0  0  0  0  0  0
    1.5240   40.8485   46.8471 O   0  0  0  0  0  0  0  0  0  0  0  0
    1.1715   40.3201   49.4543 N   0  0  0  0  0  0  0  0  0  0  0  0
    0.4229   41.5602   49.3740 C   0  0  0  0  0  1  0  0  0  0  0  0
    7.7998   43.0931   50.4378 C   0  0  0  0  0  3  0  0  0  0  0  0
    6.8629   43.9243   51.1780 N   0  0  0  0  0  0  0  0  0  0  0  0
    9.1559   43.6000   50.5637 N   0  0  0  0  0  0  0  0  0  0  0  0
    7.0443   45.2195   51.1623 C   0  0  0  0  0  0  0  0  0  0  0  0
    9.3463   44.8683   50.5480 C   0  0  0  0  0  0  0  0  0  0  0  0
    8.1821   45.7929   50.4016 C   0  0  0  0  0  3  0  0  0  0  0  0
   10.4783   45.7447   50.6435 N   0  0  0  0  0  0  0  0  0  0  0  0
    8.6672   47.0312   50.9942 N   0  0  0  0  0  0  0  0  0  0  0  0
   10.0887   46.9492   50.8928 C   0  0  0  0  0  3  0  0  0  0  0  0
    6.1345   45.9691   51.8762 O   0  0  0  0  0  0  0  0  0  0  0  0
    4.7484   45.6027   51.9430 C   0  0  0  0  0  2  0  0  0  0  0  0
    4.0310   46.2849   53.0544 C   0  0  0  0  0  3  0  0  0  0  0  0
    2.5867   46.5618   52.8264 C   0  0  0  0  0  2  0  0  0  0  0  0
    4.4072   45.8559   54.4284 C   0  0  0  0  0  2  0  0  0  0  0  0
    1.7049   45.5176   53.4375 C   0  0  0  0  0  2  0  0  0  0  0  0
    3.3763   45.0221   55.1324 C   0  0  0  0  0  2  0  0  0  0  0  0
    1.9611   45.5242   54.9439 C   0  0  0  0  0  2  0  0  0  0  0  0
  2  1  1  0
  3  4  2  0
  3  5  1  0
  4  6  1  0
  5  7  2  0
  6  2  2  0
  7  2  1  0
  8  9  2  0
  8  3  1  0
 10  8  2  0
  8 11  1  1
 12 11  1  0
 13  1  1  0
 13 14  1  0
 13 15  1  0
 14 16  2  0
 15 17  2  0
 16 22  1  0
 17 18  1  0
 17 19  1  0
 18 16  1  0
 18 20  1  0
 19 21  2  0
 20 21  1  0
 23 24  1  0
 23 22  1  0
 24 26  1  0
 24 25  1  0
 25 27  1  0
 26 28  1  0
 28 29  1  0
 29 27  1  0
M  RAD  8   4   2   5   2   6   2   7   2  12   2  13   2  18   2  21   2
M  RAD  7  23   3  24   2  25   3  26   3  27   3  28   3  29   3
M  END
>  <REMARK>  (1) 
 SMILES CNS(=O)(=O)c1ccc(Nc2nc(OCC3CCCCC3)c3[nH]cnc3n2)cc1
 SMILES IDX 10 1 9 3 6 4 7 5 29 6 8 7 28 8 3 9 4 10 5 11 2 12 1 13 11 15
 SMILES IDX 12 16 27 17 13 18 26 19 22 20 25 21 23 22 24 23 14 25 15 26
 SMILES IDX 16 27 17 28 21 29 18 30 20 31 19 32
 H PARENT 10 2 2 14 23 24

>  <TORSDO>  (1) 
F 7

$$$$
