/home/pchatterjee/Documents/git/vs_workflow/DiffDock/diffdock_run/pdbqt_scrubbed/5329562.pdbqt
     RDKit          3D

 29 32  0  0  1  0  0  0  0  0999 V2000
    7.1591   42.9958   48.8078 N   0  0  0  0  0  0  0  0  0  0  0  0
    5.9444   42.2588   48.6844 C   0  0  0  0  0  0  0  0  0  0  0  0
    3.5532   40.8042   48.4280 C   0  0  0  0  0  0  0  0  0  0  0  0
    3.9496   41.3611   49.6281 C   0  0  0  0  0  3  0  0  0  0  0  0
    4.3964   40.9945   47.3354 C   0  0  0  0  0  3  0  0  0  0  0  0
    5.1171   42.0810   49.7891 C   0  0  0  0  0  3  0  0  0  0  0  0
    5.5707   41.7077   47.4572 C   0  0  0  0  0  3  0  0  0  0  0  0
    2.0571   39.8971   48.2781 S   0  0  2  0  0  0  0  0  0  0  0  0
    1.9160   39.0674   49.5365 O   0  0  0  0  0  0  0  0  0  0  0  0
    2.1746   39.0191   47.0690 O   0  0  0  0  0  0  0  0  0  0  0  0
    0.7375   41.0033   48.1636 N   0  0  0  0  0  0  0  0  0  0  0  0
    0.4236   41.4548   49.5062 C   0  0  0  0  0  1  0  0  0  0  0  0
    7.8604   42.8854   50.0724 C   0  0  0  0  0  3  0  0  0  0  0  0
    7.0973   43.6446   51.0510 N   0  0  0  0  0  0  0  0  0  0  0  0
    9.2310   43.3628   49.9983 N   0  0  0  0  0  0  0  0  0  0  0  0
    7.3101   44.9325   51.1323 C   0  0  0  0  0  0  0  0  0  0  0  0
    9.4518   44.6239   50.0753 C   0  0  0  0  0  0  0  0  0  0  0  0
    8.3076   45.5704   50.2378 C   0  0  0  0  0  3  0  0  0  0  0  0
   10.6073   45.4742   50.0495 N   0  0  0  0  0  0  0  0  0  0  0  0
    8.9273   46.7355   50.8527 N   0  0  0  0  0  0  0  0  0  0  0  0
   10.3041   46.6503   50.4853 C   0  0  0  0  0  3  0  0  0  0  0  0
    6.5664   45.6130   52.0721 O   0  0  0  0  0  0  0  0  0  0  0  0
    5.5922   44.9436   52.8862 C   0  0  0  0  0  2  0  0  0  0  0  0
    4.2554   44.8750   52.2356 C   0  0  0  0  0  3  0  0  0  0  0  0
    3.2245   44.0697   52.9453 C   0  0  0  0  0  2  0  0  0  0  0  0
    3.7802   46.1318   51.5970 C   0  0  0  0  0  2  0  0  0  0  0  0
    2.3226   44.9173   53.7877 C   0  0  0  0  0  2  0  0  0  0  0  0
    2.6738   46.8323   52.3312 C   0  0  0  0  0  2  0  0  0  0  0  0
    1.6078   45.8946   52.8556 C   0  0  0  0  0  2  0  0  0  0  0  0
  2  1  1  0
  3  4  2  0
  3  5  1  0
  4  6  1  0
  5  7  2  0
  6  2  2  0
  7  2  1  0
  8  9  2  0
  8  3  1  0
 10  8  2  0
  8 11  1  6
 12 11  1  0
 13  1  1  0
 13 14  1  0
 13 15  1  0
 14 16  2  0
 15 17  2  0
 16 22  1  0
 17 18  1  0
 17 19  1  0
 18 16  1  0
 18 20  1  0
 19 21  2  0
 20 21  1  0
 23 24  1  0
 23 22  1  0
 24 26  1  0
 24 25  1  0
 25 27  1  0
 26 28  1  0
 28 29  1  0
 29 27  1  0
M  RAD  8   4   2   5   2   6   2   7   2  12   2  13   2  18   2  21   2
M  RAD  7  23   3  24   2  25   3  26   3  27   3  28   3  29   3
M  END
>  <REMARK>  (1) 
 SMILES CNS(=O)(=O)c1ccc(Nc2nc(OCC3CCCCC3)c3[nH]cnc3n2)cc1
 SMILES IDX 10 1 9 3 6 4 7 5 29 6 8 7 28 8 3 9 4 10 5 11 2 12 1 13 11 15
 SMILES IDX 12 16 27 17 13 18 26 19 22 20 25 21 23 22 24 23 14 25 15 26
 SMILES IDX 16 27 17 28 21 29 18 30 20 31 19 32
 H PARENT 10 2 2 14 23 24

>  <TORSDO>  (1) 
F 7

$$$$
