/home/pchatterjee/Documents/git/vs_workflow/DiffDock/diffdock_run/pdbqt_scrubbed/5329562.pdbqt
     RDKit          3D

 29 32  0  0  1  0  0  0  0  0999 V2000
    7.4202   42.9328   49.0986 N   0  0  0  0  0  0  0  0  0  0  0  0
    6.2389   42.1486   48.9456 C   0  0  0  0  0  0  0  0  0  0  0  0
    3.9072   40.6061   48.6566 C   0  0  0  0  0  0  0  0  0  0  0  0
    4.8321   40.7378   47.6395 C   0  0  0  0  0  3  0  0  0  0  0  0
    4.1793   41.2769   49.8471 C   0  0  0  0  0  3  0  0  0  0  0  0
    5.9871   41.4870   47.7475 C   0  0  0  0  0  3  0  0  0  0  0  0
    5.3225   42.0348   49.9927 C   0  0  0  0  0  3  0  0  0  0  0  0
    2.4534   39.6400   48.4663 S   0  0  2  0  0  0  0  0  0  0  0  0
    2.6080   38.4287   49.3611 O   0  0  0  0  0  0  0  0  0  0  0  0
    2.3606   39.2330   47.0267 O   0  0  0  0  0  0  0  0  0  0  0  0
    1.0907   40.5670   48.9783 N   0  0  0  0  0  0  0  0  0  0  0  0
    0.9145   41.6511   48.0304 C   0  0  0  0  0  1  0  0  0  0  0  0
    7.9724   43.0217   50.4367 C   0  0  0  0  0  3  0  0  0  0  0  0
    7.0307   43.7900   51.2364 N   0  0  0  0  0  0  0  0  0  0  0  0
    9.2919   43.6300   50.4607 N   0  0  0  0  0  0  0  0  0  0  0  0
    7.1124   45.0948   51.1981 C   0  0  0  0  0  0  0  0  0  0  0  0
    9.3845   44.9087   50.4220 C   0  0  0  0  0  0  0  0  0  0  0  0
    8.1466   45.7418   50.3532 C   0  0  0  0  0  3  0  0  0  0  0  0
   10.4512   45.8682   50.4292 N   0  0  0  0  0  0  0  0  0  0  0  0
    8.5779   47.0203   50.9001 N   0  0  0  0  0  0  0  0  0  0  0  0
    9.9907   47.0434   50.6970 C   0  0  0  0  0  3  0  0  0  0  0  0
    6.2019   45.7834   51.9702 O   0  0  0  0  0  0  0  0  0  0  0  0
    4.8729   45.2861   52.1859 C   0  0  0  0  0  2  0  0  0  0  0  0
    4.1112   46.1027   53.1699 C   0  0  0  0  0  3  0  0  0  0  0  0
    2.7491   46.5294   52.7487 C   0  0  0  0  0  2  0  0  0  0  0  0
    4.2622   45.7064   54.5959 C   0  0  0  0  0  2  0  0  0  0  0  0
    1.6808   45.6256   53.2810 C   0  0  0  0  0  2  0  0  0  0  0  0
    3.0607   45.0331   55.1932 C   0  0  0  0  0  2  0  0  0  0  0  0
    1.7493   45.6820   54.8064 C   0  0  0  0  0  2  0  0  0  0  0  0
  2  1  1  0
  3  4  2  0
  3  5  1  0
  4  6  1  0
  5  7  2  0
  6  2  2  0
  7  2  1  0
  8  9  2  0
  8  3  1  0
 10  8  2  0
  8 11  1  1
 12 11  1  0
 13  1  1  0
 13 14  1  0
 13 15  1  0
 14 16  2  0
 15 17  2  0
 16 22  1  0
 17 18  1  0
 17 19  1  0
 18 16  1  0
 18 20  1  0
 19 21  2  0
 20 21  1  0
 23 24  1  0
 23 22  1  0
 24 26  1  0
 24 25  1  0
 25 27  1  0
 26 28  1  0
 28 29  1  0
 29 27  1  0
M  RAD  8   4   2   5   2   6   2   7   2  12   2  13   2  18   2  21   2
M  RAD  7  23   3  24   2  25   3  26   3  27   3  28   3  29   3
M  END
>  <REMARK>  (1) 
 SMILES CNS(=O)(=O)c1ccc(Nc2nc(OCC3CCCCC3)c3[nH]cnc3n2)cc1
 SMILES IDX 10 1 9 3 6 4 7 5 29 6 8 7 28 8 3 9 4 10 5 11 2 12 1 13 11 15
 SMILES IDX 12 16 27 17 13 18 26 19 22 20 25 21 23 22 24 23 14 25 15 26
 SMILES IDX 16 27 17 28 21 29 18 30 20 31 19 32
 H PARENT 10 2 2 14 23 24

>  <TORSDO>  (1) 
F 7

$$$$
