/home/pchatterjee/Documents/git/vs_workflow/DiffDock/diffdock_run/pdbqt_scrubbed/5329562.pdbqt
     RDKit          3D

 29 32  0  0  1  0  0  0  0  0999 V2000
    6.9707   43.3772   48.9784 N   0  0  0  0  0  0  0  0  0  0  0  0
    5.7616   42.6520   48.7641 C   0  0  0  0  0  0  0  0  0  0  0  0
    3.3833   41.2185   48.3299 C   0  0  0  0  0  0  0  0  0  0  0  0
    3.5908   41.9699   49.4699 C   0  0  0  0  0  3  0  0  0  0  0  0
    4.4129   41.1989   47.3915 C   0  0  0  0  0  3  0  0  0  0  0  0
    4.7461   42.6857   49.7150 C   0  0  0  0  0  3  0  0  0  0  0  0
    5.5815   41.9011   47.6009 C   0  0  0  0  0  3  0  0  0  0  0  0
    1.8937   40.3263   48.0679 S   0  0  2  0  0  0  0  0  0  0  0  0
    2.2681   39.0389   47.3648 O   0  0  0  0  0  0  0  0  0  0  0  0
    1.0031   41.1678   47.2045 O   0  0  0  0  0  0  0  0  0  0  0  0
    1.1788   39.9638   49.5963 N   0  0  0  0  0  0  0  0  0  0  0  0
    0.3714   41.1043   49.9863 C   0  0  0  0  0  1  0  0  0  0  0  0
    7.6021   43.2193   50.2744 C   0  0  0  0  0  3  0  0  0  0  0  0
    6.7743   43.9245   51.2408 N   0  0  0  0  0  0  0  0  0  0  0  0
    8.9673   43.7166   50.2986 N   0  0  0  0  0  0  0  0  0  0  0  0
    6.9629   45.2101   51.3903 C   0  0  0  0  0  0  0  0  0  0  0  0
    9.1647   44.9757   50.4431 C   0  0  0  0  0  0  0  0  0  0  0  0
    7.9991   45.8996   50.5821 C   0  0  0  0  0  3  0  0  0  0  0  0
   10.3069   45.8407   50.5197 N   0  0  0  0  0  0  0  0  0  0  0  0
    8.5660   47.0438   51.2815 N   0  0  0  0  0  0  0  0  0  0  0  0
    9.9623   46.9922   50.9888 C   0  0  0  0  0  3  0  0  0  0  0  0
    6.1580   45.8387   52.3156 O   0  0  0  0  0  0  0  0  0  0  0  0
    5.1210   45.1313   53.0115 C   0  0  0  0  0  2  0  0  0  0  0  0
    3.9366   44.8635   52.1508 C   0  0  0  0  0  3  0  0  0  0  0  0
    2.9911   43.8263   52.6457 C   0  0  0  0  0  2  0  0  0  0  0  0
    3.3232   46.0545   51.5038 C   0  0  0  0  0  2  0  0  0  0  0  0
    1.8239   44.4213   53.3703 C   0  0  0  0  0  2  0  0  0  0  0  0
    2.0032   46.4754   52.0817 C   0  0  0  0  0  2  0  0  0  0  0  0
    1.0774   45.3164   52.3821 C   0  0  0  0  0  2  0  0  0  0  0  0
  2  1  1  0
  3  4  2  0
  3  5  1  0
  4  6  1  0
  5  7  2  0
  6  2  2  0
  7  2  1  0
  8  9  2  0
  8  3  1  0
 10  8  2  0
  8 11  1  1
 12 11  1  0
 13  1  1  0
 13 14  1  0
 13 15  1  0
 14 16  2  0
 15 17  2  0
 16 22  1  0
 17 18  1  0
 17 19  1  0
 18 16  1  0
 18 20  1  0
 19 21  2  0
 20 21  1  0
 23 24  1  0
 23 22  1  0
 24 26  1  0
 24 25  1  0
 25 27  1  0
 26 28  1  0
 28 29  1  0
 29 27  1  0
M  RAD  8   4   2   5   2   6   2   7   2  12   2  13   2  18   2  21   2
M  RAD  7  23   3  24   2  25   3  26   3  27   3  28   3  29   3
M  END
>  <REMARK>  (1) 
 SMILES CNS(=O)(=O)c1ccc(Nc2nc(OCC3CCCCC3)c3[nH]cnc3n2)cc1
 SMILES IDX 10 1 9 3 6 4 7 5 29 6 8 7 28 8 3 9 4 10 5 11 2 12 1 13 11 15
 SMILES IDX 12 16 27 17 13 18 26 19 22 20 25 21 23 22 24 23 14 25 15 26
 SMILES IDX 16 27 17 28 21 29 18 30 20 31 19 32
 H PARENT 10 2 2 14 23 24

>  <TORSDO>  (1) 
F 7

$$$$
