/home/pchatterjee/Documents/git/vs_workflow/DiffDock/diffdock_run/pdbqt_scrubbed/5329562.pdbqt
     RDKit          3D

 29 32  0  0  1  0  0  0  0  0999 V2000
    7.1751   43.0944   49.0525 N   0  0  0  0  0  0  0  0  0  0  0  0
    6.0322   42.2698   48.8341 C   0  0  0  0  0  0  0  0  0  0  0  0
    3.7768   40.6454   48.4167 C   0  0  0  0  0  0  0  0  0  0  0  0
    4.6289   40.9981   47.3887 C   0  0  0  0  0  3  0  0  0  0  0  0
    4.0834   41.1330   49.6853 C   0  0  0  0  0  3  0  0  0  0  0  0
    5.7449   41.7937   47.5585 C   0  0  0  0  0  3  0  0  0  0  0  0
    5.1893   41.9305   49.8942 C   0  0  0  0  0  3  0  0  0  0  0  0
    2.3701   39.6299   48.1457 S   0  0  2  0  0  0  0  0  0  0  0  0
    2.1521   38.8305   49.4127 O   0  0  0  0  0  0  0  0  0  0  0  0
    2.6750   38.7265   46.9892 O   0  0  0  0  0  0  0  0  0  0  0  0
    0.9984   40.6353   47.8530 N   0  0  0  0  0  0  0  0  0  0  0  0
    0.5530   41.1559   49.1319 C   0  0  0  0  0  1  0  0  0  0  0  0
    7.8205   42.9809   50.3463 C   0  0  0  0  0  3  0  0  0  0  0  0
    6.9720   43.6677   51.3079 N   0  0  0  0  0  0  0  0  0  0  0  0
    9.1653   43.5317   50.3534 N   0  0  0  0  0  0  0  0  0  0  0  0
    7.1110   44.9618   51.4369 C   0  0  0  0  0  0  0  0  0  0  0  0
    9.3140   44.7995   50.4778 C   0  0  0  0  0  0  0  0  0  0  0  0
    8.1140   45.6791   50.6114 C   0  0  0  0  0  3  0  0  0  0  0  0
   10.4219   45.7096   50.5335 N   0  0  0  0  0  0  0  0  0  0  0  0
    8.6401   46.8550   51.2896 N   0  0  0  0  0  0  0  0  0  0  0  0
   10.0354   46.8538   50.9879 C   0  0  0  0  0  3  0  0  0  0  0  0
    6.2879   45.5724   52.3585 O   0  0  0  0  0  0  0  0  0  0  0  0
    5.2297   44.8549   53.0107 C   0  0  0  0  0  2  0  0  0  0  0  0
    3.9540   44.8999   52.2453 C   0  0  0  0  0  3  0  0  0  0  0  0
    2.8601   44.0249   52.7478 C   0  0  0  0  0  2  0  0  0  0  0  0
    3.5444   46.2403   51.7465 C   0  0  0  0  0  2  0  0  0  0  0  0
    1.8940   44.7667   53.6183 C   0  0  0  0  0  2  0  0  0  0  0  0
    2.3831   46.8549   52.4727 C   0  0  0  0  0  2  0  0  0  0  0  0
    1.2694   45.8745   52.7712 C   0  0  0  0  0  2  0  0  0  0  0  0
  2  1  1  0
  3  4  2  0
  3  5  1  0
  4  6  1  0
  5  7  2  0
  6  2  2  0
  7  2  1  0
  8  9  2  0
  8  3  1  0
 10  8  2  0
  8 11  1  6
 12 11  1  0
 13  1  1  0
 13 14  1  0
 13 15  1  0
 14 16  2  0
 15 17  2  0
 16 22  1  0
 17 18  1  0
 17 19  1  0
 18 16  1  0
 18 20  1  0
 19 21  2  0
 20 21  1  0
 23 24  1  0
 23 22  1  0
 24 26  1  0
 24 25  1  0
 25 27  1  0
 26 28  1  0
 28 29  1  0
 29 27  1  0
M  RAD  8   4   2   5   2   6   2   7   2  12   2  13   2  18   2  21   2
M  RAD  7  23   3  24   2  25   3  26   3  27   3  28   3  29   3
M  END
>  <REMARK>  (1) 
 SMILES CNS(=O)(=O)c1ccc(Nc2nc(OCC3CCCCC3)c3[nH]cnc3n2)cc1
 SMILES IDX 10 1 9 3 6 4 7 5 29 6 8 7 28 8 3 9 4 10 5 11 2 12 1 13 11 15
 SMILES IDX 12 16 27 17 13 18 26 19 22 20 25 21 23 22 24 23 14 25 15 26
 SMILES IDX 16 27 17 28 21 29 18 30 20 31 19 32
 H PARENT 10 2 2 14 23 24

>  <TORSDO>  (1) 
F 7

$$$$
