/home/pchatterjee/Documents/git/vs_workflow/DiffDock/diffdock_run/pdbqt_scrubbed/Z1041114218.pdbqt
     RDKit          3D

 29 33  0  0  0  0  0  0  0  0999 V2000
    5.5811   43.9977   50.7138 C   0  0  0  0  0  0  0  0  0  0  0  0
    6.3526   44.9909   51.1909 N   0  0  0  0  0  0  0  0  0  0  0  0
    7.6672   45.0984   50.8393 C   0  0  0  0  0  0  0  0  0  0  0  0
    8.2012   44.1858   49.9938 N   0  0  0  0  0  0  0  0  0  0  0  0
    7.4571   43.1671   49.4890 C   0  0  0  0  0  0  0  0  0  0  0  0
    7.9746   42.2535   48.6481 N   0  0  0  0  0  0  0  0  0  0  0  0
    7.2253   41.2359   48.1458 C   0  0  0  0  0  3  0  0  0  0  0  0
    5.8887   41.1303   48.5061 C   0  0  0  0  0  3  0  0  0  0  0  0
    5.3757   42.0491   49.3492 N   0  0  0  0  0  0  0  0  0  0  0  0
    6.1280   43.0655   49.8497 C   0  0  0  0  0  0  0  0  0  0  0  0
    4.2170   43.9241   51.1066 N   0  0  0  0  0  0  0  0  0  0  0  0
    3.7830   44.8314   52.1138 C   0  0  0  0  0  0  0  0  0  0  0  0
    2.8964   46.6500   53.9757 C   0  0  0  0  0  3  0  0  0  0  0  0
    2.6370   46.8498   52.6482 C   0  0  0  0  0  3  0  0  0  0  0  0
    3.5990   45.5490   54.4173 C   0  0  0  0  0  3  0  0  0  0  0  0
    3.0721   45.9494   51.6896 C   0  0  0  0  0  3  0  0  0  0  0  0
    4.0402   44.6386   53.4604 C   0  0  0  0  0  3  0  0  0  0  0  0
    8.4213   46.1753   51.3836 N   0  0  0  0  0  0  0  0  0  0  0  0
    9.8715   46.1948   51.4112 C   0  0  0  0  0  2  0  0  0  0  0  0
    7.7192   47.3026   51.9349 C   0  0  0  0  0  2  0  0  0  0  0  0
   10.2643   46.2377   52.8710 C   0  0  0  0  0  2  0  0  0  0  0  0
    8.6209   48.1870   52.7710 C   0  0  0  0  0  2  0  0  0  0  0  0
    9.6492   47.4216   53.4421 N   0  0  0  0  0  0  0  0  0  0  0  0
   10.1094   47.8268   54.7442 C   0  0  0  0  0  0  0  0  0  0  0  0
   11.3420   47.3308   55.1225 C   0  0  0  0  0  3  0  0  0  0  0  0
    9.3474   48.6543   55.5345 C   0  0  0  0  0  3  0  0  0  0  0  0
   11.7815   47.7229   56.3763 C   0  0  0  0  0  3  0  0  0  0  0  0
    9.8066   49.0308   56.7790 C   0  0  0  0  0  3  0  0  0  0  0  0
   11.0380   48.5523   57.1906 C   0  0  0  0  0  3  0  0  0  0  0  0
  1 10  1  0
  2  1  2  0
  2  3  1  0
  3  4  2  0
  4  5  1  0
  5  6  2  0
  6  7  1  0
  8  7  2  0
  9  8  1  0
 10  9  2  0
 10  5  1  0
 11  1  1  0
 12 11  1  0
 12 17  2  0
 13 15  2  0
 14 16  2  0
 14 13  1  0
 15 17  1  0
 16 12  1  0
 18  3  1  0
 19 18  1  0
 20 18  1  0
 21 23  1  0
 21 19  1  0
 22 20  1  0
 23 22  1  0
 24 23  1  0
 25 24  2  0
 26 24  1  0
 27 25  1  0
 28 26  2  0
 29 27  2  0
 29 28  1  0
M  RAD  8   7   2   8   2  13   2  14   2  15   2  16   2  17   2  19   3
M  RAD  8  20   3  21   3  22   3  25   2  26   2  27   2  28   2  29   2
M  END
>  <REMARK>  (1) 
 SMILES c1ccc(Nc2nc(N3CCN(c4ccccc4)CC3)nc3nccnc23)cc1
 SMILES IDX 6 1 7 2 8 3 21 4 22 5 23 6 24 7 25 8 26 9 27 10 5 11 4 13
 SMILES IDX 1 14 2 15 29 16 3 17 28 18 9 19 10 20 20 21 11 22 19 23
 SMILES IDX 12 24 13 25 14 26 18 27 15 28 17 29 16 30
 H PARENT 5 12

>  <TORSDO>  (1) 
F 4

$$$$
