/home/pchatterjee/Documents/git/vs_workflow/DiffDock/diffdock_run/pdbqt_scrubbed/Z1041114218.pdbqt
     RDKit          3D

 29 33  0  0  0  0  0  0  0  0999 V2000
    6.8988   43.5334   50.0720 C   0  0  0  0  0  0  0  0  0  0  0  0
    5.5904   43.6941   50.3393 N   0  0  0  0  0  0  0  0  0  0  0  0
    5.1522   44.6939   51.1589 C   0  0  0  0  0  0  0  0  0  0  0  0
    6.0550   45.5381   51.7114 N   0  0  0  0  0  0  0  0  0  0  0  0
    7.3857   45.4108   51.4675 C   0  0  0  0  0  0  0  0  0  0  0  0
    8.2936   46.2423   52.0096 N   0  0  0  0  0  0  0  0  0  0  0  0
    9.6243   46.1103   51.7621 C   0  0  0  0  0  3  0  0  0  0  0  0
   10.0656   45.0921   50.9279 C   0  0  0  0  0  3  0  0  0  0  0  0
    9.1507   44.2619   50.3876 N   0  0  0  0  0  0  0  0  0  0  0  0
    7.8206   44.3967   50.6372 C   0  0  0  0  0  0  0  0  0  0  0  0
    7.3105   42.4785   49.2128 N   0  0  0  0  0  0  0  0  0  0  0  0
    6.2861   41.6830   48.6267 C   0  0  0  0  0  0  0  0  0  0  0  0
    4.2547   40.1411   47.5991 C   0  0  0  0  0  3  0  0  0  0  0  0
    4.2478   40.4866   48.9220 C   0  0  0  0  0  3  0  0  0  0  0  0
    5.2629   40.5472   46.7510 C   0  0  0  0  0  3  0  0  0  0  0  0
    5.2587   41.2624   49.4652 C   0  0  0  0  0  3  0  0  0  0  0  0
    6.2834   41.3274   47.2888 C   0  0  0  0  0  3  0  0  0  0  0  0
    3.7534   44.8025   51.3959 N   0  0  0  0  0  0  0  0  0  0  0  0
    3.0391   46.0648   51.3682 C   0  0  0  0  0  2  0  0  0  0  0  0
    3.0044   43.6077   51.6771 C   0  0  0  0  0  2  0  0  0  0  0  0
    2.4771   46.2611   52.7584 C   0  0  0  0  0  2  0  0  0  0  0  0
    1.6308   43.9107   52.2390 C   0  0  0  0  0  2  0  0  0  0  0  0
    1.6341   45.1143   53.0419 N   0  0  0  0  0  0  0  0  0  0  0  0
    0.7693   45.2136   54.1881 C   0  0  0  0  0  0  0  0  0  0  0  0
    0.6368   44.0607   54.9374 C   0  0  0  0  0  3  0  0  0  0  0  0
    0.1318   46.3939   54.4892 C   0  0  0  0  0  3  0  0  0  0  0  0
   -0.1963   44.1602   56.0396 C   0  0  0  0  0  3  0  0  0  0  0  0
   -0.6927   46.4680   55.5920 C   0  0  0  0  0  3  0  0  0  0  0  0
   -0.8486   45.3314   56.3657 C   0  0  0  0  0  3  0  0  0  0  0  0
  1 10  1  0
  2  1  2  0
  2  3  1  0
  3  4  2  0
  4  5  1  0
  5  6  2  0
  6  7  1  0
  8  7  2  0
  9  8  1  0
 10  9  2  0
 10  5  1  0
 11  1  1  0
 12 11  1  0
 12 17  2  0
 13 15  2  0
 14 16  2  0
 14 13  1  0
 15 17  1  0
 16 12  1  0
 18  3  1  0
 19 18  1  0
 20 18  1  0
 21 23  1  0
 21 19  1  0
 22 20  1  0
 23 22  1  0
 24 23  1  0
 25 24  2  0
 26 24  1  0
 27 25  1  0
 28 26  2  0
 29 27  2  0
 29 28  1  0
M  RAD  8   7   2   8   2  13   2  14   2  15   2  16   2  17   2  19   3
M  RAD  8  20   3  21   3  22   3  25   2  26   2  27   2  28   2  29   2
M  END
>  <REMARK>  (1) 
 SMILES c1ccc(Nc2nc(N3CCN(c4ccccc4)CC3)nc3nccnc23)cc1
 SMILES IDX 6 1 7 2 8 3 21 4 22 5 23 6 24 7 25 8 26 9 27 10 5 11 4 13
 SMILES IDX 1 14 2 15 29 16 3 17 28 18 9 19 10 20 20 21 11 22 19 23
 SMILES IDX 12 24 13 25 14 26 18 27 15 28 17 29 16 30
 H PARENT 5 12

>  <TORSDO>  (1) 
F 4

$$$$
