/home/pchatterjee/Documents/git/vs_workflow/DiffDock/diffdock_run/pdbqt_scrubbed/Z1041114218.pdbqt
     RDKit          3D

 29 33  0  0  0  0  0  0  0  0999 V2000
    6.9096   43.4014   50.0950 C   0  0  0  0  0  0  0  0  0  0  0  0
    5.6474   43.7985   50.3364 N   0  0  0  0  0  0  0  0  0  0  0  0
    5.3850   44.9116   51.0816 C   0  0  0  0  0  0  0  0  0  0  0  0
    6.4178   45.6271   51.5859 N   0  0  0  0  0  0  0  0  0  0  0  0
    7.7076   45.2608   51.3658 C   0  0  0  0  0  0  0  0  0  0  0  0
    8.7433   45.9623   51.8607 N   0  0  0  0  0  0  0  0  0  0  0  0
   10.0324   45.5912   51.6373 C   0  0  0  0  0  3  0  0  0  0  0  0
   10.2948   44.4584   50.8788 C   0  0  0  0  0  3  0  0  0  0  0  0
    9.2525   43.7595   50.3856 N   0  0  0  0  0  0  0  0  0  0  0  0
    7.9645   44.1335   50.6108 C   0  0  0  0  0  0  0  0  0  0  0  0
    7.1367   42.2359   49.3136 N   0  0  0  0  0  0  0  0  0  0  0  0
    5.9892   41.5399   48.8398 C   0  0  0  0  0  0  0  0  0  0  0  0
    3.8214   40.1916   47.8184 C   0  0  0  0  0  3  0  0  0  0  0  0
    4.8769   40.5026   47.0068 C   0  0  0  0  0  3  0  0  0  0  0  0
    3.8091   40.5377   49.1529 C   0  0  0  0  0  3  0  0  0  0  0  0
    5.9812   41.1812   47.4957 C   0  0  0  0  0  3  0  0  0  0  0  0
    4.9153   41.2201   49.6529 C   0  0  0  0  0  3  0  0  0  0  0  0
    4.0248   45.2706   51.2953 N   0  0  0  0  0  0  0  0  0  0  0  0
    3.6211   46.5147   51.9226 C   0  0  0  0  0  2  0  0  0  0  0  0
    2.9945   44.3614   50.8716 C   0  0  0  0  0  2  0  0  0  0  0  0
    2.8818   46.1296   53.1844 C   0  0  0  0  0  2  0  0  0  0  0  0
    1.6443   44.7080   51.4644 C   0  0  0  0  0  2  0  0  0  0  0  0
    1.7714   45.2847   52.7853 N   0  0  0  0  0  0  0  0  0  0  0  0
    0.7627   45.0280   53.7794 C   0  0  0  0  0  0  0  0  0  0  0  0
    0.1428   46.1459   54.3032 C   0  0  0  0  0  3  0  0  0  0  0  0
    0.4603   43.7420   54.1601 C   0  0  0  0  0  3  0  0  0  0  0  0
   -0.8272   45.8948   55.2596 C   0  0  0  0  0  3  0  0  0  0  0  0
   -0.5094   43.5176   55.1144 C   0  0  0  0  0  3  0  0  0  0  0  0
   -1.1512   44.6150   55.6608 C   0  0  0  0  0  3  0  0  0  0  0  0
  1 10  1  0
  2  1  2  0
  2  3  1  0
  3  4  2  0
  4  5  1  0
  5  6  2  0
  6  7  1  0
  8  7  2  0
  9  8  1  0
 10  9  2  0
 10  5  1  0
 11  1  1  0
 12 11  1  0
 12 17  2  0
 13 15  2  0
 14 16  2  0
 14 13  1  0
 15 17  1  0
 16 12  1  0
 18  3  1  0
 19 18  1  0
 20 18  1  0
 21 23  1  0
 21 19  1  0
 22 20  1  0
 23 22  1  0
 24 23  1  0
 25 24  2  0
 26 24  1  0
 27 25  1  0
 28 26  2  0
 29 27  2  0
 29 28  1  0
M  RAD  8   7   2   8   2  13   2  14   2  15   2  16   2  17   2  19   3
M  RAD  8  20   3  21   3  22   3  25   2  26   2  27   2  28   2  29   2
M  END
>  <REMARK>  (1) 
 SMILES c1ccc(Nc2nc(N3CCN(c4ccccc4)CC3)nc3nccnc23)cc1
 SMILES IDX 6 1 7 2 8 3 21 4 22 5 23 6 24 7 25 8 26 9 27 10 5 11 4 13
 SMILES IDX 1 14 2 15 29 16 3 17 28 18 9 19 10 20 20 21 11 22 19 23
 SMILES IDX 12 24 13 25 14 26 18 27 15 28 17 29 16 30
 H PARENT 5 12

>  <TORSDO>  (1) 
F 4

$$$$
