/home/pchatterjee/Documents/git/vs_workflow/DiffDock/diffdock_run/pdbqt_scrubbed/Z1041114218.pdbqt
     RDKit          3D

 29 33  0  0  0  0  0  0  0  0999 V2000
    5.5511   43.9699   50.4517 C   0  0  0  0  0  0  0  0  0  0  0  0
    6.4833   44.5030   51.2616 N   0  0  0  0  0  0  0  0  0  0  0  0
    7.8155   44.3477   51.0073 C   0  0  0  0  0  0  0  0  0  0  0  0
    8.2018   43.6428   49.9179 N   0  0  0  0  0  0  0  0  0  0  0  0
    7.2927   43.0879   49.0741 C   0  0  0  0  0  0  0  0  0  0  0  0
    7.6625   42.3852   47.9883 N   0  0  0  0  0  0  0  0  0  0  0  0
    6.7483   41.8319   47.1470 C   0  0  0  0  0  3  0  0  0  0  0  0
    5.3945   41.9923   47.4095 C   0  0  0  0  0  3  0  0  0  0  0  0
    5.0303   42.6977   48.4993 N   0  0  0  0  0  0  0  0  0  0  0  0
    5.9471   43.2497   49.3385 C   0  0  0  0  0  0  0  0  0  0  0  0
    4.1749   44.1565   50.7548 N   0  0  0  0  0  0  0  0  0  0  0  0
    3.8649   44.9136   51.9195 C   0  0  0  0  0  0  0  0  0  0  0  0
    3.2249   46.4611   54.1003 C   0  0  0  0  0  3  0  0  0  0  0  0
    2.9731   46.9222   52.8380 C   0  0  0  0  0  3  0  0  0  0  0  0
    3.7982   45.2263   54.3181 C   0  0  0  0  0  3  0  0  0  0  0  0
    3.2856   46.1630   51.7222 C   0  0  0  0  0  3  0  0  0  0  0  0
    4.1157   44.4564   53.2020 C   0  0  0  0  0  3  0  0  0  0  0  0
    8.7439   44.9399   51.9083 N   0  0  0  0  0  0  0  0  0  0  0  0
    8.7608   44.6566   53.3309 C   0  0  0  0  0  2  0  0  0  0  0  0
    9.7158   45.8651   51.3914 C   0  0  0  0  0  2  0  0  0  0  0  0
    8.4744   45.9694   54.0251 C   0  0  0  0  0  2  0  0  0  0  0  0
   10.3914   46.6604   52.4894 C   0  0  0  0  0  2  0  0  0  0  0  0
    9.4972   46.9070   53.5998 N   0  0  0  0  0  0  0  0  0  0  0  0
    9.5995   48.1352   54.3432 C   0  0  0  0  0  0  0  0  0  0  0  0
   10.7633   48.2981   55.0694 C   0  0  0  0  0  3  0  0  0  0  0  0
    8.5867   49.0644   54.3110 C   0  0  0  0  0  3  0  0  0  0  0  0
   10.8581   49.4813   55.7834 C   0  0  0  0  0  3  0  0  0  0  0  0
    8.7044   50.2349   55.0304 C   0  0  0  0  0  3  0  0  0  0  0  0
    9.8576   50.4314   55.7695 C   0  0  0  0  0  3  0  0  0  0  0  0
  1 10  1  0
  2  1  2  0
  2  3  1  0
  3  4  2  0
  4  5  1  0
  5  6  2  0
  6  7  1  0
  8  7  2  0
  9  8  1  0
 10  9  2  0
 10  5  1  0
 11  1  1  0
 12 11  1  0
 12 17  2  0
 13 15  2  0
 14 16  2  0
 14 13  1  0
 15 17  1  0
 16 12  1  0
 18  3  1  0
 19 18  1  0
 20 18  1  0
 21 23  1  0
 21 19  1  0
 22 20  1  0
 23 22  1  0
 24 23  1  0
 25 24  2  0
 26 24  1  0
 27 25  1  0
 28 26  2  0
 29 27  2  0
 29 28  1  0
M  RAD  8   7   2   8   2  13   2  14   2  15   2  16   2  17   2  19   3
M  RAD  8  20   3  21   3  22   3  25   2  26   2  27   2  28   2  29   2
M  END
>  <REMARK>  (1) 
 SMILES c1ccc(Nc2nc(N3CCN(c4ccccc4)CC3)nc3nccnc23)cc1
 SMILES IDX 6 1 7 2 8 3 21 4 22 5 23 6 24 7 25 8 26 9 27 10 5 11 4 13
 SMILES IDX 1 14 2 15 29 16 3 17 28 18 9 19 10 20 20 21 11 22 19 23
 SMILES IDX 12 24 13 25 14 26 18 27 15 28 17 29 16 30
 H PARENT 5 12

>  <TORSDO>  (1) 
F 4

$$$$
