/home/pchatterjee/Documents/git/vs_workflow/DiffDock/diffdock_run/pdbqt_scrubbed/Z1041114218.pdbqt
     RDKit          3D

 29 33  0  0  0  0  0  0  0  0999 V2000
    6.9371   43.6467   50.0670 C   0  0  0  0  0  0  0  0  0  0  0  0
    5.8772   43.7011   50.8933 N   0  0  0  0  0  0  0  0  0  0  0  0
    5.8186   44.6079   51.9120 C   0  0  0  0  0  0  0  0  0  0  0  0
    6.8493   45.4674   52.0909 N   0  0  0  0  0  0  0  0  0  0  0  0
    7.9386   45.4460   51.2790 C   0  0  0  0  0  0  0  0  0  0  0  0
    8.9696   46.2940   51.4452 N   0  0  0  0  0  0  0  0  0  0  0  0
   10.0575   46.2683   50.6296 C   0  0  0  0  0  3  0  0  0  0  0  0
   10.1129   45.3444   49.5947 C   0  0  0  0  0  3  0  0  0  0  0  0
    9.0764   44.4972   49.4333 N   0  0  0  0  0  0  0  0  0  0  0  0
    7.9900   44.5257   50.2508 C   0  0  0  0  0  0  0  0  0  0  0  0
    6.9560   42.6863   49.0193 N   0  0  0  0  0  0  0  0  0  0  0  0
    5.7716   41.9230   48.8188 C   0  0  0  0  0  0  0  0  0  0  0  0
    3.5046   40.4504   48.3162 C   0  0  0  0  0  3  0  0  0  0  0  0
    4.3024   40.8512   47.2806 C   0  0  0  0  0  3  0  0  0  0  0  0
    3.8050   40.7658   49.6242 C   0  0  0  0  0  3  0  0  0  0  0  0
    5.4499   41.5937   47.5059 C   0  0  0  0  0  3  0  0  0  0  0  0
    4.9569   41.5121   49.8599 C   0  0  0  0  0  3  0  0  0  0  0  0
    4.6656   44.6066   52.7458 N   0  0  0  0  0  0  0  0  0  0  0  0
    4.1171   43.4024   53.3402 C   0  0  0  0  0  2  0  0  0  0  0  0
    4.0065   45.8555   53.0170 C   0  0  0  0  0  2  0  0  0  0  0  0
    2.7225   43.2515   52.7751 C   0  0  0  0  0  2  0  0  0  0  0  0
    2.6289   45.6589   53.6154 C   0  0  0  0  0  2  0  0  0  0  0  0
    1.9934   44.4596   53.1142 N   0  0  0  0  0  0  0  0  0  0  0  0
    0.5662   44.4281   52.9302 C   0  0  0  0  0  0  0  0  0  0  0  0
    0.0541   45.3809   52.0709 C   0  0  0  0  0  3  0  0  0  0  0  0
   -0.2075   43.4974   53.5821 C   0  0  0  0  0  3  0  0  0  0  0  0
   -1.3196   45.3475   51.8964 C   0  0  0  0  0  3  0  0  0  0  0  0
   -1.5733   43.4842   53.3921 C   0  0  0  0  0  3  0  0  0  0  0  0
   -2.1206   44.4249   52.5376 C   0  0  0  0  0  3  0  0  0  0  0  0
  1 10  1  0
  2  1  2  0
  2  3  1  0
  3  4  2  0
  4  5  1  0
  5  6  2  0
  6  7  1  0
  8  7  2  0
  9  8  1  0
 10  9  2  0
 10  5  1  0
 11  1  1  0
 12 11  1  0
 12 17  2  0
 13 15  2  0
 14 16  2  0
 14 13  1  0
 15 17  1  0
 16 12  1  0
 18  3  1  0
 19 18  1  0
 20 18  1  0
 21 23  1  0
 21 19  1  0
 22 20  1  0
 23 22  1  0
 24 23  1  0
 25 24  2  0
 26 24  1  0
 27 25  1  0
 28 26  2  0
 29 27  2  0
 29 28  1  0
M  RAD  8   7   2   8   2  13   2  14   2  15   2  16   2  17   2  19   3
M  RAD  8  20   3  21   3  22   3  25   2  26   2  27   2  28   2  29   2
M  END
>  <REMARK>  (1) 
 SMILES c1ccc(Nc2nc(N3CCN(c4ccccc4)CC3)nc3nccnc23)cc1
 SMILES IDX 6 1 7 2 8 3 21 4 22 5 23 6 24 7 25 8 26 9 27 10 5 11 4 13
 SMILES IDX 1 14 2 15 29 16 3 17 28 18 9 19 10 20 20 21 11 22 19 23
 SMILES IDX 12 24 13 25 14 26 18 27 15 28 17 29 16 30
 H PARENT 5 12

>  <TORSDO>  (1) 
F 4

$$$$
