/home/pchatterjee/Documents/git/vs_workflow/DiffDock/diffdock_run/pdbqt_scrubbed/Z1041114218.pdbqt
     RDKit          3D

 29 33  0  0  0  0  0  0  0  0999 V2000
    5.4411   43.7812   50.5713 C   0  0  0  0  0  0  0  0  0  0  0  0
    6.3519   44.2920   51.4191 N   0  0  0  0  0  0  0  0  0  0  0  0
    7.6902   44.1483   51.1923 C   0  0  0  0  0  0  0  0  0  0  0  0
    8.1051   43.4779   50.0916 N   0  0  0  0  0  0  0  0  0  0  0  0
    7.2184   42.9463   49.2098 C   0  0  0  0  0  0  0  0  0  0  0  0
    7.6165   42.2780   48.1124 N   0  0  0  0  0  0  0  0  0  0  0  0
    6.7247   41.7479   47.2331 C   0  0  0  0  0  3  0  0  0  0  0  0
    5.3645   41.8965   47.4676 C   0  0  0  0  0  3  0  0  0  0  0  0
    4.9717   42.5674   48.5693 N   0  0  0  0  0  0  0  0  0  0  0  0
    5.8663   43.0962   49.4466 C   0  0  0  0  0  0  0  0  0  0  0  0
    4.0575   43.9547   50.8467 N   0  0  0  0  0  0  0  0  0  0  0  0
    3.7164   44.7623   51.9680 C   0  0  0  0  0  0  0  0  0  0  0  0
    3.0883   46.2339   54.2041 C   0  0  0  0  0  3  0  0  0  0  0  0
    3.5621   44.9582   54.3367 C   0  0  0  0  0  3  0  0  0  0  0  0
    2.9127   46.8148   52.9662 C   0  0  0  0  0  3  0  0  0  0  0  0
    3.8861   44.1952   53.2269 C   0  0  0  0  0  3  0  0  0  0  0  0
    3.2359   46.0548   51.8449 C   0  0  0  0  0  3  0  0  0  0  0  0
    8.5948   44.7155   52.1329 N   0  0  0  0  0  0  0  0  0  0  0  0
    8.3916   44.6516   53.5678 C   0  0  0  0  0  2  0  0  0  0  0  0
    9.7696   45.3862   51.6454 C   0  0  0  0  0  2  0  0  0  0  0  0
    8.2614   46.0828   54.0387 C   0  0  0  0  0  2  0  0  0  0  0  0
   10.4395   46.2214   52.7169 C   0  0  0  0  0  2  0  0  0  0  0  0
    9.4772   46.7715   53.6469 N   0  0  0  0  0  0  0  0  0  0  0  0
    9.7059   48.0662   54.2326 C   0  0  0  0  0  0  0  0  0  0  0  0
   11.0260   48.3779   54.4946 C   0  0  0  0  0  3  0  0  0  0  0  0
    8.6567   48.9129   54.5012 C   0  0  0  0  0  3  0  0  0  0  0  0
   11.2420   49.6247   55.0583 C   0  0  0  0  0  3  0  0  0  0  0  0
    8.8972   50.1492   55.0627 C   0  0  0  0  0  3  0  0  0  0  0  0
   10.2084   50.4947   55.3385 C   0  0  0  0  0  3  0  0  0  0  0  0
  1 10  1  0
  2  1  2  0
  2  3  1  0
  3  4  2  0
  4  5  1  0
  5  6  2  0
  6  7  1  0
  8  7  2  0
  9  8  1  0
 10  9  2  0
 10  5  1  0
 11  1  1  0
 12 11  1  0
 12 17  2  0
 13 15  2  0
 14 16  2  0
 14 13  1  0
 15 17  1  0
 16 12  1  0
 18  3  1  0
 19 18  1  0
 20 18  1  0
 21 23  1  0
 21 19  1  0
 22 20  1  0
 23 22  1  0
 24 23  1  0
 25 24  2  0
 26 24  1  0
 27 25  1  0
 28 26  2  0
 29 27  2  0
 29 28  1  0
M  RAD  8   7   2   8   2  13   2  14   2  15   2  16   2  17   2  19   3
M  RAD  8  20   3  21   3  22   3  25   2  26   2  27   2  28   2  29   2
M  END
>  <REMARK>  (1) 
 SMILES c1ccc(Nc2nc(N3CCN(c4ccccc4)CC3)nc3nccnc23)cc1
 SMILES IDX 6 1 7 2 8 3 21 4 22 5 23 6 24 7 25 8 26 9 27 10 5 11 4 13
 SMILES IDX 1 14 2 15 29 16 3 17 28 18 9 19 10 20 20 21 11 22 19 23
 SMILES IDX 12 24 13 25 14 26 18 27 15 28 17 29 16 30
 H PARENT 5 12

>  <TORSDO>  (1) 
F 4

$$$$
