/home/pchatterjee/Documents/git/vs_workflow/DiffDock/diffdock_run/pdbqt_scrubbed/Z1041114218.pdbqt
     RDKit          3D

 29 33  0  0  0  0  0  0  0  0999 V2000
    5.5209   44.0550   50.6896 C   0  0  0  0  0  0  0  0  0  0  0  0
    6.2722   45.0861   51.1159 N   0  0  0  0  0  0  0  0  0  0  0  0
    7.5661   45.2365   50.7078 C   0  0  0  0  0  0  0  0  0  0  0  0
    8.1000   44.3282   49.8575 N   0  0  0  0  0  0  0  0  0  0  0  0
    7.3758   43.2722   49.4028 C   0  0  0  0  0  0  0  0  0  0  0  0
    7.8935   42.3624   48.5579 N   0  0  0  0  0  0  0  0  0  0  0  0
    7.1642   41.3073   48.1059 C   0  0  0  0  0  3  0  0  0  0  0  0
    5.8486   41.1582   48.5236 C   0  0  0  0  0  3  0  0  0  0  0  0
    5.3354   42.0733   49.3705 N   0  0  0  0  0  0  0  0  0  0  0  0
    6.0676   43.1273   49.8205 C   0  0  0  0  0  0  0  0  0  0  0  0
    4.1780   43.9375   51.1403 N   0  0  0  0  0  0  0  0  0  0  0  0
    3.7291   44.8929   52.0951 C   0  0  0  0  0  0  0  0  0  0  0  0
    2.8064   46.7949   53.8532 C   0  0  0  0  0  3  0  0  0  0  0  0
    2.4830   46.8762   52.5272 C   0  0  0  0  0  3  0  0  0  0  0  0
    3.5923   45.7742   54.3445 C   0  0  0  0  0  3  0  0  0  0  0  0
    2.9345   45.9314   51.6203 C   0  0  0  0  0  3  0  0  0  0  0  0
    4.0506   44.8199   53.4396 C   0  0  0  0  0  3  0  0  0  0  0  0
    8.2996   46.3518   51.2004 N   0  0  0  0  0  0  0  0  0  0  0  0
    9.7491   46.4095   51.2046 C   0  0  0  0  0  2  0  0  0  0  0  0
    7.5763   47.4803   51.7208 C   0  0  0  0  0  2  0  0  0  0  0  0
   10.1619   46.5166   52.6556 C   0  0  0  0  0  2  0  0  0  0  0  0
    8.4667   48.4180   52.5097 C   0  0  0  0  0  2  0  0  0  0  0  0
    9.5244   47.7047   53.1923 N   0  0  0  0  0  0  0  0  0  0  0  0
    9.9929   48.1695   54.4714 C   0  0  0  0  0  0  0  0  0  0  0  0
   11.2598   47.7521   54.8305 C   0  0  0  0  0  3  0  0  0  0  0  0
    9.2055   48.9752   55.2594 C   0  0  0  0  0  3  0  0  0  0  0  0
   11.7071   48.2015   56.0621 C   0  0  0  0  0  3  0  0  0  0  0  0
    9.6731   49.4098   56.4817 C   0  0  0  0  0  3  0  0  0  0  0  0
   10.9388   49.0107   56.8737 C   0  0  0  0  0  3  0  0  0  0  0  0
  1 10  1  0
  2  1  2  0
  2  3  1  0
  3  4  2  0
  4  5  1  0
  5  6  2  0
  6  7  1  0
  8  7  2  0
  9  8  1  0
 10  9  2  0
 10  5  1  0
 11  1  1  0
 12 11  1  0
 12 17  2  0
 13 15  2  0
 14 16  2  0
 14 13  1  0
 15 17  1  0
 16 12  1  0
 18  3  1  0
 19 18  1  0
 20 18  1  0
 21 23  1  0
 21 19  1  0
 22 20  1  0
 23 22  1  0
 24 23  1  0
 25 24  2  0
 26 24  1  0
 27 25  1  0
 28 26  2  0
 29 27  2  0
 29 28  1  0
M  RAD  8   7   2   8   2  13   2  14   2  15   2  16   2  17   2  19   3
M  RAD  8  20   3  21   3  22   3  25   2  26   2  27   2  28   2  29   2
M  END
>  <REMARK>  (1) 
 SMILES c1ccc(Nc2nc(N3CCN(c4ccccc4)CC3)nc3nccnc23)cc1
 SMILES IDX 6 1 7 2 8 3 21 4 22 5 23 6 24 7 25 8 26 9 27 10 5 11 4 13
 SMILES IDX 1 14 2 15 29 16 3 17 28 18 9 19 10 20 20 21 11 22 19 23
 SMILES IDX 12 24 13 25 14 26 18 27 15 28 17 29 16 30
 H PARENT 5 12

>  <TORSDO>  (1) 
F 4

$$$$
