/home/pchatterjee/Documents/git/vs_workflow/DiffDock/diffdock_run/pdbqt_scrubbed/Z1041114218.pdbqt
     RDKit          3D

 29 33  0  0  0  0  0  0  0  0999 V2000
    6.8429   43.5029   50.2281 C   0  0  0  0  0  0  0  0  0  0  0  0
    5.6004   43.9212   50.5289 N   0  0  0  0  0  0  0  0  0  0  0  0
    5.3923   45.0422   51.2794 C   0  0  0  0  0  0  0  0  0  0  0  0
    6.4597   45.7440   51.7278 N   0  0  0  0  0  0  0  0  0  0  0  0
    7.7313   45.3562   51.4468 C   0  0  0  0  0  0  0  0  0  0  0  0
    8.8009   46.0439   51.8857 N   0  0  0  0  0  0  0  0  0  0  0  0
   10.0715   45.6513   51.6014 C   0  0  0  0  0  3  0  0  0  0  0  0
   10.2786   44.5105   50.8377 C   0  0  0  0  0  3  0  0  0  0  0  0
    9.2025   43.8256   50.4007 N   0  0  0  0  0  0  0  0  0  0  0  0
    7.9331   44.2210   50.6869 C   0  0  0  0  0  0  0  0  0  0  0  0
    7.0130   42.3299   49.4436 N   0  0  0  0  0  0  0  0  0  0  0  0
    5.8346   41.7117   48.9385 C   0  0  0  0  0  0  0  0  0  0  0  0
    3.6111   40.5075   47.8589 C   0  0  0  0  0  3  0  0  0  0  0  0
    4.7184   40.7166   47.0846 C   0  0  0  0  0  3  0  0  0  0  0  0
    3.5731   40.8868   49.1838 C   0  0  0  0  0  3  0  0  0  0  0  0
    5.8517   41.3210   47.6035 C   0  0  0  0  0  3  0  0  0  0  0  0
    4.7082   41.4952   49.7137 C   0  0  0  0  0  3  0  0  0  0  0  0
    4.0501   45.4237   51.5576 N   0  0  0  0  0  0  0  0  0  0  0  0
    3.7038   46.5354   52.4228 C   0  0  0  0  0  2  0  0  0  0  0  0
    2.9793   44.6761   50.9558 C   0  0  0  0  0  2  0  0  0  0  0  0
    2.9281   45.9439   53.5784 C   0  0  0  0  0  2  0  0  0  0  0  0
    1.6413   44.9684   51.6028 C   0  0  0  0  0  2  0  0  0  0  0  0
    1.7804   45.2585   53.0134 N   0  0  0  0  0  0  0  0  0  0  0  0
    0.7462   44.8612   53.9322 C   0  0  0  0  0  0  0  0  0  0  0  0
    0.4601   45.7659   54.9363 C   0  0  0  0  0  3  0  0  0  0  0  0
    0.1050   43.6533   53.7914 C   0  0  0  0  0  3  0  0  0  0  0  0
   -0.5357   45.3800   55.8185 C   0  0  0  0  0  3  0  0  0  0  0  0
   -0.8832   43.2915   54.6825 C   0  0  0  0  0  3  0  0  0  0  0  0
   -1.1959   44.1741   55.7013 C   0  0  0  0  0  3  0  0  0  0  0  0
  1 10  1  0
  2  1  2  0
  2  3  1  0
  3  4  2  0
  4  5  1  0
  5  6  2  0
  6  7  1  0
  8  7  2  0
  9  8  1  0
 10  9  2  0
 10  5  1  0
 11  1  1  0
 12 11  1  0
 12 17  2  0
 13 15  2  0
 14 16  2  0
 14 13  1  0
 15 17  1  0
 16 12  1  0
 18  3  1  0
 19 18  1  0
 20 18  1  0
 21 23  1  0
 21 19  1  0
 22 20  1  0
 23 22  1  0
 24 23  1  0
 25 24  2  0
 26 24  1  0
 27 25  1  0
 28 26  2  0
 29 27  2  0
 29 28  1  0
M  RAD  8   7   2   8   2  13   2  14   2  15   2  16   2  17   2  19   3
M  RAD  8  20   3  21   3  22   3  25   2  26   2  27   2  28   2  29   2
M  END
>  <REMARK>  (1) 
 SMILES c1ccc(Nc2nc(N3CCN(c4ccccc4)CC3)nc3nccnc23)cc1
 SMILES IDX 6 1 7 2 8 3 21 4 22 5 23 6 24 7 25 8 26 9 27 10 5 11 4 13
 SMILES IDX 1 14 2 15 29 16 3 17 28 18 9 19 10 20 20 21 11 22 19 23
 SMILES IDX 12 24 13 25 14 26 18 27 15 28 17 29 16 30
 H PARENT 5 12

>  <TORSDO>  (1) 
F 4

$$$$
