/home/pchatterjee/Documents/git/vs_workflow/DiffDock/diffdock_run/pdbqt_scrubbed/Z1041114218.pdbqt
     RDKit          3D

 29 33  0  0  0  0  0  0  0  0999 V2000
    7.1526   43.7352   50.3946 C   0  0  0  0  0  0  0  0  0  0  0  0
    6.1651   44.3032   51.1098 N   0  0  0  0  0  0  0  0  0  0  0  0
    6.4043   45.3731   51.9231 C   0  0  0  0  0  0  0  0  0  0  0  0
    7.6610   45.8693   52.0088 N   0  0  0  0  0  0  0  0  0  0  0  0
    8.6871   45.3253   51.3033 C   0  0  0  0  0  0  0  0  0  0  0  0
    9.9404   45.8081   51.3790 N   0  0  0  0  0  0  0  0  0  0  0  0
   10.9637   45.2598   50.6707 C   0  0  0  0  0  3  0  0  0  0  0  0
   10.7160   44.1717   49.8448 C   0  0  0  0  0  3  0  0  0  0  0  0
    9.4577   43.6924   49.7732 N   0  0  0  0  0  0  0  0  0  0  0  0
    8.4367   44.2432   50.4829 C   0  0  0  0  0  0  0  0  0  0  0  0
    6.8583   42.6225   49.5604 N   0  0  0  0  0  0  0  0  0  0  0  0
    5.4922   42.2381   49.4511 C   0  0  0  0  0  0  0  0  0  0  0  0
    2.8660   41.4926   49.1236 C   0  0  0  0  0  3  0  0  0  0  0  0
    3.6717   41.6541   48.0307 C   0  0  0  0  0  3  0  0  0  0  0  0
    3.3355   41.6946   50.4040 C   0  0  0  0  0  3  0  0  0  0  0  0
    4.9981   42.0291   48.1675 C   0  0  0  0  0  3  0  0  0  0  0  0
    4.6680   42.0718   50.5508 C   0  0  0  0  0  3  0  0  0  0  0  0
    5.3105   45.9214   52.6493 N   0  0  0  0  0  0  0  0  0  0  0  0
    3.9539   45.9547   52.1365 C   0  0  0  0  0  2  0  0  0  0  0  0
    5.5533   46.4712   53.9556 C   0  0  0  0  0  2  0  0  0  0  0  0
    3.5785   47.4160   52.0332 C   0  0  0  0  0  2  0  0  0  0  0  0
    4.3937   47.3117   54.4488 C   0  0  0  0  0  2  0  0  0  0  0  0
    3.7198   47.9860   53.3604 N   0  0  0  0  0  0  0  0  0  0  0  0
    3.1484   49.2903   53.5694 C   0  0  0  0  0  0  0  0  0  0  0  0
    2.0817   49.6124   52.7529 C   0  0  0  0  0  3  0  0  0  0  0  0
    3.6551   50.1358   54.5277 C   0  0  0  0  0  3  0  0  0  0  0  0
    1.5345   50.8684   52.9570 C   0  0  0  0  0  3  0  0  0  0  0  0
    3.0931   51.3815   54.7121 C   0  0  0  0  0  3  0  0  0  0  0  0
    2.0224   51.7375   53.9112 C   0  0  0  0  0  3  0  0  0  0  0  0
  1 10  1  0
  2  1  2  0
  2  3  1  0
  3  4  2  0
  4  5  1  0
  5  6  2  0
  6  7  1  0
  8  7  2  0
  9  8  1  0
 10  9  2  0
 10  5  1  0
 11  1  1  0
 12 11  1  0
 12 17  2  0
 13 15  2  0
 14 16  2  0
 14 13  1  0
 15 17  1  0
 16 12  1  0
 18  3  1  0
 19 18  1  0
 20 18  1  0
 21 23  1  0
 21 19  1  0
 22 20  1  0
 23 22  1  0
 24 23  1  0
 25 24  2  0
 26 24  1  0
 27 25  1  0
 28 26  2  0
 29 27  2  0
 29 28  1  0
M  RAD  8   7   2   8   2  13   2  14   2  15   2  16   2  17   2  19   3
M  RAD  8  20   3  21   3  22   3  25   2  26   2  27   2  28   2  29   2
M  END
>  <REMARK>  (1) 
 SMILES c1ccc(Nc2nc(N3CCN(c4ccccc4)CC3)nc3nccnc23)cc1
 SMILES IDX 6 1 7 2 8 3 21 4 22 5 23 6 24 7 25 8 26 9 27 10 5 11 4 13
 SMILES IDX 1 14 2 15 29 16 3 17 28 18 9 19 10 20 20 21 11 22 19 23
 SMILES IDX 12 24 13 25 14 26 18 27 15 28 17 29 16 30
 H PARENT 5 12

>  <TORSDO>  (1) 
F 4

$$$$
