/home/pchatterjee/Documents/git/vs_workflow/DiffDock/diffdock_run/pdbqt_scrubbed/Z1041114218.pdbqt
     RDKit          3D

 29 33  0  0  0  0  0  0  0  0999 V2000
    5.5526   44.0088   50.6912 C   0  0  0  0  0  0  0  0  0  0  0  0
    6.2653   45.0531   51.1502 N   0  0  0  0  0  0  0  0  0  0  0  0
    7.5713   45.2307   50.7950 C   0  0  0  0  0  0  0  0  0  0  0  0
    8.1570   44.3363   49.9644 N   0  0  0  0  0  0  0  0  0  0  0  0
    7.4730   43.2676   49.4781 C   0  0  0  0  0  0  0  0  0  0  0  0
    8.0424   42.3714   48.6522 N   0  0  0  0  0  0  0  0  0  0  0  0
    7.3531   41.3036   48.1683 C   0  0  0  0  0  3  0  0  0  0  0  0
    6.0251   41.1268   48.5322 C   0  0  0  0  0  3  0  0  0  0  0  0
    5.4601   42.0285   49.3603 N   0  0  0  0  0  0  0  0  0  0  0  0
    6.1523   43.0953   49.8423 C   0  0  0  0  0  0  0  0  0  0  0  0
    4.1952   43.8629   51.0871 N   0  0  0  0  0  0  0  0  0  0  0  0
    3.6728   44.8391   51.9816 C   0  0  0  0  0  0  0  0  0  0  0  0
    2.7115   46.6655   53.7983 C   0  0  0  0  0  3  0  0  0  0  0  0
    3.4451   45.5949   54.2288 C   0  0  0  0  0  3  0  0  0  0  0  0
    2.4342   46.8615   52.4622 C   0  0  0  0  0  3  0  0  0  0  0  0
    3.9412   44.6602   53.3349 C   0  0  0  0  0  3  0  0  0  0  0  0
    2.9290   45.9265   51.5564 C   0  0  0  0  0  3  0  0  0  0  0  0
    8.2618   46.3587   51.3198 N   0  0  0  0  0  0  0  0  0  0  0  0
    9.7053   46.4963   51.2771 C   0  0  0  0  0  2  0  0  0  0  0  0
    7.4991   47.4177   51.9233 C   0  0  0  0  0  2  0  0  0  0  0  0
   10.1657   46.5527   52.7165 C   0  0  0  0  0  2  0  0  0  0  0  0
    8.3668   48.3622   52.7291 C   0  0  0  0  0  2  0  0  0  0  0  0
    9.4859   47.6750   53.3365 N   0  0  0  0  0  0  0  0  0  0  0  0
    9.9762   48.1000   54.6213 C   0  0  0  0  0  0  0  0  0  0  0  0
    9.2384   49.0876   55.2447 C   0  0  0  0  0  3  0  0  0  0  0  0
   11.1078   47.5389   55.1639 C   0  0  0  0  0  3  0  0  0  0  0  0
    9.7134   49.4939   56.4808 C   0  0  0  0  0  3  0  0  0  0  0  0
   11.5610   47.9602   56.3963 C   0  0  0  0  0  3  0  0  0  0  0  0
   10.8461   48.9486   57.0495 C   0  0  0  0  0  3  0  0  0  0  0  0
  1 10  1  0
  2  1  2  0
  2  3  1  0
  3  4  2  0
  4  5  1  0
  5  6  2  0
  6  7  1  0
  8  7  2  0
  9  8  1  0
 10  9  2  0
 10  5  1  0
 11  1  1  0
 12 11  1  0
 12 17  2  0
 13 15  2  0
 14 16  2  0
 14 13  1  0
 15 17  1  0
 16 12  1  0
 18  3  1  0
 19 18  1  0
 20 18  1  0
 21 23  1  0
 21 19  1  0
 22 20  1  0
 23 22  1  0
 24 23  1  0
 25 24  2  0
 26 24  1  0
 27 25  1  0
 28 26  2  0
 29 27  2  0
 29 28  1  0
M  RAD  8   7   2   8   2  13   2  14   2  15   2  16   2  17   2  19   3
M  RAD  8  20   3  21   3  22   3  25   2  26   2  27   2  28   2  29   2
M  END
>  <REMARK>  (1) 
 SMILES c1ccc(Nc2nc(N3CCN(c4ccccc4)CC3)nc3nccnc23)cc1
 SMILES IDX 6 1 7 2 8 3 21 4 22 5 23 6 24 7 25 8 26 9 27 10 5 11 4 13
 SMILES IDX 1 14 2 15 29 16 3 17 28 18 9 19 10 20 20 21 11 22 19 23
 SMILES IDX 12 24 13 25 14 26 18 27 15 28 17 29 16 30
 H PARENT 5 12

>  <TORSDO>  (1) 
F 4

$$$$
