/home/pchatterjee/Documents/git/vs_workflow/DiffDock/diffdock_run/pdbqt_scrubbed/Z31409736.pdbqt
     RDKit          3D

 27 29  0  0  0  0  0  0  0  0999 V2000
    6.4490   43.7416   49.7088 C   0  0  0  0  0  0  0  0  0  0  0  0
    6.8028   43.0784   48.5559 C   0  0  0  0  0  3  0  0  0  0  0  0
    6.0465   42.0418   48.0614 C   0  0  0  0  0  3  0  0  0  0  0  0
    4.9001   41.6579   48.7436 C   0  0  0  0  0  0  0  0  0  0  0  0
    4.5397   42.3167   49.8979 C   0  0  0  0  0  3  0  0  0  0  0  0
    5.3100   43.3648   50.3921 C   0  0  0  0  0  3  0  0  0  0  0  0
    7.2979   44.8009   50.1382 N   0  0  0  0  0  0  0  0  0  0  0  0
    8.6815   44.4737   50.3290 C   0  0  0  0  0  0  0  0  0  0  0  0
    9.3321   44.1534   49.3034 O   0  0  0  0  0  0  0  0  0  0  0  0
    9.2431   44.5324   51.6889 C   0  0  0  0  0  2  0  0  0  0  0  0
    9.8214   45.8302   51.9949 N   0  0  0  0  0  0  0  0  0  0  0  0
    9.0631   46.9121   52.5213 C   0  0  0  0  0  0  0  0  0  0  0  0
    9.0879   48.0754   52.0450 O   0  0  0  0  0  0  0  0  0  0  0  0
    8.1921   46.6572   53.6996 C   0  0  0  0  0  3  0  0  0  0  0  0
    7.2061   45.5619   53.3869 C   0  0  0  0  0  2  0  0  0  0  0  0
    7.4184   47.8820   54.1260 C   0  0  0  0  0  2  0  0  0  0  0  0
    6.0437   45.5535   54.3556 C   0  0  0  0  0  2  0  0  0  0  0  0
    6.0782   47.8265   53.3896 C   0  0  0  0  0  2  0  0  0  0  0  0
    5.2074   46.7787   54.0623 C   0  0  0  0  0  2  0  0  0  0  0  0
    4.1796   40.6101   48.1999 O   0  0  0  0  0  0  0  0  0  0  0  0
    2.9949   40.9274   47.4677 C   0  0  0  0  0  2  0  0  0  0  0  0
    2.4349   39.6260   47.0113 C   0  0  0  0  0  0  0  0  0  0  0  0
    2.9891   38.8748   46.0075 C   0  0  0  0  0  3  0  0  0  0  0  0
    1.2928   39.1859   47.6610 C   0  0  0  0  0  3  0  0  0  0  0  0
    2.4187   37.6677   45.6272 C   0  0  0  0  0  3  0  0  0  0  0  0
    0.7366   37.9727   47.2643 C   0  0  0  0  0  3  0  0  0  0  0  0
    1.2850   37.2147   46.2606 C   0  0  0  0  0  3  0  0  0  0  0  0
  1  7  1  0
  2  1  2  0
  3  2  1  0
  4  5  1  0
  4  3  2  0
  5  6  2  0
  6  1  1  0
  7  8  1  0
  8 10  1  0
  9  8  2  0
 11 10  1  0
 12 11  1  0
 12 13  2  0
 14 12  1  0
 15 14  1  0
 16 14  1  0
 17 15  1  0
 18 19  1  0
 18 16  1  0
 19 17  1  0
 20  4  1  0
 21 20  1  0
 21 22  1  0
 22 24  1  0
 23 22  2  0
 23 25  1  0
 24 26  2  0
 25 27  2  0
 27 26  1  0
M  RAD  8   2   2   3   2   5   2   6   2  10   3  14   2  15   3  16   3
M  RAD  8  17   3  18   3  19   3  21   3  23   2  24   2  25   2  26   2
M  RAD  1  27   2
M  END
>  <REMARK>  (1) 
 SMILES O=C(CNC(=O)C1CCCCC1)Nc1ccc(OCc2ccccc2)cc1
 SMILES IDX 14 1 15 2 16 3 17 4 26 5 27 6 13 7 2 8 1 9 3 11 4 12 5 13
 SMILES IDX 6 15 7 16 8 17 12 18 9 19 11 20 10 21 18 22 19 23 20 24
 SMILES IDX 21 25 25 26 22 27 24 28 23 29
 H PARENT 13 10 4 14

>  <TORSDO>  (1) 
F 7

$$$$
