/home/pchatterjee/Documents/git/vs_workflow/DiffDock/diffdock_run/pdbqt_scrubbed/Z31409736.pdbqt
     RDKit          3D

 27 29  0  0  0  0  0  0  0  0999 V2000
    7.9796   43.7842   49.9508 C   0  0  0  0  0  0  0  0  0  0  0  0
    6.8703   43.8016   50.7653 C   0  0  0  0  0  3  0  0  0  0  0  0
    5.7432   43.0747   50.4611 C   0  0  0  0  0  3  0  0  0  0  0  0
    5.7274   42.3068   49.3049 C   0  0  0  0  0  0  0  0  0  0  0  0
    6.8335   42.2844   48.4850 C   0  0  0  0  0  3  0  0  0  0  0  0
    7.9705   43.0225   48.7993 C   0  0  0  0  0  3  0  0  0  0  0  0
    9.0962   44.5707   50.3531 N   0  0  0  0  0  0  0  0  0  0  0  0
    8.8033   45.7674   51.0881 C   0  0  0  0  0  0  0  0  0  0  0  0
    7.6019   45.9572   51.4015 O   0  0  0  0  0  0  0  0  0  0  0  0
    9.9076   46.6818   51.4232 C   0  0  0  0  0  2  0  0  0  0  0  0
    9.5851   47.5559   52.5388 N   0  0  0  0  0  0  0  0  0  0  0  0
    9.7770   47.1817   53.8974 C   0  0  0  0  0  0  0  0  0  0  0  0
   10.6414   46.3501   54.2742 O   0  0  0  0  0  0  0  0  0  0  0  0
    8.9096   47.8062   54.9317 C   0  0  0  0  0  3  0  0  0  0  0  0
    7.9860   48.8114   54.2941 C   0  0  0  0  0  2  0  0  0  0  0  0
    9.7025   48.5090   56.0078 C   0  0  0  0  0  2  0  0  0  0  0  0
    7.4011   49.7669   55.3111 C   0  0  0  0  0  2  0  0  0  0  0  0
    9.8509   49.9637   55.5572 C   0  0  0  0  0  2  0  0  0  0  0  0
    8.5227   50.6685   55.7756 C   0  0  0  0  0  2  0  0  0  0  0  0
    4.5677   41.5974   49.0504 O   0  0  0  0  0  0  0  0  0  0  0  0
    3.6306   42.1629   48.1327 C   0  0  0  0  0  2  0  0  0  0  0  0
    2.5380   41.1616   47.9945 C   0  0  0  0  0  0  0  0  0  0  0  0
    1.6817   40.8316   49.0127 C   0  0  0  0  0  3  0  0  0  0  0  0
    2.4136   40.5537   46.7554 C   0  0  0  0  0  3  0  0  0  0  0  0
    0.6813   39.8885   48.8207 C   0  0  0  0  0  3  0  0  0  0  0  0
    1.4038   39.6106   46.5839 C   0  0  0  0  0  3  0  0  0  0  0  0
    0.5425   39.2746   47.5978 C   0  0  0  0  0  3  0  0  0  0  0  0
  1  7  1  0
  2  1  2  0
  3  2  1  0
  4  5  1  0
  4  3  2  0
  5  6  2  0
  6  1  1  0
  7  8  1  0
  8 10  1  0
  9  8  2  0
 11 10  1  0
 12 11  1  0
 12 13  2  0
 14 12  1  0
 15 14  1  0
 16 14  1  0
 17 15  1  0
 18 19  1  0
 18 16  1  0
 19 17  1  0
 20  4  1  0
 21 20  1  0
 21 22  1  0
 22 24  1  0
 23 22  2  0
 23 25  1  0
 24 26  2  0
 25 27  2  0
 27 26  1  0
M  RAD  8   2   2   3   2   5   2   6   2  10   3  14   2  15   3  16   3
M  RAD  8  17   3  18   3  19   3  21   3  23   2  24   2  25   2  26   2
M  RAD  1  27   2
M  END
>  <REMARK>  (1) 
 SMILES O=C(CNC(=O)C1CCCCC1)Nc1ccc(OCc2ccccc2)cc1
 SMILES IDX 14 1 15 2 16 3 17 4 26 5 27 6 13 7 2 8 1 9 3 11 4 12 5 13
 SMILES IDX 6 15 7 16 8 17 12 18 9 19 11 20 10 21 18 22 19 23 20 24
 SMILES IDX 21 25 25 26 22 27 24 28 23 29
 H PARENT 13 10 4 14

>  <TORSDO>  (1) 
F 7

$$$$
