/home/pchatterjee/Documents/git/vs_workflow/DiffDock/diffdock_run/pdbqt_scrubbed/Z31409736.pdbqt
     RDKit          3D

 27 29  0  0  0  0  0  0  0  0999 V2000
   14.4522   61.5352   85.1072 C   0  0  0  0  0  0  0  0  0  0  0  0
   14.1992   61.8769   86.4162 C   0  0  0  0  0  3  0  0  0  0  0  0
   14.1465   60.9279   87.4100 C   0  0  0  0  0  3  0  0  0  0  0  0
   14.3537   59.5951   87.0818 C   0  0  0  0  0  0  0  0  0  0  0  0
   14.6074   59.2455   85.7742 C   0  0  0  0  0  3  0  0  0  0  0  0
   14.6592   60.2114   84.7739 C   0  0  0  0  0  3  0  0  0  0  0  0
   14.4862   62.5910   84.1526 N   0  0  0  0  0  0  0  0  0  0  0  0
   13.3027   63.3948   84.0465 C   0  0  0  0  0  0  0  0  0  0  0  0
   12.3606   63.1180   84.8296 O   0  0  0  0  0  0  0  0  0  0  0  0
   13.2660   64.4740   83.0454 C   0  0  0  0  0  2  0  0  0  0  0  0
   12.3191   65.5207   83.3922 N   0  0  0  0  0  0  0  0  0  0  0  0
   11.2598   65.9234   82.5330 C   0  0  0  0  0  0  0  0  0  0  0  0
   10.0647   65.5648   82.6874 O   0  0  0  0  0  0  0  0  0  0  0  0
   11.5795   66.8176   81.3883 C   0  0  0  0  0  3  0  0  0  0  0  0
   12.5547   67.8818   81.8198 C   0  0  0  0  0  2  0  0  0  0  0  0
   10.3556   67.4989   80.8239 C   0  0  0  0  0  2  0  0  0  0  0  0
   12.5845   69.0468   80.8546 C   0  0  0  0  0  2  0  0  0  0  0  0
   10.2261   68.8354   81.5577 C   0  0  0  0  0  2  0  0  0  0  0  0
   11.2742   69.7865   81.0050 C   0  0  0  0  0  2  0  0  0  0  0  0
   14.2889   58.6856   88.1217 O   0  0  0  0  0  0  0  0  0  0  0  0
   15.2276   57.6090   88.1225 C   0  0  0  0  0  2  0  0  0  0  0  0
   14.9654   56.8384   89.3687 C   0  0  0  0  0  0  0  0  0  0  0  0
   14.0558   57.2241   90.3188 C   0  0  0  0  0  3  0  0  0  0  0  0
   15.7004   55.6761   89.5395 C   0  0  0  0  0  3  0  0  0  0  0  0
   13.8567   56.4611   91.4613 C   0  0  0  0  0  3  0  0  0  0  0  0
   15.4855   54.9255   90.6923 C   0  0  0  0  0  3  0  0  0  0  0  0
   14.5770   55.3044   91.6482 C   0  0  0  0  0  3  0  0  0  0  0  0
  1  7  1  0
  2  1  2  0
  3  2  1  0
  4  5  1  0
  4  3  2  0
  5  6  2  0
  6  1  1  0
  7  8  1  0
  8 10  1  0
  9  8  2  0
 11 10  1  0
 12 11  1  0
 12 13  2  0
 14 12  1  0
 15 14  1  0
 16 14  1  0
 17 15  1  0
 18 19  1  0
 18 16  1  0
 19 17  1  0
 20  4  1  0
 21 20  1  0
 21 22  1  0
 22 24  1  0
 23 22  2  0
 23 25  1  0
 24 26  2  0
 25 27  2  0
 27 26  1  0
M  RAD  8   2   2   3   2   5   2   6   2  10   3  14   2  15   3  16   3
M  RAD  8  17   3  18   3  19   3  21   3  23   2  24   2  25   2  26   2
M  RAD  1  27   2
M  END
>  <REMARK>  (1) 
 SMILES O=C(CNC(=O)C1CCCCC1)Nc1ccc(OCc2ccccc2)cc1
 SMILES IDX 14 1 15 2 16 3 17 4 26 5 27 6 13 7 2 8 1 9 3 11 4 12 5 13
 SMILES IDX 6 15 7 16 8 17 12 18 9 19 11 20 10 21 18 22 19 23 20 24
 SMILES IDX 21 25 25 26 22 27 24 28 23 29
 H PARENT 13 10 4 14

>  <TORSDO>  (1) 
F 7

$$$$
