/home/pchatterjee/Documents/git/vs_workflow/DiffDock/diffdock_run/pdbqt_scrubbed/Z31409736.pdbqt
     RDKit          3D

 27 29  0  0  0  0  0  0  0  0999 V2000
   12.8328   62.4827   84.9799 C   0  0  0  0  0  0  0  0  0  0  0  0
   13.7414   63.5125   85.0686 C   0  0  0  0  0  3  0  0  0  0  0  0
   13.5671   64.6873   84.3753 C   0  0  0  0  0  3  0  0  0  0  0  0
   12.4474   64.8345   83.5681 C   0  0  0  0  0  0  0  0  0  0  0  0
   11.5337   63.8084   83.4744 C   0  0  0  0  0  3  0  0  0  0  0  0
   11.7169   62.6225   84.1789 C   0  0  0  0  0  3  0  0  0  0  0  0
   13.1034   61.3074   85.7367 N   0  0  0  0  0  0  0  0  0  0  0  0
   13.3211   60.1023   84.9895 C   0  0  0  0  0  0  0  0  0  0  0  0
   12.5728   59.9094   83.9993 O   0  0  0  0  0  0  0  0  0  0  0  0
   14.3878   59.1835   85.4209 C   0  0  0  0  0  2  0  0  0  0  0  0
   13.9505   57.7976   85.4442 N   0  0  0  0  0  0  0  0  0  0  0  0
   13.6139   57.1111   86.6434 C   0  0  0  0  0  0  0  0  0  0  0  0
   12.5740   57.3452   87.3103 O   0  0  0  0  0  0  0  0  0  0  0  0
   14.5402   56.0582   87.1388 C   0  0  0  0  0  3  0  0  0  0  0  0
   15.4930   55.6511   86.0450 C   0  0  0  0  0  2  0  0  0  0  0  0
   13.8139   54.8233   87.6166 C   0  0  0  0  0  2  0  0  0  0  0  0
   16.1530   54.3209   86.3358 C   0  0  0  0  0  2  0  0  0  0  0  0
   13.7238   53.8808   86.4146 C   0  0  0  0  0  2  0  0  0  0  0  0
   15.0906   53.2539   86.1966 C   0  0  0  0  0  2  0  0  0  0  0  0
   12.3247   66.0365   82.8953 O   0  0  0  0  0  0  0  0  0  0  0  0
   11.4228   66.0898   81.7890 C   0  0  0  0  0  2  0  0  0  0  0  0
   11.4464   67.4987   81.3092 C   0  0  0  0  0  0  0  0  0  0  0  0
   12.6009   68.2108   81.1117 C   0  0  0  0  0  3  0  0  0  0  0  0
   10.2156   68.0848   81.0608 C   0  0  0  0  0  3  0  0  0  0  0  0
   12.5566   69.5234   80.6621 C   0  0  0  0  0  3  0  0  0  0  0  0
   10.1933   69.4021   80.6105 C   0  0  0  0  0  3  0  0  0  0  0  0
   11.3442   70.1219   80.4102 C   0  0  0  0  0  3  0  0  0  0  0  0
  1  7  1  0
  2  1  2  0
  3  2  1  0
  4  5  1  0
  4  3  2  0
  5  6  2  0
  6  1  1  0
  7  8  1  0
  8 10  1  0
  9  8  2  0
 11 10  1  0
 12 11  1  0
 12 13  2  0
 14 12  1  0
 15 14  1  0
 16 14  1  0
 17 15  1  0
 18 19  1  0
 18 16  1  0
 19 17  1  0
 20  4  1  0
 21 20  1  0
 21 22  1  0
 22 24  1  0
 23 22  2  0
 23 25  1  0
 24 26  2  0
 25 27  2  0
 27 26  1  0
M  RAD  8   2   2   3   2   5   2   6   2  10   3  14   2  15   3  16   3
M  RAD  8  17   3  18   3  19   3  21   3  23   2  24   2  25   2  26   2
M  RAD  1  27   2
M  END
>  <REMARK>  (1) 
 SMILES O=C(CNC(=O)C1CCCCC1)Nc1ccc(OCc2ccccc2)cc1
 SMILES IDX 14 1 15 2 16 3 17 4 26 5 27 6 13 7 2 8 1 9 3 11 4 12 5 13
 SMILES IDX 6 15 7 16 8 17 12 18 9 19 11 20 10 21 18 22 19 23 20 24
 SMILES IDX 21 25 25 26 22 27 24 28 23 29
 H PARENT 13 10 4 14

>  <TORSDO>  (1) 
F 7

$$$$
