/home/pchatterjee/Documents/git/vs_workflow/DiffDock/diffdock_run/pdbqt_scrubbed/Z31409736.pdbqt
     RDKit          3D

 27 29  0  0  0  0  0  0  0  0999 V2000
   12.8624   59.9258   83.9648 C   0  0  0  0  0  0  0  0  0  0  0  0
   12.2403   58.7287   83.6924 C   0  0  0  0  0  3  0  0  0  0  0  0
   12.7729   57.5306   84.1070 C   0  0  0  0  0  3  0  0  0  0  0  0
   13.9660   57.5322   84.8166 C   0  0  0  0  0  0  0  0  0  0  0  0
   14.5943   58.7260   85.0930 C   0  0  0  0  0  3  0  0  0  0  0  0
   14.0493   59.9345   84.6701 C   0  0  0  0  0  3  0  0  0  0  0  0
   12.2309   61.1111   83.4923 N   0  0  0  0  0  0  0  0  0  0  0  0
   13.0372   62.2974   83.4651 C   0  0  0  0  0  0  0  0  0  0  0  0
   14.2211   62.1842   83.8689 O   0  0  0  0  0  0  0  0  0  0  0  0
   12.4387   63.5503   82.9749 C   0  0  0  0  0  2  0  0  0  0  0  0
   13.2175   64.7198   83.3469 N   0  0  0  0  0  0  0  0  0  0  0  0
   12.8176   66.0486   83.0352 C   0  0  0  0  0  0  0  0  0  0  0  0
   13.3913   67.0717   83.4878 O   0  0  0  0  0  0  0  0  0  0  0  0
   11.6579   66.2423   82.1243 C   0  0  0  0  0  3  0  0  0  0  0  0
   11.5288   67.6968   81.7533 C   0  0  0  0  0  2  0  0  0  0  0  0
   10.3540   65.7942   82.7404 C   0  0  0  0  0  2  0  0  0  0  0  0
   10.1580   68.0201   81.2005 C   0  0  0  0  0  2  0  0  0  0  0  0
    9.7521   67.0239   83.4239 C   0  0  0  0  0  2  0  0  0  0  0  0
    9.1796   67.9339   82.3503 C   0  0  0  0  0  2  0  0  0  0  0  0
   14.4538   56.2986   85.2075 O   0  0  0  0  0  0  0  0  0  0  0  0
   14.3854   55.9661   86.5949 C   0  0  0  0  0  2  0  0  0  0  0  0
   14.9211   54.5822   86.7111 C   0  0  0  0  0  0  0  0  0  0  0  0
   14.2591   53.4742   86.2497 C   0  0  0  0  0  3  0  0  0  0  0  0
   16.1568   54.4502   87.3242 C   0  0  0  0  0  3  0  0  0  0  0  0
   14.8123   52.2085   86.3882 C   0  0  0  0  0  3  0  0  0  0  0  0
   16.6939   53.1721   87.4530 C   0  0  0  0  0  3  0  0  0  0  0  0
   16.0378   52.0578   86.9939 C   0  0  0  0  0  3  0  0  0  0  0  0
  1  7  1  0
  2  1  2  0
  3  2  1  0
  4  5  1  0
  4  3  2  0
  5  6  2  0
  6  1  1  0
  7  8  1  0
  8 10  1  0
  9  8  2  0
 11 10  1  0
 12 11  1  0
 12 13  2  0
 14 12  1  0
 15 14  1  0
 16 14  1  0
 17 15  1  0
 18 19  1  0
 18 16  1  0
 19 17  1  0
 20  4  1  0
 21 20  1  0
 21 22  1  0
 22 24  1  0
 23 22  2  0
 23 25  1  0
 24 26  2  0
 25 27  2  0
 27 26  1  0
M  RAD  8   2   2   3   2   5   2   6   2  10   3  14   2  15   3  16   3
M  RAD  8  17   3  18   3  19   3  21   3  23   2  24   2  25   2  26   2
M  RAD  1  27   2
M  END
>  <REMARK>  (1) 
 SMILES O=C(CNC(=O)C1CCCCC1)Nc1ccc(OCc2ccccc2)cc1
 SMILES IDX 14 1 15 2 16 3 17 4 26 5 27 6 13 7 2 8 1 9 3 11 4 12 5 13
 SMILES IDX 6 15 7 16 8 17 12 18 9 19 11 20 10 21 18 22 19 23 20 24
 SMILES IDX 21 25 25 26 22 27 24 28 23 29
 H PARENT 13 10 4 14

>  <TORSDO>  (1) 
F 7

$$$$
