/home/pchatterjee/Documents/git/vs_workflow/DiffDock/diffdock_run/pdbqt_scrubbed/Z31409736.pdbqt
     RDKit          3D

 27 29  0  0  0  0  0  0  0  0999 V2000
   15.3362   59.8471   85.1753 C   0  0  0  0  0  0  0  0  0  0  0  0
   15.2951   59.7417   86.5469 C   0  0  0  0  0  3  0  0  0  0  0  0
   15.5743   58.5565   87.1859 C   0  0  0  0  0  3  0  0  0  0  0  0
   15.9050   57.4423   86.4268 C   0  0  0  0  0  0  0  0  0  0  0  0
   15.9481   57.5400   85.0539 C   0  0  0  0  0  3  0  0  0  0  0  0
   15.6643   58.7428   84.4142 C   0  0  0  0  0  3  0  0  0  0  0  0
   15.0309   61.1175   84.6095 N   0  0  0  0  0  0  0  0  0  0  0  0
   13.7683   61.2312   83.9380 C   0  0  0  0  0  0  0  0  0  0  0  0
   13.1086   60.1721   83.7937 O   0  0  0  0  0  0  0  0  0  0  0  0
   13.3319   62.5567   83.4684 C   0  0  0  0  0  2  0  0  0  0  0  0
   12.0897   62.4976   82.7161 N   0  0  0  0  0  0  0  0  0  0  0  0
   11.3895   63.6574   82.2833 C   0  0  0  0  0  0  0  0  0  0  0  0
   11.8662   64.4975   81.4784 O   0  0  0  0  0  0  0  0  0  0  0  0
   10.0185   63.8927   82.8094 C   0  0  0  0  0  3  0  0  0  0  0  0
    9.1562   62.6813   82.5666 C   0  0  0  0  0  2  0  0  0  0  0  0
    9.3479   65.0857   82.1711 C   0  0  0  0  0  2  0  0  0  0  0  0
    7.6823   63.0044   82.6789 C   0  0  0  0  0  2  0  0  0  0  0  0
    8.5662   64.5520   80.9688 C   0  0  0  0  0  2  0  0  0  0  0  0
    7.3178   63.8550   81.4829 C   0  0  0  0  0  2  0  0  0  0  0  0
   16.1757   56.2786   87.1233 O   0  0  0  0  0  0  0  0  0  0  0  0
   15.1288   55.3137   87.2376 C   0  0  0  0  0  2  0  0  0  0  0  0
   15.6994   54.1810   88.0167 C   0  0  0  0  0  0  0  0  0  0  0  0
   16.8738   54.2623   88.7190 C   0  0  0  0  0  3  0  0  0  0  0  0
   14.9747   52.9999   88.0059 C   0  0  0  0  0  3  0  0  0  0  0  0
   17.3540   53.1690   89.4270 C   0  0  0  0  0  3  0  0  0  0  0  0
   15.4739   51.9155   88.7224 C   0  0  0  0  0  3  0  0  0  0  0  0
   16.6485   51.9884   89.4279 C   0  0  0  0  0  3  0  0  0  0  0  0
  1  7  1  0
  2  1  2  0
  3  2  1  0
  4  5  1  0
  4  3  2  0
  5  6  2  0
  6  1  1  0
  7  8  1  0
  8 10  1  0
  9  8  2  0
 11 10  1  0
 12 11  1  0
 12 13  2  0
 14 12  1  0
 15 14  1  0
 16 14  1  0
 17 15  1  0
 18 19  1  0
 18 16  1  0
 19 17  1  0
 20  4  1  0
 21 20  1  0
 21 22  1  0
 22 24  1  0
 23 22  2  0
 23 25  1  0
 24 26  2  0
 25 27  2  0
 27 26  1  0
M  RAD  8   2   2   3   2   5   2   6   2  10   3  14   2  15   3  16   3
M  RAD  8  17   3  18   3  19   3  21   3  23   2  24   2  25   2  26   2
M  RAD  1  27   2
M  END
>  <REMARK>  (1) 
 SMILES O=C(CNC(=O)C1CCCCC1)Nc1ccc(OCc2ccccc2)cc1
 SMILES IDX 14 1 15 2 16 3 17 4 26 5 27 6 13 7 2 8 1 9 3 11 4 12 5 13
 SMILES IDX 6 15 7 16 8 17 12 18 9 19 11 20 10 21 18 22 19 23 20 24
 SMILES IDX 21 25 25 26 22 27 24 28 23 29
 H PARENT 13 10 4 14

>  <TORSDO>  (1) 
F 7

$$$$
