/home/pchatterjee/Documents/git/vs_workflow/DiffDock/diffdock_run/pdbqt_scrubbed/Z31409736.pdbqt
     RDKit          3D

 27 29  0  0  0  0  0  0  0  0999 V2000
   12.7828   61.5586   85.9478 C   0  0  0  0  0  0  0  0  0  0  0  0
   14.0685   61.7380   86.4049 C   0  0  0  0  0  3  0  0  0  0  0  0
   14.7691   60.7159   87.0010 C   0  0  0  0  0  3  0  0  0  0  0  0
   14.1624   59.4755   87.1436 C   0  0  0  0  0  0  0  0  0  0  0  0
   12.8761   59.2884   86.6887 C   0  0  0  0  0  3  0  0  0  0  0  0
   12.1734   60.3275   86.0864 C   0  0  0  0  0  3  0  0  0  0  0  0
   12.1427   62.6787   85.3454 N   0  0  0  0  0  0  0  0  0  0  0  0
   12.5599   63.0135   84.0143 C   0  0  0  0  0  0  0  0  0  0  0  0
   13.7732   62.8365   83.7420 O   0  0  0  0  0  0  0  0  0  0  0  0
   11.5594   63.5339   83.0675 C   0  0  0  0  0  2  0  0  0  0  0  0
   11.9011   64.8562   82.5704 N   0  0  0  0  0  0  0  0  0  0  0  0
   10.9327   65.7720   82.0743 C   0  0  0  0  0  0  0  0  0  0  0  0
    9.7897   65.9161   82.5780 O   0  0  0  0  0  0  0  0  0  0  0  0
   11.2877   66.6066   80.8956 C   0  0  0  0  0  3  0  0  0  0  0  0
   12.4999   67.4468   81.2028 C   0  0  0  0  0  2  0  0  0  0  0  0
   10.1671   67.5287   80.4777 C   0  0  0  0  0  2  0  0  0  0  0  0
   12.6483   68.6009   80.2356 C   0  0  0  0  0  2  0  0  0  0  0  0
   10.3946   68.8498   81.2155 C   0  0  0  0  0  2  0  0  0  0  0  0
   11.5393   69.5837   80.5375 C   0  0  0  0  0  2  0  0  0  0  0  0
   14.9145   58.4861   87.7502 O   0  0  0  0  0  0  0  0  0  0  0  0
   14.2395   57.2966   88.1621 C   0  0  0  0  0  2  0  0  0  0  0  0
   15.2857   56.4142   88.7474 C   0  0  0  0  0  0  0  0  0  0  0  0
   15.4751   56.2579   90.0959 C   0  0  0  0  0  3  0  0  0  0  0  0
   16.0894   55.7325   87.8476 C   0  0  0  0  0  3  0  0  0  0  0  0
   16.4695   55.4190   90.5800 C   0  0  0  0  0  3  0  0  0  0  0  0
   17.0808   54.8961   88.3539 C   0  0  0  0  0  3  0  0  0  0  0  0
   17.2770   54.7341   89.7022 C   0  0  0  0  0  3  0  0  0  0  0  0
  1  7  1  0
  2  1  2  0
  3  2  1  0
  4  5  1  0
  4  3  2  0
  5  6  2  0
  6  1  1  0
  7  8  1  0
  8 10  1  0
  9  8  2  0
 11 10  1  0
 12 11  1  0
 12 13  2  0
 14 12  1  0
 15 14  1  0
 16 14  1  0
 17 15  1  0
 18 19  1  0
 18 16  1  0
 19 17  1  0
 20  4  1  0
 21 20  1  0
 21 22  1  0
 22 24  1  0
 23 22  2  0
 23 25  1  0
 24 26  2  0
 25 27  2  0
 27 26  1  0
M  RAD  8   2   2   3   2   5   2   6   2  10   3  14   2  15   3  16   3
M  RAD  8  17   3  18   3  19   3  21   3  23   2  24   2  25   2  26   2
M  RAD  1  27   2
M  END
>  <REMARK>  (1) 
 SMILES O=C(CNC(=O)C1CCCCC1)Nc1ccc(OCc2ccccc2)cc1
 SMILES IDX 14 1 15 2 16 3 17 4 26 5 27 6 13 7 2 8 1 9 3 11 4 12 5 13
 SMILES IDX 6 15 7 16 8 17 12 18 9 19 11 20 10 21 18 22 19 23 20 24
 SMILES IDX 21 25 25 26 22 27 24 28 23 29
 H PARENT 13 10 4 14

>  <TORSDO>  (1) 
F 7

$$$$
