/home/pchatterjee/Documents/git/vs_workflow/DiffDock/diffdock_run/pdbqt_scrubbed/Z31409736.pdbqt
     RDKit          3D

 27 29  0  0  0  0  0  0  0  0999 V2000
   14.8859   60.2264   84.7373 C   0  0  0  0  0  0  0  0  0  0  0  0
   15.1284   58.9817   84.2025 C   0  0  0  0  0  3  0  0  0  0  0  0
   15.3860   57.8930   85.0021 C   0  0  0  0  0  3  0  0  0  0  0  0
   15.4010   58.0567   86.3805 C   0  0  0  0  0  0  0  0  0  0  0  0
   15.1593   59.2992   86.9230 C   0  0  0  0  0  3  0  0  0  0  0  0
   14.8994   60.3963   86.1075 C   0  0  0  0  0  3  0  0  0  0  0  0
   14.6298   61.2894   83.8254 N   0  0  0  0  0  0  0  0  0  0  0  0
   13.4528   62.0721   84.0707 C   0  0  0  0  0  0  0  0  0  0  0  0
   12.7688   61.7621   85.0774 O   0  0  0  0  0  0  0  0  0  0  0  0
   13.1255   63.1695   83.1450 C   0  0  0  0  0  2  0  0  0  0  0  0
   11.8067   63.7284   83.3915 N   0  0  0  0  0  0  0  0  0  0  0  0
   11.1678   64.6310   82.4971 C   0  0  0  0  0  0  0  0  0  0  0  0
   10.9118   64.3564   81.2971 O   0  0  0  0  0  0  0  0  0  0  0  0
   10.7801   65.9738   83.0054 C   0  0  0  0  0  3  0  0  0  0  0  0
    9.2862   66.1487   82.9175 C   0  0  0  0  0  2  0  0  0  0  0  0
   11.4335   67.0972   82.2363 C   0  0  0  0  0  2  0  0  0  0  0  0
    8.8808   67.6039   83.0055 C   0  0  0  0  0  2  0  0  0  0  0  0
   10.4644   67.4757   81.1142 C   0  0  0  0  0  2  0  0  0  0  0  0
    9.3194   68.2695   81.7205 C   0  0  0  0  0  2  0  0  0  0  0  0
   15.6655   56.9275   87.1337 O   0  0  0  0  0  0  0  0  0  0  0  0
   15.2780   55.6630   86.5942 C   0  0  0  0  0  2  0  0  0  0  0  0
   15.6358   54.6510   87.6255 C   0  0  0  0  0  0  0  0  0  0  0  0
   15.6257   53.2999   87.3945 C   0  0  0  0  0  3  0  0  0  0  0  0
   15.9921   55.1418   88.8715 C   0  0  0  0  0  3  0  0  0  0  0  0
   15.9701   52.4059   88.3990 C   0  0  0  0  0  3  0  0  0  0  0  0
   16.3341   54.2283   89.8650 C   0  0  0  0  0  3  0  0  0  0  0  0
   16.3265   52.8744   89.6421 C   0  0  0  0  0  3  0  0  0  0  0  0
  1  7  1  0
  2  1  2  0
  3  2  1  0
  4  5  1  0
  4  3  2  0
  5  6  2  0
  6  1  1  0
  7  8  1  0
  8 10  1  0
  9  8  2  0
 11 10  1  0
 12 11  1  0
 12 13  2  0
 14 12  1  0
 15 14  1  0
 16 14  1  0
 17 15  1  0
 18 19  1  0
 18 16  1  0
 19 17  1  0
 20  4  1  0
 21 20  1  0
 21 22  1  0
 22 24  1  0
 23 22  2  0
 23 25  1  0
 24 26  2  0
 25 27  2  0
 27 26  1  0
M  RAD  8   2   2   3   2   5   2   6   2  10   3  14   2  15   3  16   3
M  RAD  8  17   3  18   3  19   3  21   3  23   2  24   2  25   2  26   2
M  RAD  1  27   2
M  END
>  <REMARK>  (1) 
 SMILES O=C(CNC(=O)C1CCCCC1)Nc1ccc(OCc2ccccc2)cc1
 SMILES IDX 14 1 15 2 16 3 17 4 26 5 27 6 13 7 2 8 1 9 3 11 4 12 5 13
 SMILES IDX 6 15 7 16 8 17 12 18 9 19 11 20 10 21 18 22 19 23 20 24
 SMILES IDX 21 25 25 26 22 27 24 28 23 29
 H PARENT 13 10 4 14

>  <TORSDO>  (1) 
F 7

$$$$
