/home/pchatterjee/Documents/git/vs_workflow/DiffDock/diffdock_run/pdbqt_scrubbed/Z31409736.pdbqt
     RDKit          3D

 27 29  0  0  0  0  0  0  0  0999 V2000
   13.3679   61.5878   83.2634 C   0  0  0  0  0  0  0  0  0  0  0  0
   13.9951   62.6497   83.8743 C   0  0  0  0  0  3  0  0  0  0  0  0
   13.5574   63.9414   83.6987 C   0  0  0  0  0  3  0  0  0  0  0  0
   12.4570   64.1763   82.8856 C   0  0  0  0  0  0  0  0  0  0  0  0
   11.8242   63.1189   82.2710 C   0  0  0  0  0  3  0  0  0  0  0  0
   12.2729   61.8144   82.4535 C   0  0  0  0  0  3  0  0  0  0  0  0
   13.8974   60.2890   83.5084 N   0  0  0  0  0  0  0  0  0  0  0  0
   13.6405   59.7281   84.8035 C   0  0  0  0  0  0  0  0  0  0  0  0
   13.0758   60.4756   85.6402 O   0  0  0  0  0  0  0  0  0  0  0  0
   14.0468   58.3376   85.0673 C   0  0  0  0  0  2  0  0  0  0  0  0
   13.8071   57.9413   86.4449 N   0  0  0  0  0  0  0  0  0  0  0  0
   14.0990   56.6401   86.9392 C   0  0  0  0  0  0  0  0  0  0  0  0
   14.4257   56.4059   88.1304 O   0  0  0  0  0  0  0  0  0  0  0  0
   14.0140   55.4913   85.9984 C   0  0  0  0  0  3  0  0  0  0  0  0
   12.6770   55.4890   85.3039 C   0  0  0  0  0  2  0  0  0  0  0  0
   14.1898   54.1601   86.6895 C   0  0  0  0  0  2  0  0  0  0  0  0
   12.3656   54.1461   84.6804 C   0  0  0  0  0  2  0  0  0  0  0  0
   12.7874   53.6799   87.0691 C   0  0  0  0  0  2  0  0  0  0  0  0
   12.0983   53.1784   85.8112 C   0  0  0  0  0  2  0  0  0  0  0  0
   12.0623   65.4944   82.7461 O   0  0  0  0  0  0  0  0  0  0  0  0
   11.1314   65.8030   81.7077 C   0  0  0  0  0  2  0  0  0  0  0  0
   11.1419   67.2856   81.5759 C   0  0  0  0  0  0  0  0  0  0  0  0
   10.8682   68.1388   82.6132 C   0  0  0  0  0  3  0  0  0  0  0  0
   11.4493   67.7896   80.3222 C   0  0  0  0  0  3  0  0  0  0  0  0
   10.8943   69.5141   82.4262 C   0  0  0  0  0  3  0  0  0  0  0  0
   11.4701   69.1718   80.1560 C   0  0  0  0  0  3  0  0  0  0  0  0
   11.1973   70.0328   81.1890 C   0  0  0  0  0  3  0  0  0  0  0  0
  1  7  1  0
  2  1  2  0
  3  2  1  0
  4  5  1  0
  4  3  2  0
  5  6  2  0
  6  1  1  0
  7  8  1  0
  8 10  1  0
  9  8  2  0
 11 10  1  0
 12 11  1  0
 12 13  2  0
 14 12  1  0
 15 14  1  0
 16 14  1  0
 17 15  1  0
 18 19  1  0
 18 16  1  0
 19 17  1  0
 20  4  1  0
 21 20  1  0
 21 22  1  0
 22 24  1  0
 23 22  2  0
 23 25  1  0
 24 26  2  0
 25 27  2  0
 27 26  1  0
M  RAD  8   2   2   3   2   5   2   6   2  10   3  14   2  15   3  16   3
M  RAD  8  17   3  18   3  19   3  21   3  23   2  24   2  25   2  26   2
M  RAD  1  27   2
M  END
>  <REMARK>  (1) 
 SMILES O=C(CNC(=O)C1CCCCC1)Nc1ccc(OCc2ccccc2)cc1
 SMILES IDX 14 1 15 2 16 3 17 4 26 5 27 6 13 7 2 8 1 9 3 11 4 12 5 13
 SMILES IDX 6 15 7 16 8 17 12 18 9 19 11 20 10 21 18 22 19 23 20 24
 SMILES IDX 21 25 25 26 22 27 24 28 23 29
 H PARENT 13 10 4 14

>  <TORSDO>  (1) 
F 7

$$$$
