/home/pchatterjee/Documents/git/vs_workflow/DiffDock/diffdock_run/pdbqt_scrubbed/Z31409736.pdbqt
     RDKit          3D

 27 29  0  0  0  0  0  0  0  0999 V2000
    7.0662   66.3059   83.2033 C   0  0  0  0  0  0  0  0  0  0  0  0
    7.4030   67.6377   83.2871 C   0  0  0  0  0  3  0  0  0  0  0  0
    8.6556   68.0861   82.9395 C   0  0  0  0  0  3  0  0  0  0  0  0
    9.6000   67.1714   82.4940 C   0  0  0  0  0  0  0  0  0  0  0  0
    9.2704   65.8372   82.4075 C   0  0  0  0  0  3  0  0  0  0  0  0
    8.0007   65.3909   82.7610 C   0  0  0  0  0  3  0  0  0  0  0  0
    5.7439   65.9424   83.5863 N   0  0  0  0  0  0  0  0  0  0  0  0
    5.3440   66.2972   84.9175 C   0  0  0  0  0  0  0  0  0  0  0  0
    5.8410   67.3472   85.3950 O   0  0  0  0  0  0  0  0  0  0  0  0
    4.3938   65.4254   85.6285 C   0  0  0  0  0  2  0  0  0  0  0  0
    3.6576   66.1338   86.6622 N   0  0  0  0  0  0  0  0  0  0  0  0
    4.0399   66.1226   88.0321 C   0  0  0  0  0  0  0  0  0  0  0  0
    3.3718   66.6711   88.9450 O   0  0  0  0  0  0  0  0  0  0  0  0
    5.2982   65.4249   88.4088 C   0  0  0  0  0  3  0  0  0  0  0  0
    5.2624   63.9976   87.9278 C   0  0  0  0  0  2  0  0  0  0  0  0
    5.5328   65.4150   89.9007 C   0  0  0  0  0  2  0  0  0  0  0  0
    6.2870   63.1367   88.6338 C   0  0  0  0  0  2  0  0  0  0  0  0
    4.9071   64.1227   90.4296 C   0  0  0  0  0  2  0  0  0  0  0  0
    5.8204   62.9654   90.0620 C   0  0  0  0  0  2  0  0  0  0  0  0
   10.8418   67.6795   82.1587 O   0  0  0  0  0  0  0  0  0  0  0  0
   11.9398   67.3732   83.0194 C   0  0  0  0  0  2  0  0  0  0  0  0
   13.1495   67.9279   82.3529 C   0  0  0  0  0  0  0  0  0  0  0  0
   14.4258   67.5186   82.6402 C   0  0  0  0  0  3  0  0  0  0  0  0
   12.9309   68.9076   81.3976 C   0  0  0  0  0  3  0  0  0  0  0  0
   15.5143   68.0755   81.9829 C   0  0  0  0  0  3  0  0  0  0  0  0
   14.0363   69.4531   80.7500 C   0  0  0  0  0  3  0  0  0  0  0  0
   15.3169   69.0491   81.0318 C   0  0  0  0  0  3  0  0  0  0  0  0
  1  7  1  0
  2  1  2  0
  3  2  1  0
  4  5  1  0
  4  3  2  0
  5  6  2  0
  6  1  1  0
  7  8  1  0
  8 10  1  0
  9  8  2  0
 11 10  1  0
 12 11  1  0
 12 13  2  0
 14 12  1  0
 15 14  1  0
 16 14  1  0
 17 15  1  0
 18 19  1  0
 18 16  1  0
 19 17  1  0
 20  4  1  0
 21 20  1  0
 21 22  1  0
 22 24  1  0
 23 22  2  0
 23 25  1  0
 24 26  2  0
 25 27  2  0
 27 26  1  0
M  RAD  8   2   2   3   2   5   2   6   2  10   3  14   2  15   3  16   3
M  RAD  8  17   3  18   3  19   3  21   3  23   2  24   2  25   2  26   2
M  RAD  1  27   2
M  END
>  <REMARK>  (1) 
 SMILES O=C(CNC(=O)C1CCCCC1)Nc1ccc(OCc2ccccc2)cc1
 SMILES IDX 14 1 15 2 16 3 17 4 26 5 27 6 13 7 2 8 1 9 3 11 4 12 5 13
 SMILES IDX 6 15 7 16 8 17 12 18 9 19 11 20 10 21 18 22 19 23 20 24
 SMILES IDX 21 25 25 26 22 27 24 28 23 29
 H PARENT 13 10 4 14

>  <TORSDO>  (1) 
F 7

$$$$
