/home/pchatterjee/Documents/git/vs_workflow/DiffDock/diffdock_run/pdbqt_scrubbed/123920449.pdbqt
     RDKit          3D

 25 28  0  0  1  0  0  0  0  0999 V2000
    7.5318   43.6535   49.4214 C   0  0  0  0  0  3  0  0  0  0  0  0
    8.8978   43.9721   49.6203 N   0  0  0  0  0  0  0  0  0  0  0  0
    9.2639   44.8149   50.5028 C   0  0  0  0  0  0  0  0  0  0  0  0
   10.5296   45.2183   50.8055 N   0  0  0  0  0  0  0  0  0  0  0  0
   10.4992   46.1298   51.8068 C   0  0  0  0  0  3  0  0  0  0  0  0
    9.2083   46.3041   52.1392 N   0  0  0  0  0  0  0  0  0  0  0  0
    8.4422   45.5099   51.3538 C   0  0  0  0  0  0  0  0  0  0  0  0
    7.1349   45.3140   51.2827 C   0  0  0  0  0  0  0  0  0  0  0  0
    6.6914   44.3768   50.3054 N   0  0  0  0  0  0  0  0  0  0  0  0
    7.2370   42.2526   49.3189 N   0  0  0  0  0  0  0  0  0  0  0  0
    6.0038   41.7226   48.8515 C   0  0  0  0  0  0  0  0  0  0  0  0
    3.7423   41.1469   49.3987 C   0  0  0  0  0  0  0  0  0  0  0  0
    3.5992   40.7325   48.0931 C   0  0  0  0  0  3  0  0  0  0  0  0
    4.9719   41.6517   49.7811 C   0  0  0  0  0  3  0  0  0  0  0  0
    4.6008   40.7940   47.1654 C   0  0  0  0  0  3  0  0  0  0  0  0
    5.8306   41.2960   47.5372 C   0  0  0  0  0  3  0  0  0  0  0  0
    2.7255   41.0726   50.2987 F   0  0  0  0  0  0  0  0  0  0  0  0
    6.2901   45.9962   52.1223 O   0  0  0  0  0  0  0  0  0  0  0  0
    4.8911   46.0192   52.0640 C   0  0  0  0  0  2  0  0  0  0  0  0
    4.3069   44.8517   52.8258 C   0  0  0  0  0  3  0  0  0  0  0  0
    4.4353   45.0961   54.3123 C   0  0  0  0  0  2  0  0  0  0  0  0
    2.8370   44.7517   52.4741 C   0  0  0  0  0  2  0  0  0  0  0  0
    3.1141   45.0476   55.0357 C   0  0  0  0  0  2  0  0  0  0  0  0
    2.0875   45.9722   52.9684 C   0  0  0  0  0  2  0  0  0  0  0  0
    2.1432   46.0673   54.4809 C   0  0  0  0  0  2  0  0  0  0  0  0
  1  2  1  0
  1 10  1  0
  3  4  1  0
  3  2  2  0
  5  4  2  0
  6  7  1  0
  6  5  1  0
  7  3  1  0
  8  7  2  0
  8  9  1  0
  9  1  1  0
 10 11  1  0
 11 14  2  0
 12 17  1  0
 13 12  2  0
 14 12  1  0
 15 13  1  0
 16 11  1  0
 16 15  2  0
 18  8  1  0
 18 19  1  0
 19 20  1  0
 20 21  1  0
 20 22  1  0
 21 23  1  0
 22 24  1  0
 23 25  1  0
 24 25  1  0
M  RAD  8   1   2   5   2  13   2  14   2  15   2  16   2  19   3  20   2
M  RAD  5  21   3  22   3  23   3  24   3  25   3
M  END
>  <REMARK>  (1) 
 SMILES Fc1cccc(Nc2nc3nc[nH]c3c(OCC3CCCCC3)[nH+]2)c1
 SMILES IDX 8 1 9 2 10 3 11 4 12 5 13 6 14 7 15 8 24 9 7 12 6 14 2 15
 SMILES IDX 3 16 25 17 4 18 5 19 1 20 16 21 17 22 18 23 19 24 23 25
 SMILES IDX 20 26 22 27 21 28
 H PARENT 13 10 24 11 7 13

>  <TORSDO>  (1) 
F 5

$$$$
