/home/pchatterjee/Documents/git/vs_workflow/DiffDock/diffdock_run/pdbqt_scrubbed/123920449.pdbqt
     RDKit          3D

 25 28  0  0  1  0  0  0  0  0999 V2000
    7.5554   43.6279   49.0119 C   0  0  0  0  0  3  0  0  0  0  0  0
    8.8658   44.0732   49.3141 N   0  0  0  0  0  0  0  0  0  0  0  0
    9.0852   44.9184   50.2418 C   0  0  0  0  0  0  0  0  0  0  0  0
   10.2806   45.4346   50.6427 N   0  0  0  0  0  0  0  0  0  0  0  0
   10.0915   46.3051   51.6629 C   0  0  0  0  0  3  0  0  0  0  0  0
    8.7703   46.3400   51.9087 N   0  0  0  0  0  0  0  0  0  0  0  0
    8.1425   45.5003   51.0512 C   0  0  0  0  0  0  0  0  0  0  0  0
    6.8693   45.1786   50.8837 C   0  0  0  0  0  0  0  0  0  0  0  0
    6.5890   44.2351   49.8536 N   0  0  0  0  0  0  0  0  0  0  0  0
    7.4107   42.2088   48.8524 N   0  0  0  0  0  0  0  0  0  0  0  0
    6.2208   41.5660   48.4154 C   0  0  0  0  0  0  0  0  0  0  0  0
    4.0090   40.8494   48.9979 C   0  0  0  0  0  0  0  0  0  0  0  0
    3.8974   40.3629   47.7142 C   0  0  0  0  0  3  0  0  0  0  0  0
    5.1972   41.4628   49.3511 C   0  0  0  0  0  3  0  0  0  0  0  0
    4.8915   40.4548   46.7809 C   0  0  0  0  0  3  0  0  0  0  0  0
    6.0802   41.0648   47.1238 C   0  0  0  0  0  3  0  0  0  0  0  0
    3.0006   40.7424   49.9041 F   0  0  0  0  0  0  0  0  0  0  0  0
    5.9057   45.7460   51.6797 O   0  0  0  0  0  0  0  0  0  0  0  0
    4.6225   45.2431   51.9279 C   0  0  0  0  0  2  0  0  0  0  0  0
    3.9807   45.9696   53.0876 C   0  0  0  0  0  3  0  0  0  0  0  0
    3.7763   47.4241   52.7291 C   0  0  0  0  0  2  0  0  0  0  0  0
    2.6287   45.3372   53.3457 C   0  0  0  0  0  2  0  0  0  0  0  0
    2.3403   47.8660   52.8472 C   0  0  0  0  0  2  0  0  0  0  0  0
    1.7032   45.5607   52.1671 C   0  0  0  0  0  2  0  0  0  0  0  0
    1.4337   47.0389   51.9616 C   0  0  0  0  0  2  0  0  0  0  0  0
  1  2  1  0
  1 10  1  0
  3  4  1  0
  3  2  2  0
  5  4  2  0
  6  7  1  0
  6  5  1  0
  7  3  1  0
  8  7  2  0
  8  9  1  0
  9  1  1  0
 10 11  1  0
 11 14  2  0
 12 17  1  0
 13 12  2  0
 14 12  1  0
 15 13  1  0
 16 11  1  0
 16 15  2  0
 18  8  1  0
 18 19  1  0
 19 20  1  0
 20 21  1  0
 20 22  1  0
 21 23  1  0
 22 24  1  0
 23 25  1  0
 24 25  1  0
M  RAD  8   1   2   5   2  13   2  14   2  15   2  16   2  19   3  20   2
M  RAD  5  21   3  22   3  23   3  24   3  25   3
M  END
>  <REMARK>  (1) 
 SMILES Fc1cccc(Nc2nc3nc[nH]c3c(OCC3CCCCC3)[nH+]2)c1
 SMILES IDX 8 1 9 2 10 3 11 4 12 5 13 6 14 7 15 8 24 9 7 12 6 14 2 15
 SMILES IDX 3 16 25 17 4 18 5 19 1 20 16 21 17 22 18 23 19 24 23 25
 SMILES IDX 20 26 22 27 21 28
 H PARENT 13 10 24 11 7 13

>  <TORSDO>  (1) 
F 5

$$$$
