/home/pchatterjee/Documents/git/vs_workflow/DiffDock/diffdock_run/pdbqt_scrubbed/123920449.pdbqt
     RDKit          3D

 25 28  0  0  1  0  0  0  0  0999 V2000
    7.4507   43.7541   49.2154 C   0  0  0  0  0  3  0  0  0  0  0  0
    8.8220   44.0662   49.3851 N   0  0  0  0  0  0  0  0  0  0  0  0
    9.2080   44.9332   50.2351 C   0  0  0  0  0  0  0  0  0  0  0  0
   10.4813   45.3343   50.5072 N   0  0  0  0  0  0  0  0  0  0  0  0
   10.4731   46.2774   51.4793 C   0  0  0  0  0  3  0  0  0  0  0  0
    9.1887   46.4741   51.8238 N   0  0  0  0  0  0  0  0  0  0  0  0
    8.4046   45.6625   51.0748 C   0  0  0  0  0  0  0  0  0  0  0  0
    7.0947   45.4764   51.0281 C   0  0  0  0  0  0  0  0  0  0  0  0
    6.6292   44.5129   50.0875 N   0  0  0  0  0  0  0  0  0  0  0  0
    7.1421   42.3534   49.1618 N   0  0  0  0  0  0  0  0  0  0  0  0
    5.9083   41.8190   48.7010 C   0  0  0  0  0  0  0  0  0  0  0  0
    3.6416   41.2672   49.2510 C   0  0  0  0  0  0  0  0  0  0  0  0
    3.5021   40.8236   47.9546 C   0  0  0  0  0  3  0  0  0  0  0  0
    4.8719   41.7745   49.6273 C   0  0  0  0  0  3  0  0  0  0  0  0
    4.5081   40.8590   47.0303 C   0  0  0  0  0  3  0  0  0  0  0  0
    5.7388   41.3632   47.3961 C   0  0  0  0  0  3  0  0  0  0  0  0
    2.6204   41.2186   50.1479 F   0  0  0  0  0  0  0  0  0  0  0  0
    6.2679   46.1927   51.8571 O   0  0  0  0  0  0  0  0  0  0  0  0
    4.8676   46.1960   51.8433 C   0  0  0  0  0  2  0  0  0  0  0  0
    4.3248   44.9884   52.5726 C   0  0  0  0  0  3  0  0  0  0  0  0
    4.5246   45.1586   54.0616 C   0  0  0  0  0  2  0  0  0  0  0  0
    2.8399   44.8979   52.2879 C   0  0  0  0  0  2  0  0  0  0  0  0
    3.2402   45.0664   54.8448 C   0  0  0  0  0  2  0  0  0  0  0  0
    2.1114   46.0879   52.8788 C   0  0  0  0  0  2  0  0  0  0  0  0
    2.2403   46.1072   54.3898 C   0  0  0  0  0  2  0  0  0  0  0  0
  1  2  1  0
  1 10  1  0
  3  4  1  0
  3  2  2  0
  5  4  2  0
  6  7  1  0
  6  5  1  0
  7  3  1  0
  8  7  2  0
  8  9  1  0
  9  1  1  0
 10 11  1  0
 11 14  2  0
 12 17  1  0
 13 12  2  0
 14 12  1  0
 15 13  1  0
 16 11  1  0
 16 15  2  0
 18  8  1  0
 18 19  1  0
 19 20  1  0
 20 21  1  0
 20 22  1  0
 21 23  1  0
 22 24  1  0
 23 25  1  0
 24 25  1  0
M  RAD  8   1   2   5   2  13   2  14   2  15   2  16   2  19   3  20   2
M  RAD  5  21   3  22   3  23   3  24   3  25   3
M  END
>  <REMARK>  (1) 
 SMILES Fc1cccc(Nc2nc3nc[nH]c3c(OCC3CCCCC3)[nH+]2)c1
 SMILES IDX 8 1 9 2 10 3 11 4 12 5 13 6 14 7 15 8 24 9 7 12 6 14 2 15
 SMILES IDX 3 16 25 17 4 18 5 19 1 20 16 21 17 22 18 23 19 24 23 25
 SMILES IDX 20 26 22 27 21 28
 H PARENT 13 10 24 11 7 13

>  <TORSDO>  (1) 
F 5

$$$$
