/home/pchatterjee/Documents/git/vs_workflow/DiffDock/diffdock_run/pdbqt_scrubbed/123920449.pdbqt
     RDKit          3D

 25 28  0  0  1  0  0  0  0  0999 V2000
    7.5452   43.6171   49.0236 C   0  0  0  0  0  3  0  0  0  0  0  0
    8.8826   44.0194   49.2611 N   0  0  0  0  0  0  0  0  0  0  0  0
    9.1688   44.8963   50.1400 C   0  0  0  0  0  0  0  0  0  0  0  0
   10.3976   45.3788   50.4765 N   0  0  0  0  0  0  0  0  0  0  0  0
   10.2800   46.3026   51.4600 C   0  0  0  0  0  3  0  0  0  0  0  0
    8.9707   46.4051   51.7471 N   0  0  0  0  0  0  0  0  0  0  0  0
    8.2795   45.5545   50.9514 C   0  0  0  0  0  0  0  0  0  0  0  0
    6.9891   45.2801   50.8413 C   0  0  0  0  0  0  0  0  0  0  0  0
    6.6345   44.3030   49.8669 N   0  0  0  0  0  0  0  0  0  0  0  0
    7.3369   42.1996   48.9364 N   0  0  0  0  0  0  0  0  0  0  0  0
    6.0796   41.5856   48.6872 C   0  0  0  0  0  0  0  0  0  0  0  0
    4.5418   40.7841   47.0326 C   0  0  0  0  0  0  0  0  0  0  0  0
    3.7116   40.4236   48.0708 C   0  0  0  0  0  3  0  0  0  0  0  0
    5.7496   41.3770   47.3524 C   0  0  0  0  0  3  0  0  0  0  0  0
    4.0179   40.6202   49.3880 C   0  0  0  0  0  3  0  0  0  0  0  0
    5.2203   41.2108   49.7170 C   0  0  0  0  0  3  0  0  0  0  0  0
    4.2079   40.5749   45.7309 F   0  0  0  0  0  0  0  0  0  0  0  0
    6.0779   45.9241   51.6407 O   0  0  0  0  0  0  0  0  0  0  0  0
    4.7384   45.5669   51.8387 C   0  0  0  0  0  2  0  0  0  0  0  0
    4.2630   46.0162   53.2013 C   0  0  0  0  0  3  0  0  0  0  0  0
    4.4955   47.5018   53.3591 C   0  0  0  0  0  2  0  0  0  0  0  0
    2.7757   45.7439   53.2915 C   0  0  0  0  0  2  0  0  0  0  0  0
    3.2370   48.2663   53.6804 C   0  0  0  0  0  2  0  0  0  0  0  0
    2.0171   46.5989   52.2969 C   0  0  0  0  0  2  0  0  0  0  0  0
    2.1853   48.0733   52.6095 C   0  0  0  0  0  2  0  0  0  0  0  0
  1  2  1  0
  1 10  1  0
  3  4  1  0
  3  2  2  0
  5  4  2  0
  6  7  1  0
  6  5  1  0
  7  3  1  0
  8  7  2  0
  8  9  1  0
  9  1  1  0
 10 11  1  0
 11 14  2  0
 12 17  1  0
 13 12  2  0
 14 12  1  0
 15 13  1  0
 16 11  1  0
 16 15  2  0
 18  8  1  0
 18 19  1  0
 19 20  1  0
 20 21  1  0
 20 22  1  0
 21 23  1  0
 22 24  1  0
 23 25  1  0
 24 25  1  0
M  RAD  8   1   2   5   2  13   2  14   2  15   2  16   2  19   3  20   2
M  RAD  5  21   3  22   3  23   3  24   3  25   3
M  END
>  <REMARK>  (1) 
 SMILES Fc1cccc(Nc2nc3nc[nH]c3c(OCC3CCCCC3)[nH+]2)c1
 SMILES IDX 8 1 9 2 10 3 11 4 12 5 13 6 14 7 15 8 24 9 7 12 6 14 2 15
 SMILES IDX 3 16 25 17 4 18 5 19 1 20 16 21 17 22 18 23 19 24 23 25
 SMILES IDX 20 26 22 27 21 28
 H PARENT 13 10 24 11 7 13

>  <TORSDO>  (1) 
F 5

$$$$
