/home/pchatterjee/Documents/git/vs_workflow/DiffDock/diffdock_run/pdbqt_scrubbed/123920449.pdbqt
     RDKit          3D

 25 28  0  0  1  0  0  0  0  0999 V2000
    7.5319   43.8141   49.0927 C   0  0  0  0  0  3  0  0  0  0  0  0
    8.8780   44.2139   49.2795 N   0  0  0  0  0  0  0  0  0  0  0  0
    9.2217   44.9650   50.2496 C   0  0  0  0  0  0  0  0  0  0  0  0
   10.4666   45.4273   50.5541 N   0  0  0  0  0  0  0  0  0  0  0  0
   10.4159   46.1993   51.6658 C   0  0  0  0  0  3  0  0  0  0  0  0
    9.1330   46.2256   52.0666 N   0  0  0  0  0  0  0  0  0  0  0  0
    8.3919   45.4782   51.2141 C   0  0  0  0  0  0  0  0  0  0  0  0
    7.1010   45.1882   51.1677 C   0  0  0  0  0  0  0  0  0  0  0  0
    6.6828   44.3497   50.0944 N   0  0  0  0  0  0  0  0  0  0  0  0
    7.3383   42.4183   48.8202 N   0  0  0  0  0  0  0  0  0  0  0  0
    6.0706   41.8044   48.6302 C   0  0  0  0  0  0  0  0  0  0  0  0
    4.3538   41.2109   47.0664 C   0  0  0  0  0  0  0  0  0  0  0  0
    3.6650   40.6655   48.1270 C   0  0  0  0  0  3  0  0  0  0  0  0
    5.5815   41.7912   47.3283 C   0  0  0  0  0  3  0  0  0  0  0  0
    4.1286   40.6686   49.4126 C   0  0  0  0  0  3  0  0  0  0  0  0
    5.3521   41.2451   49.6838 C   0  0  0  0  0  3  0  0  0  0  0  0
    3.8649   41.1919   45.7974 F   0  0  0  0  0  0  0  0  0  0  0  0
    6.2486   45.6883   52.1201 O   0  0  0  0  0  0  0  0  0  0  0  0
    5.0170   45.1466   52.5084 C   0  0  0  0  0  2  0  0  0  0  0  0
    4.2621   46.1164   53.3884 C   0  0  0  0  0  3  0  0  0  0  0  0
    3.4020   47.0189   52.5331 C   0  0  0  0  0  2  0  0  0  0  0  0
    3.3631   45.3137   54.3059 C   0  0  0  0  0  2  0  0  0  0  0  0
    1.9420   46.9689   52.9035 C   0  0  0  0  0  2  0  0  0  0  0  0
    2.3027   44.5839   53.5067 C   0  0  0  0  0  2  0  0  0  0  0  0
    1.3921   45.5635   52.7920 C   0  0  0  0  0  2  0  0  0  0  0  0
  1  2  1  0
  1 10  1  0
  3  4  1  0
  3  2  2  0
  5  4  2  0
  6  7  1  0
  6  5  1  0
  7  3  1  0
  8  7  2  0
  8  9  1  0
  9  1  1  0
 10 11  1  0
 11 14  2  0
 12 17  1  0
 13 12  2  0
 14 12  1  0
 15 13  1  0
 16 11  1  0
 16 15  2  0
 18  8  1  0
 18 19  1  0
 19 20  1  0
 20 21  1  0
 20 22  1  0
 21 23  1  0
 22 24  1  0
 23 25  1  0
 24 25  1  0
M  RAD  8   1   2   5   2  13   2  14   2  15   2  16   2  19   3  20   2
M  RAD  5  21   3  22   3  23   3  24   3  25   3
M  END
>  <REMARK>  (1) 
 SMILES Fc1cccc(Nc2nc3nc[nH]c3c(OCC3CCCCC3)[nH+]2)c1
 SMILES IDX 8 1 9 2 10 3 11 4 12 5 13 6 14 7 15 8 24 9 7 12 6 14 2 15
 SMILES IDX 3 16 25 17 4 18 5 19 1 20 16 21 17 22 18 23 19 24 23 25
 SMILES IDX 20 26 22 27 21 28
 H PARENT 13 10 24 11 7 13

>  <TORSDO>  (1) 
F 5

$$$$
