/home/pchatterjee/Documents/git/vs_workflow/DiffDock/diffdock_run/pdbqt_scrubbed/123920449.pdbqt
     RDKit          3D

 25 28  0  0  1  0  0  0  0  0999 V2000
    7.5306   43.4823   49.2398 C   0  0  0  0  0  3  0  0  0  0  0  0
    8.8925   43.8266   49.4234 N   0  0  0  0  0  0  0  0  0  0  0  0
    9.2538   44.6674   50.3098 C   0  0  0  0  0  0  0  0  0  0  0  0
   10.5150   45.0932   50.5995 N   0  0  0  0  0  0  0  0  0  0  0  0
   10.4802   45.9934   51.6109 C   0  0  0  0  0  3  0  0  0  0  0  0
    9.1908   46.1377   51.9629 N   0  0  0  0  0  0  0  0  0  0  0  0
    8.4301   45.3364   51.1795 C   0  0  0  0  0  0  0  0  0  0  0  0
    7.1261   45.1146   51.1243 C   0  0  0  0  0  0  0  0  0  0  0  0
    6.6881   44.1790   50.1431 N   0  0  0  0  0  0  0  0  0  0  0  0
    7.2628   42.0768   49.1262 N   0  0  0  0  0  0  0  0  0  0  0  0
    5.9955   41.5238   48.7971 C   0  0  0  0  0  0  0  0  0  0  0  0
    4.5599   40.7186   47.0548 C   0  0  0  0  0  0  0  0  0  0  0  0
    3.6213   40.4683   48.0312 C   0  0  0  0  0  3  0  0  0  0  0  0
    5.7705   41.2575   47.4508 C   0  0  0  0  0  3  0  0  0  0  0  0
    3.8236   40.7231   49.3586 C   0  0  0  0  0  3  0  0  0  0  0  0
    5.0278   41.2605   49.7632 C   0  0  0  0  0  3  0  0  0  0  0  0
    4.3281   40.4537   45.7412 F   0  0  0  0  0  0  0  0  0  0  0  0
    6.2795   45.7705   51.9827 O   0  0  0  0  0  0  0  0  0  0  0  0
    5.0016   45.3555   52.3776 C   0  0  0  0  0  2  0  0  0  0  0  0
    4.3967   46.3440   53.3481 C   0  0  0  0  0  3  0  0  0  0  0  0
    3.3994   47.2224   52.6272 C   0  0  0  0  0  2  0  0  0  0  0  0
    3.6692   45.5610   54.4214 C   0  0  0  0  0  2  0  0  0  0  0  0
    2.0219   47.1765   53.2370 C   0  0  0  0  0  2  0  0  0  0  0  0
    2.4960   44.8082   53.8277 C   0  0  0  0  0  2  0  0  0  0  0  0
    1.4716   45.7669   53.2520 C   0  0  0  0  0  2  0  0  0  0  0  0
  1  2  1  0
  1 10  1  0
  3  4  1  0
  3  2  2  0
  5  4  2  0
  6  7  1  0
  6  5  1  0
  7  3  1  0
  8  7  2  0
  8  9  1  0
  9  1  1  0
 10 11  1  0
 11 14  2  0
 12 17  1  0
 13 12  2  0
 14 12  1  0
 15 13  1  0
 16 11  1  0
 16 15  2  0
 18  8  1  0
 18 19  1  0
 19 20  1  0
 20 21  1  0
 20 22  1  0
 21 23  1  0
 22 24  1  0
 23 25  1  0
 24 25  1  0
M  RAD  8   1   2   5   2  13   2  14   2  15   2  16   2  19   3  20   2
M  RAD  5  21   3  22   3  23   3  24   3  25   3
M  END
>  <REMARK>  (1) 
 SMILES Fc1cccc(Nc2nc3nc[nH]c3c(OCC3CCCCC3)[nH+]2)c1
 SMILES IDX 8 1 9 2 10 3 11 4 12 5 13 6 14 7 15 8 24 9 7 12 6 14 2 15
 SMILES IDX 3 16 25 17 4 18 5 19 1 20 16 21 17 22 18 23 19 24 23 25
 SMILES IDX 20 26 22 27 21 28
 H PARENT 13 10 24 11 7 13

>  <TORSDO>  (1) 
F 5

$$$$
