/home/pchatterjee/Documents/git/vs_workflow/DiffDock/diffdock_run/pdbqt_scrubbed/123920449.pdbqt
     RDKit          3D

 25 28  0  0  1  0  0  0  0  0999 V2000
    7.4392   43.5892   49.0271 C   0  0  0  0  0  3  0  0  0  0  0  0
    8.7863   43.9900   49.2046 N   0  0  0  0  0  0  0  0  0  0  0  0
    9.1272   44.7863   50.1389 C   0  0  0  0  0  0  0  0  0  0  0  0
   10.3725   45.2560   50.4300 N   0  0  0  0  0  0  0  0  0  0  0  0
   10.3180   46.0827   51.5015 C   0  0  0  0  0  3  0  0  0  0  0  0
    9.0322   46.1363   51.8902 N   0  0  0  0  0  0  0  0  0  0  0  0
    8.2931   45.3517   51.0701 C   0  0  0  0  0  0  0  0  0  0  0  0
    7.0009   45.0672   51.0278 C   0  0  0  0  0  0  0  0  0  0  0  0
    6.5858   44.1788   49.9941 N   0  0  0  0  0  0  0  0  0  0  0  0
    7.2391   42.1826   48.8229 N   0  0  0  0  0  0  0  0  0  0  0  0
    5.9894   41.5866   48.5016 C   0  0  0  0  0  0  0  0  0  0  0  0
    3.8712   40.8232   49.3235 C   0  0  0  0  0  0  0  0  0  0  0  0
    3.5717   40.4604   48.0291 C   0  0  0  0  0  3  0  0  0  0  0  0
    5.1069   41.3978   49.5597 C   0  0  0  0  0  3  0  0  0  0  0  0
    4.4251   40.6376   46.9766 C   0  0  0  0  0  3  0  0  0  0  0  0
    5.6598   41.2099   47.2022 C   0  0  0  0  0  3  0  0  0  0  0  0
    2.9996   40.6334   50.3501 F   0  0  0  0  0  0  0  0  0  0  0  0
    6.1442   45.6191   51.9473 O   0  0  0  0  0  0  0  0  0  0  0  0
    4.9433   45.0665   52.4094 C   0  0  0  0  0  2  0  0  0  0  0  0
    4.1634   46.0826   53.2119 C   0  0  0  0  0  3  0  0  0  0  0  0
    3.7077   47.2061   52.3086 C   0  0  0  0  0  2  0  0  0  0  0  0
    2.9425   45.3911   53.7826 C   0  0  0  0  0  2  0  0  0  0  0  0
    2.2141   47.4067   52.3221 C   0  0  0  0  0  2  0  0  0  0  0  0
    2.0109   44.9532   52.6708 C   0  0  0  0  0  2  0  0  0  0  0  0
    1.4844   46.1494   51.9015 C   0  0  0  0  0  2  0  0  0  0  0  0
  1  2  1  0
  1 10  1  0
  3  4  1  0
  3  2  2  0
  5  4  2  0
  6  7  1  0
  6  5  1  0
  7  3  1  0
  8  7  2  0
  8  9  1  0
  9  1  1  0
 10 11  1  0
 11 14  2  0
 12 17  1  0
 13 12  2  0
 14 12  1  0
 15 13  1  0
 16 11  1  0
 16 15  2  0
 18  8  1  0
 18 19  1  0
 19 20  1  0
 20 21  1  0
 20 22  1  0
 21 23  1  0
 22 24  1  0
 23 25  1  0
 24 25  1  0
M  RAD  8   1   2   5   2  13   2  14   2  15   2  16   2  19   3  20   2
M  RAD  5  21   3  22   3  23   3  24   3  25   3
M  END
>  <REMARK>  (1) 
 SMILES Fc1cccc(Nc2nc3nc[nH]c3c(OCC3CCCCC3)[nH+]2)c1
 SMILES IDX 8 1 9 2 10 3 11 4 12 5 13 6 14 7 15 8 24 9 7 12 6 14 2 15
 SMILES IDX 3 16 25 17 4 18 5 19 1 20 16 21 17 22 18 23 19 24 23 25
 SMILES IDX 20 26 22 27 21 28
 H PARENT 13 10 24 11 7 13

>  <TORSDO>  (1) 
F 5

$$$$
