/home/pchatterjee/Documents/git/vs_workflow/DiffDock/diffdock_run/pdbqt_scrubbed/123920449.pdbqt
     RDKit          3D

 25 28  0  0  1  0  0  0  0  0999 V2000
    7.4556   43.6809   49.1161 C   0  0  0  0  0  3  0  0  0  0  0  0
    8.7709   44.1496   49.3553 N   0  0  0  0  0  0  0  0  0  0  0  0
    9.0220   44.9859   50.2831 C   0  0  0  0  0  0  0  0  0  0  0  0
   10.2262   45.5217   50.6280 N   0  0  0  0  0  0  0  0  0  0  0  0
   10.0739   46.3732   51.6702 C   0  0  0  0  0  3  0  0  0  0  0  0
    8.7672   46.3763   51.9862 N   0  0  0  0  0  0  0  0  0  0  0  0
    8.1120   45.5359   51.1502 C   0  0  0  0  0  0  0  0  0  0  0  0
    6.8385   45.1896   51.0455 C   0  0  0  0  0  0  0  0  0  0  0  0
    6.5231   44.2552   50.0172 N   0  0  0  0  0  0  0  0  0  0  0  0
    7.3318   42.2616   48.9425 N   0  0  0  0  0  0  0  0  0  0  0  0
    6.1514   41.6056   48.4992 C   0  0  0  0  0  0  0  0  0  0  0  0
    3.9360   40.8848   49.0628 C   0  0  0  0  0  0  0  0  0  0  0  0
    3.8442   40.3792   47.7850 C   0  0  0  0  0  3  0  0  0  0  0  0
    5.1160   41.5100   49.4227 C   0  0  0  0  0  3  0  0  0  0  0  0
    4.8501   40.4633   46.8637 C   0  0  0  0  0  3  0  0  0  0  0  0
    6.0307   41.0851   47.2133 C   0  0  0  0  0  3  0  0  0  0  0  0
    2.9163   40.7851   49.9571 F   0  0  0  0  0  0  0  0  0  0  0  0
    5.9073   45.7247   51.9001 O   0  0  0  0  0  0  0  0  0  0  0  0
    4.6554   45.1840   52.2187 C   0  0  0  0  0  2  0  0  0  0  0  0
    3.9224   46.0762   53.1940 C   0  0  0  0  0  3  0  0  0  0  0  0
    3.7588   47.4568   52.5997 C   0  0  0  0  0  2  0  0  0  0  0  0
    2.5492   45.4823   53.4307 C   0  0  0  0  0  2  0  0  0  0  0  0
    2.3209   47.9021   52.5261 C   0  0  0  0  0  2  0  0  0  0  0  0
    1.7285   45.5155   52.1575 C   0  0  0  0  0  2  0  0  0  0  0  0
    1.4872   46.9426   51.7048 C   0  0  0  0  0  2  0  0  0  0  0  0
  1  2  1  0
  1 10  1  0
  3  4  1  0
  3  2  2  0
  5  4  2  0
  6  7  1  0
  6  5  1  0
  7  3  1  0
  8  7  2  0
  8  9  1  0
  9  1  1  0
 10 11  1  0
 11 14  2  0
 12 17  1  0
 13 12  2  0
 14 12  1  0
 15 13  1  0
 16 11  1  0
 16 15  2  0
 18  8  1  0
 18 19  1  0
 19 20  1  0
 20 21  1  0
 20 22  1  0
 21 23  1  0
 22 24  1  0
 23 25  1  0
 24 25  1  0
M  RAD  8   1   2   5   2  13   2  14   2  15   2  16   2  19   3  20   2
M  RAD  5  21   3  22   3  23   3  24   3  25   3
M  END
>  <REMARK>  (1) 
 SMILES Fc1cccc(Nc2nc3nc[nH]c3c(OCC3CCCCC3)[nH+]2)c1
 SMILES IDX 8 1 9 2 10 3 11 4 12 5 13 6 14 7 15 8 24 9 7 12 6 14 2 15
 SMILES IDX 3 16 25 17 4 18 5 19 1 20 16 21 17 22 18 23 19 24 23 25
 SMILES IDX 20 26 22 27 21 28
 H PARENT 13 10 24 11 7 13

>  <TORSDO>  (1) 
F 5

$$$$
