/home/pchatterjee/Documents/git/vs_workflow/DiffDock/diffdock_run/pdbqt_scrubbed/123920449.pdbqt
     RDKit          3D

 25 28  0  0  1  0  0  0  0  0999 V2000
    7.5569   43.5533   48.9791 C   0  0  0  0  0  3  0  0  0  0  0  0
    8.9020   43.9381   49.2019 N   0  0  0  0  0  0  0  0  0  0  0  0
    9.2205   44.7314   50.1466 C   0  0  0  0  0  0  0  0  0  0  0  0
   10.4608   45.1866   50.4794 N   0  0  0  0  0  0  0  0  0  0  0  0
   10.3799   46.0151   51.5477 C   0  0  0  0  0  3  0  0  0  0  0  0
    9.0824   46.0846   51.8926 N   0  0  0  0  0  0  0  0  0  0  0  0
    8.3622   45.3079   51.0485 C   0  0  0  0  0  0  0  0  0  0  0  0
    7.0688   45.0389   50.9625 C   0  0  0  0  0  0  0  0  0  0  0  0
    6.6783   44.1542   49.9161 N   0  0  0  0  0  0  0  0  0  0  0  0
    7.3470   42.1490   48.7693 N   0  0  0  0  0  0  0  0  0  0  0  0
    6.0947   41.5638   48.4386 C   0  0  0  0  0  0  0  0  0  0  0  0
    3.9713   40.8011   49.2476 C   0  0  0  0  0  0  0  0  0  0  0  0
    3.6717   40.4567   47.9482 C   0  0  0  0  0  3  0  0  0  0  0  0
    5.2096   41.3660   49.4929 C   0  0  0  0  0  3  0  0  0  0  0  0
    4.5275   40.6431   46.8992 C   0  0  0  0  0  3  0  0  0  0  0  0
    5.7648   41.2058   47.1339 C   0  0  0  0  0  3  0  0  0  0  0  0
    3.0972   40.6026   50.2704 F   0  0  0  0  0  0  0  0  0  0  0  0
    6.1881   45.6021   51.8520 O   0  0  0  0  0  0  0  0  0  0  0  0
    4.9408   45.0913   52.2319 C   0  0  0  0  0  2  0  0  0  0  0  0
    4.2843   45.9928   53.2522 C   0  0  0  0  0  3  0  0  0  0  0  0
    3.5258   47.0945   52.5474 C   0  0  0  0  0  2  0  0  0  0  0  0
    3.3029   45.1596   54.0504 C   0  0  0  0  0  2  0  0  0  0  0  0
    2.0663   47.1397   52.9206 C   0  0  0  0  0  2  0  0  0  0  0  0
    2.1778   44.6675   53.1629 C   0  0  0  0  0  2  0  0  0  0  0  0
    1.3760   45.8295   52.6089 C   0  0  0  0  0  2  0  0  0  0  0  0
  1  2  1  0
  1 10  1  0
  3  4  1  0
  3  2  2  0
  5  4  2  0
  6  7  1  0
  6  5  1  0
  7  3  1  0
  8  7  2  0
  8  9  1  0
  9  1  1  0
 10 11  1  0
 11 14  2  0
 12 17  1  0
 13 12  2  0
 14 12  1  0
 15 13  1  0
 16 11  1  0
 16 15  2  0
 18  8  1  0
 18 19  1  0
 19 20  1  0
 20 21  1  0
 20 22  1  0
 21 23  1  0
 22 24  1  0
 23 25  1  0
 24 25  1  0
M  RAD  8   1   2   5   2  13   2  14   2  15   2  16   2  19   3  20   2
M  RAD  5  21   3  22   3  23   3  24   3  25   3
M  END
>  <REMARK>  (1) 
 SMILES Fc1cccc(Nc2nc3nc[nH]c3c(OCC3CCCCC3)[nH+]2)c1
 SMILES IDX 8 1 9 2 10 3 11 4 12 5 13 6 14 7 15 8 24 9 7 12 6 14 2 15
 SMILES IDX 3 16 25 17 4 18 5 19 1 20 16 21 17 22 18 23 19 24 23 25
 SMILES IDX 20 26 22 27 21 28
 H PARENT 13 10 24 11 7 13

>  <TORSDO>  (1) 
F 5

$$$$
