/home/pchatterjee/Documents/git/vs_workflow/DiffDock/diffdock_run/pdbqt_scrubbed/123920449.pdbqt
     RDKit          3D

 25 28  0  0  1  0  0  0  0  0999 V2000
    7.6651   43.4454   49.0367 C   0  0  0  0  0  3  0  0  0  0  0  0
    8.9900   43.7900   49.4009 N   0  0  0  0  0  0  0  0  0  0  0  0
    9.2292   44.6289   50.3295 C   0  0  0  0  0  0  0  0  0  0  0  0
   10.4402   45.0549   50.7856 N   0  0  0  0  0  0  0  0  0  0  0  0
   10.2701   45.9526   51.7854 C   0  0  0  0  0  3  0  0  0  0  0  0
    8.9452   46.0953   51.9628 N   0  0  0  0  0  0  0  0  0  0  0  0
    8.2964   45.2954   51.0832 C   0  0  0  0  0  0  0  0  0  0  0  0
    7.0116   45.0729   50.8543 C   0  0  0  0  0  0  0  0  0  0  0  0
    6.7091   44.1393   49.8213 N   0  0  0  0  0  0  0  0  0  0  0  0
    7.4160   42.0399   48.8853 N   0  0  0  0  0  0  0  0  0  0  0  0
    6.1918   41.4856   48.4226 C   0  0  0  0  0  0  0  0  0  0  0  0
    3.9394   40.8797   48.9743 C   0  0  0  0  0  0  0  0  0  0  0  0
    3.8040   40.4494   47.6730 C   0  0  0  0  0  3  0  0  0  0  0  0
    5.1604   41.4080   49.3522 C   0  0  0  0  0  3  0  0  0  0  0  0
    4.8052   40.5173   46.7453 C   0  0  0  0  0  3  0  0  0  0  0  0
    6.0266   41.0426   47.1128 C   0  0  0  0  0  3  0  0  0  0  0  0
    2.9231   40.7985   49.8744 F   0  0  0  0  0  0  0  0  0  0  0  0
    6.0575   45.7263   51.5937 O   0  0  0  0  0  0  0  0  0  0  0  0
    4.6944   45.4132   51.6651 C   0  0  0  0  0  2  0  0  0  0  0  0
    4.1195   45.8375   52.9970 C   0  0  0  0  0  3  0  0  0  0  0  0
    3.9920   47.3434   53.0420 C   0  0  0  0  0  2  0  0  0  0  0  0
    2.7388   45.2280   53.1264 C   0  0  0  0  0  2  0  0  0  0  0  0
    2.5866   47.8096   53.3226 C   0  0  0  0  0  2  0  0  0  0  0  0
    1.8038   45.8023   52.0815 C   0  0  0  0  0  2  0  0  0  0  0  0
    1.6159   47.2936   52.2826 C   0  0  0  0  0  2  0  0  0  0  0  0
  1  2  1  0
  1 10  1  0
  3  4  1  0
  3  2  2  0
  5  4  2  0
  6  7  1  0
  6  5  1  0
  7  3  1  0
  8  7  2  0
  8  9  1  0
  9  1  1  0
 10 11  1  0
 11 14  2  0
 12 17  1  0
 13 12  2  0
 14 12  1  0
 15 13  1  0
 16 11  1  0
 16 15  2  0
 18  8  1  0
 18 19  1  0
 19 20  1  0
 20 21  1  0
 20 22  1  0
 21 23  1  0
 22 24  1  0
 23 25  1  0
 24 25  1  0
M  RAD  8   1   2   5   2  13   2  14   2  15   2  16   2  19   3  20   2
M  RAD  5  21   3  22   3  23   3  24   3  25   3
M  END
>  <REMARK>  (1) 
 SMILES Fc1cccc(Nc2nc3nc[nH]c3c(OCC3CCCCC3)[nH+]2)c1
 SMILES IDX 8 1 9 2 10 3 11 4 12 5 13 6 14 7 15 8 24 9 7 12 6 14 2 15
 SMILES IDX 3 16 25 17 4 18 5 19 1 20 16 21 17 22 18 23 19 24 23 25
 SMILES IDX 20 26 22 27 21 28
 H PARENT 13 10 24 11 7 13

>  <TORSDO>  (1) 
F 5

$$$$
