/home/pchatterjee/Documents/git/vs_workflow/DiffDock/diffdock_run/pdbqt_scrubbed/Z321303522.pdbqt
     RDKit          3D

 25 28  0  0  1  0  0  0  0  0999 V2000
    5.5119   42.4634   48.9359 C   0  0  0  0  0  0  0  0  0  0  0  0
    5.8272   41.1578   49.2380 C   0  0  0  0  0  3  0  0  0  0  0  0
    5.0408   40.1460   48.7283 C   0  0  0  0  0  3  0  0  0  0  0  0
    3.9461   40.3693   47.9256 C   0  0  0  0  0  3  0  0  0  0  0  0
    3.6246   41.6928   47.6180 C   0  0  0  0  0  0  0  0  0  0  0  0
    4.4033   42.7148   48.1216 C   0  0  0  0  0  3  0  0  0  0  0  0
    6.3049   43.4978   49.4490 N   0  0  0  0  0  0  0  0  0  0  0  0
    5.8724   44.1553   50.6381 C   0  0  0  0  0  0  0  0  0  0  0  0
    4.6821   43.9715   51.0313 O   0  0  0  0  0  0  0  0  0  0  0  0
    6.7971   45.0168   51.3710 C   0  0  0  0  0  0  0  0  0  0  0  0
    8.0612   45.4426   51.0199 C   0  0  0  0  0  3  0  0  0  0  0  0
    6.5361   45.5577   52.5748 N   0  0  0  0  0  0  0  0  0  0  0  0
    8.5919   46.2507   52.0049 C   0  0  0  0  0  0  0  0  0  0  0  0
    7.5905   46.3013   52.9809 C   0  0  0  0  0  0  0  0  0  0  0  0
    9.7632   46.9260   52.1848 C   0  0  0  0  0  3  0  0  0  0  0  0
    7.8241   47.0472   54.1167 C   0  0  0  0  0  3  0  0  0  0  0  0
    9.9873   47.6676   53.3213 C   0  0  0  0  0  3  0  0  0  0  0  0
    9.0136   47.7231   54.2817 C   0  0  0  0  0  3  0  0  0  0  0  0
    2.5512   42.0358   46.8239 O   0  0  0  0  0  0  0  0  0  0  0  0
    2.5738   42.1531   45.4328 C   0  0  0  0  0  2  0  0  0  0  0  0
    1.2395   42.3715   44.7903 C   0  0  0  0  0  3  0  0  0  0  0  0
    1.0274   41.3584   43.6930 C   0  0  0  0  0  2  0  0  0  0  0  0
    1.1450   43.6219   44.2303 O   0  0  0  0  0  0  0  0  0  0  0  0
    0.0948   42.1156   42.7735 C   0  0  0  0  0  2  0  0  0  0  0  0
    0.4822   43.5349   43.0391 C   0  0  0  0  0  2  0  0  0  0  0  0
  1  2  2  0
  1  7  1  0
  3  2  1  0
  4  3  2  0
  5  4  1  0
  5  6  2  0
  6  1  1  0
  7  8  1  0
  8  9  2  0
  8 10  1  0
 10 12  1  0
 11 10  2  0
 11 13  1  0
 12 14  1  0
 13 15  2  0
 13 14  1  0
 14 16  2  0
 15 17  1  0
 16 18  1  0
 17 18  2  0
 19  5  1  0
 20 19  1  0
 21 20  1  0
 21 22  1  0
 23 25  1  0
 23 21  1  0
 24 25  1  0
 24 22  1  0
M  RAD  8   2   2   3   2   4   2   6   2  11   2  15   2  16   2  17   2
M  RAD  6  18   2  20   3  21   2  22   3  24   3  25   3
M  END
>  <REMARK>  (1) 
 SMILES O=C(Nc1cccc(OCC2CCCO2)c1)c1cc2ccccc2[nH]1
 SMILES IDX 4 1 5 2 6 3 7 4 8 5 16 6 3 7 2 8 1 9 17 11 18 12 25 13 19 14
 SMILES IDX 24 15 20 16 23 17 21 18 22 19 9 21 10 22 11 23 12 24 15 25
 SMILES IDX 13 26 14 27
 H PARENT 3 10 25 20

>  <TORSDO>  (1) 
F 5

$$$$
