/home/pchatterjee/Documents/git/vs_workflow/DiffDock/diffdock_run/pdbqt_scrubbed/Z321303522.pdbqt
     RDKit          3D

 25 28  0  0  1  0  0  0  0  0999 V2000
    6.0193   43.0214   49.2238 C   0  0  0  0  0  0  0  0  0  0  0  0
    6.5246   42.2228   48.2228 C   0  0  0  0  0  3  0  0  0  0  0  0
    5.8972   41.0273   47.9417 C   0  0  0  0  0  3  0  0  0  0  0  0
    4.7819   40.5815   48.6124 C   0  0  0  0  0  3  0  0  0  0  0  0
    4.2678   41.3900   49.6281 C   0  0  0  0  0  0  0  0  0  0  0  0
    4.8861   42.5889   49.9195 C   0  0  0  0  0  3  0  0  0  0  0  0
    6.6498   44.2376   49.5164 N   0  0  0  0  0  0  0  0  0  0  0  0
    8.0133   44.2094   49.9326 C   0  0  0  0  0  0  0  0  0  0  0  0
    8.7815   43.3381   49.4269 O   0  0  0  0  0  0  0  0  0  0  0  0
    8.4928   45.1726   50.9210 C   0  0  0  0  0  0  0  0  0  0  0  0
    7.7746   45.9467   51.8084 C   0  0  0  0  0  3  0  0  0  0  0  0
    9.7895   45.4667   51.1254 N   0  0  0  0  0  0  0  0  0  0  0  0
    8.6227   46.7260   52.5690 C   0  0  0  0  0  0  0  0  0  0  0  0
    9.9000   46.3927   52.1051 C   0  0  0  0  0  0  0  0  0  0  0  0
    8.4702   47.6458   53.5644 C   0  0  0  0  0  3  0  0  0  0  0  0
   10.9862   47.0174   52.6804 C   0  0  0  0  0  3  0  0  0  0  0  0
    9.5598   48.2639   54.1324 C   0  0  0  0  0  3  0  0  0  0  0  0
   10.8133   47.9445   53.6852 C   0  0  0  0  0  3  0  0  0  0  0  0
    3.1558   41.0457   50.3666 O   0  0  0  0  0  0  0  0  0  0  0  0
    1.8296   41.2649   49.9893 C   0  0  0  0  0  2  0  0  0  0  0  0
    0.8012   40.7376   50.9408 C   0  0  0  0  0  3  0  0  0  0  0  0
   -0.4815   40.4500   50.2010 C   0  0  0  0  0  2  0  0  0  0  0  0
    0.5182   41.6429   51.9341 O   0  0  0  0  0  0  0  0  0  0  0  0
   -1.5012   40.6339   51.3032 C   0  0  0  0  0  2  0  0  0  0  0  0
   -0.8235   41.6286   52.1900 C   0  0  0  0  0  2  0  0  0  0  0  0
  1  2  2  0
  1  7  1  0
  3  2  1  0
  4  3  2  0
  5  4  1  0
  5  6  2  0
  6  1  1  0
  7  8  1  0
  8  9  2  0
  8 10  1  0
 10 12  1  0
 11 10  2  0
 11 13  1  0
 12 14  1  0
 13 15  2  0
 13 14  1  0
 14 16  2  0
 15 17  1  0
 16 18  1  0
 17 18  2  0
 19  5  1  0
 20 19  1  0
 21 20  1  0
 21 22  1  0
 23 25  1  0
 23 21  1  0
 24 25  1  0
 24 22  1  0
M  RAD  8   2   2   3   2   4   2   6   2  11   2  15   2  16   2  17   2
M  RAD  6  18   2  20   3  21   2  22   3  24   3  25   3
M  END
>  <REMARK>  (1) 
 SMILES O=C(Nc1cccc(OCC2CCCO2)c1)c1cc2ccccc2[nH]1
 SMILES IDX 4 1 5 2 6 3 7 4 8 5 16 6 3 7 2 8 1 9 17 11 18 12 25 13 19 14
 SMILES IDX 24 15 20 16 23 17 21 18 22 19 9 21 10 22 11 23 12 24 15 25
 SMILES IDX 13 26 14 27
 H PARENT 3 10 25 20

>  <TORSDO>  (1) 
F 5

$$$$
