/home/pchatterjee/Documents/git/vs_workflow/DiffDock/diffdock_run/pdbqt_scrubbed/Z321303522.pdbqt
     RDKit          3D

 25 28  0  0  1  0  0  0  0  0999 V2000
    5.9788   42.9638   49.1280 C   0  0  0  0  0  0  0  0  0  0  0  0
    6.5411   42.1086   48.2074 C   0  0  0  0  0  3  0  0  0  0  0  0
    5.8520   40.9700   47.8458 C   0  0  0  0  0  3  0  0  0  0  0  0
    4.6200   40.6359   48.3585 C   0  0  0  0  0  3  0  0  0  0  0  0
    4.0479   41.5020   49.2924 C   0  0  0  0  0  0  0  0  0  0  0  0
    4.7269   42.6448   49.6630 C   0  0  0  0  0  3  0  0  0  0  0  0
    6.6713   44.1228   49.5014 N   0  0  0  0  0  0  0  0  0  0  0  0
    7.9831   43.9820   50.0424 C   0  0  0  0  0  0  0  0  0  0  0  0
    8.7037   43.0218   49.6377 O   0  0  0  0  0  0  0  0  0  0  0  0
    8.4653   44.9346   51.0397 C   0  0  0  0  0  0  0  0  0  0  0  0
    7.7478   45.7633   51.8769 C   0  0  0  0  0  3  0  0  0  0  0  0
    9.7645   45.1594   51.3067 N   0  0  0  0  0  0  0  0  0  0  0  0
    8.5987   46.5076   52.6687 C   0  0  0  0  0  0  0  0  0  0  0  0
    9.8771   46.0953   52.2768 C   0  0  0  0  0  0  0  0  0  0  0  0
    8.4480   47.4522   53.6408 C   0  0  0  0  0  3  0  0  0  0  0  0
   10.9662   46.6686   52.8982 C   0  0  0  0  0  3  0  0  0  0  0  0
    9.5405   48.0187   54.2553 C   0  0  0  0  0  3  0  0  0  0  0  0
   10.7951   47.6218   53.8786 C   0  0  0  0  0  3  0  0  0  0  0  0
    2.8190   41.2695   49.8725 O   0  0  0  0  0  0  0  0  0  0  0  0
    1.6070   41.1517   49.1895 C   0  0  0  0  0  2  0  0  0  0  0  0
    0.3882   41.1102   50.0577 C   0  0  0  0  0  3  0  0  0  0  0  0
    0.0736   39.6829   50.4310 C   0  0  0  0  0  2  0  0  0  0  0  0
   -0.7099   41.6270   49.4149 O   0  0  0  0  0  0  0  0  0  0  0  0
   -1.4231   39.7588   50.6378 C   0  0  0  0  0  2  0  0  0  0  0  0
   -1.8074   40.8718   49.7165 C   0  0  0  0  0  2  0  0  0  0  0  0
  1  2  2  0
  1  7  1  0
  3  2  1  0
  4  3  2  0
  5  4  1  0
  5  6  2  0
  6  1  1  0
  7  8  1  0
  8  9  2  0
  8 10  1  0
 10 12  1  0
 11 10  2  0
 11 13  1  0
 12 14  1  0
 13 15  2  0
 13 14  1  0
 14 16  2  0
 15 17  1  0
 16 18  1  0
 17 18  2  0
 19  5  1  0
 20 19  1  0
 21 20  1  0
 21 22  1  0
 23 25  1  0
 23 21  1  0
 24 25  1  0
 24 22  1  0
M  RAD  8   2   2   3   2   4   2   6   2  11   2  15   2  16   2  17   2
M  RAD  6  18   2  20   3  21   2  22   3  24   3  25   3
M  END
>  <REMARK>  (1) 
 SMILES O=C(Nc1cccc(OCC2CCCO2)c1)c1cc2ccccc2[nH]1
 SMILES IDX 4 1 5 2 6 3 7 4 8 5 16 6 3 7 2 8 1 9 17 11 18 12 25 13 19 14
 SMILES IDX 24 15 20 16 23 17 21 18 22 19 9 21 10 22 11 23 12 24 15 25
 SMILES IDX 13 26 14 27
 H PARENT 3 10 25 20

>  <TORSDO>  (1) 
F 5

$$$$
