/home/pchatterjee/Documents/git/vs_workflow/DiffDock/diffdock_run/pdbqt_scrubbed/Z321303522.pdbqt
     RDKit          3D

 25 28  0  0  1  0  0  0  0  0999 V2000
    5.8105   42.7601   49.3276 C   0  0  0  0  0  0  0  0  0  0  0  0
    6.5855   42.2189   48.3267 C   0  0  0  0  0  3  0  0  0  0  0  0
    6.0293   41.2767   47.4872 C   0  0  0  0  0  3  0  0  0  0  0  0
    4.7287   40.8413   47.5939 C   0  0  0  0  0  3  0  0  0  0  0  0
    3.9410   41.3889   48.6084 C   0  0  0  0  0  0  0  0  0  0  0  0
    4.4853   42.3328   49.4554 C   0  0  0  0  0  3  0  0  0  0  0  0
    6.3669   43.7178   50.1852 N   0  0  0  0  0  0  0  0  0  0  0  0
    7.7197   44.1137   49.9701 C   0  0  0  0  0  0  0  0  0  0  0  0
    8.3649   43.5711   49.0243 O   0  0  0  0  0  0  0  0  0  0  0  0
    8.3286   45.1237   50.8324 C   0  0  0  0  0  0  0  0  0  0  0  0
    7.7367   45.9507   51.7641 C   0  0  0  0  0  3  0  0  0  0  0  0
    9.6417   45.4159   50.8466 N   0  0  0  0  0  0  0  0  0  0  0  0
    8.6801   46.7614   52.3621 C   0  0  0  0  0  0  0  0  0  0  0  0
    9.8836   46.3918   51.7514 C   0  0  0  0  0  0  0  0  0  0  0  0
    8.6635   47.7344   53.3177 C   0  0  0  0  0  3  0  0  0  0  0  0
   11.0381   47.0360   52.1428 C   0  0  0  0  0  3  0  0  0  0  0  0
    9.8204   48.3716   53.7017 C   0  0  0  0  0  3  0  0  0  0  0  0
   11.0025   48.0170   53.1100 C   0  0  0  0  0  3  0  0  0  0  0  0
    2.6257   41.0287   48.8101 O   0  0  0  0  0  0  0  0  0  0  0  0
    1.8387   40.2938   47.9213 C   0  0  0  0  0  2  0  0  0  0  0  0
    0.4244   40.0702   48.3580 C   0  0  0  0  0  3  0  0  0  0  0  0
    0.0267   38.6394   48.0935 C   0  0  0  0  0  2  0  0  0  0  0  0
   -0.4505   40.8810   47.6773 O   0  0  0  0  0  0  0  0  0  0  0  0
   -1.4678   38.7818   47.9072 C   0  0  0  0  0  2  0  0  0  0  0  0
   -1.5833   40.1770   47.3825 C   0  0  0  0  0  2  0  0  0  0  0  0
  1  2  2  0
  1  7  1  0
  3  2  1  0
  4  3  2  0
  5  4  1  0
  5  6  2  0
  6  1  1  0
  7  8  1  0
  8  9  2  0
  8 10  1  0
 10 12  1  0
 11 10  2  0
 11 13  1  0
 12 14  1  0
 13 15  2  0
 13 14  1  0
 14 16  2  0
 15 17  1  0
 16 18  1  0
 17 18  2  0
 19  5  1  0
 20 19  1  0
 21 20  1  0
 21 22  1  0
 23 25  1  0
 23 21  1  0
 24 25  1  0
 24 22  1  0
M  RAD  8   2   2   3   2   4   2   6   2  11   2  15   2  16   2  17   2
M  RAD  6  18   2  20   3  21   2  22   3  24   3  25   3
M  END
>  <REMARK>  (1) 
 SMILES O=C(Nc1cccc(OCC2CCCO2)c1)c1cc2ccccc2[nH]1
 SMILES IDX 4 1 5 2 6 3 7 4 8 5 16 6 3 7 2 8 1 9 17 11 18 12 25 13 19 14
 SMILES IDX 24 15 20 16 23 17 21 18 22 19 9 21 10 22 11 23 12 24 15 25
 SMILES IDX 13 26 14 27
 H PARENT 3 10 25 20

>  <TORSDO>  (1) 
F 5

$$$$
