/home/pchatterjee/Documents/git/vs_workflow/DiffDock/diffdock_run/pdbqt_scrubbed/Z321303522.pdbqt
     RDKit          3D

 25 28  0  0  1  0  0  0  0  0999 V2000
    5.6351   42.3232   49.3258 C   0  0  0  0  0  0  0  0  0  0  0  0
    6.1795   41.0589   49.3433 C   0  0  0  0  0  3  0  0  0  0  0  0
    5.6783   40.1043   48.4833 C   0  0  0  0  0  3  0  0  0  0  0  0
    4.6532   40.3460   47.5983 C   0  0  0  0  0  3  0  0  0  0  0  0
    4.0997   41.6278   47.5790 C   0  0  0  0  0  0  0  0  0  0  0  0
    4.5920   42.5924   48.4344 C   0  0  0  0  0  3  0  0  0  0  0  0
    6.1377   43.2994   50.1957 N   0  0  0  0  0  0  0  0  0  0  0  0
    7.4937   43.7117   50.0387 C   0  0  0  0  0  0  0  0  0  0  0  0
    8.1959   43.1512   49.1454 O   0  0  0  0  0  0  0  0  0  0  0  0
    8.0406   44.7582   50.8989 C   0  0  0  0  0  0  0  0  0  0  0  0
    7.3917   45.5839   51.7931 C   0  0  0  0  0  3  0  0  0  0  0  0
    9.3424   45.0937   50.9498 N   0  0  0  0  0  0  0  0  0  0  0  0
    8.2881   46.4370   52.4043 C   0  0  0  0  0  0  0  0  0  0  0  0
    9.5225   46.0950   51.8412 C   0  0  0  0  0  0  0  0  0  0  0  0
    8.2083   47.4279   53.3380 C   0  0  0  0  0  3  0  0  0  0  0  0
   10.6420   46.7845   52.2564 C   0  0  0  0  0  3  0  0  0  0  0  0
    9.3307   48.1104   53.7461 C   0  0  0  0  0  3  0  0  0  0  0  0
   10.5427   47.7830   53.2009 C   0  0  0  0  0  3  0  0  0  0  0  0
    3.0696   41.9843   46.7349 O   0  0  0  0  0  0  0  0  0  0  0  0
    2.9290   41.5770   45.4069 C   0  0  0  0  0  2  0  0  0  0  0  0
    1.5776   41.8138   44.8079 C   0  0  0  0  0  3  0  0  0  0  0  0
    1.6863   41.8689   43.3044 C   0  0  0  0  0  2  0  0  0  0  0  0
    1.0359   43.0021   45.2327 O   0  0  0  0  0  0  0  0  0  0  0  0
    0.5151   42.7622   42.9600 C   0  0  0  0  0  2  0  0  0  0  0  0
    0.3986   43.6078   44.1874 C   0  0  0  0  0  2  0  0  0  0  0  0
  1  2  2  0
  1  7  1  0
  3  2  1  0
  4  3  2  0
  5  4  1  0
  5  6  2  0
  6  1  1  0
  7  8  1  0
  8  9  2  0
  8 10  1  0
 10 12  1  0
 11 10  2  0
 11 13  1  0
 12 14  1  0
 13 15  2  0
 13 14  1  0
 14 16  2  0
 15 17  1  0
 16 18  1  0
 17 18  2  0
 19  5  1  0
 20 19  1  0
 21 20  1  0
 21 22  1  0
 23 25  1  0
 23 21  1  0
 24 25  1  0
 24 22  1  0
M  RAD  8   2   2   3   2   4   2   6   2  11   2  15   2  16   2  17   2
M  RAD  6  18   2  20   3  21   2  22   3  24   3  25   3
M  END
>  <REMARK>  (1) 
 SMILES O=C(Nc1cccc(OCC2CCCO2)c1)c1cc2ccccc2[nH]1
 SMILES IDX 4 1 5 2 6 3 7 4 8 5 16 6 3 7 2 8 1 9 17 11 18 12 25 13 19 14
 SMILES IDX 24 15 20 16 23 17 21 18 22 19 9 21 10 22 11 23 12 24 15 25
 SMILES IDX 13 26 14 27
 H PARENT 3 10 25 20

>  <TORSDO>  (1) 
F 5

$$$$
