/home/pchatterjee/Documents/git/vs_workflow/DiffDock/diffdock_run/pdbqt_scrubbed/Z321303522.pdbqt
     RDKit          3D

 25 28  0  0  1  0  0  0  0  0999 V2000
    5.7828   42.8943   49.0273 C   0  0  0  0  0  0  0  0  0  0  0  0
    6.4322   42.2221   48.0167 C   0  0  0  0  0  3  0  0  0  0  0  0
    5.8592   41.0793   47.4992 C   0  0  0  0  0  3  0  0  0  0  0  0
    4.6614   40.5665   47.9404 C   0  0  0  0  0  3  0  0  0  0  0  0
    4.0011   41.2469   48.9654 C   0  0  0  0  0  0  0  0  0  0  0  0
    4.5636   42.3917   49.4921 C   0  0  0  0  0  3  0  0  0  0  0  0
    6.3572   44.0560   49.5592 N   0  0  0  0  0  0  0  0  0  0  0  0
    7.7448   44.0355   49.8867 C   0  0  0  0  0  0  0  0  0  0  0  0
    8.4907   43.1935   49.3037 O   0  0  0  0  0  0  0  0  0  0  0  0
    8.2735   44.9728   50.8747 C   0  0  0  0  0  0  0  0  0  0  0  0
    7.6140   45.6495   51.8795 C   0  0  0  0  0  3  0  0  0  0  0  0
    9.5656   45.3386   50.9566 N   0  0  0  0  0  0  0  0  0  0  0  0
    8.4940   46.4397   52.5909 C   0  0  0  0  0  0  0  0  0  0  0  0
    9.7295   46.2154   51.9734 C   0  0  0  0  0  0  0  0  0  0  0  0
    8.3991   47.2925   53.6510 C   0  0  0  0  0  3  0  0  0  0  0  0
   10.8343   46.8770   52.4661 C   0  0  0  0  0  3  0  0  0  0  0  0
    9.5068   47.9482   54.1356 C   0  0  0  0  0  3  0  0  0  0  0  0
   10.7197   47.7352   53.5382 C   0  0  0  0  0  3  0  0  0  0  0  0
    2.7961   40.8260   49.4865 O   0  0  0  0  0  0  0  0  0  0  0  0
    1.6067   40.6814   48.7698 C   0  0  0  0  0  2  0  0  0  0  0  0
    0.4512   40.1437   49.5551 C   0  0  0  0  0  3  0  0  0  0  0  0
   -0.7336   39.9349   48.6453 C   0  0  0  0  0  2  0  0  0  0  0  0
    0.0682   41.0091   50.5503 O   0  0  0  0  0  0  0  0  0  0  0  0
   -1.8805   40.0995   49.6179 C   0  0  0  0  0  2  0  0  0  0  0  0
   -1.2951   41.0273   50.6336 C   0  0  0  0  0  2  0  0  0  0  0  0
  1  2  2  0
  1  7  1  0
  3  2  1  0
  4  3  2  0
  5  4  1  0
  5  6  2  0
  6  1  1  0
  7  8  1  0
  8  9  2  0
  8 10  1  0
 10 12  1  0
 11 10  2  0
 11 13  1  0
 12 14  1  0
 13 15  2  0
 13 14  1  0
 14 16  2  0
 15 17  1  0
 16 18  1  0
 17 18  2  0
 19  5  1  0
 20 19  1  0
 21 20  1  0
 21 22  1  0
 23 25  1  0
 23 21  1  0
 24 25  1  0
 24 22  1  0
M  RAD  8   2   2   3   2   4   2   6   2  11   2  15   2  16   2  17   2
M  RAD  6  18   2  20   3  21   2  22   3  24   3  25   3
M  END
>  <REMARK>  (1) 
 SMILES O=C(Nc1cccc(OCC2CCCO2)c1)c1cc2ccccc2[nH]1
 SMILES IDX 4 1 5 2 6 3 7 4 8 5 16 6 3 7 2 8 1 9 17 11 18 12 25 13 19 14
 SMILES IDX 24 15 20 16 23 17 21 18 22 19 9 21 10 22 11 23 12 24 15 25
 SMILES IDX 13 26 14 27
 H PARENT 3 10 25 20

>  <TORSDO>  (1) 
F 5

$$$$
