/home/pchatterjee/Documents/git/vs_workflow/DiffDock/diffdock_run/pdbqt_scrubbed/Z321303522.pdbqt
     RDKit          3D

 25 28  0  0  1  0  0  0  0  0999 V2000
    5.8748   42.9071   49.1867 C   0  0  0  0  0  0  0  0  0  0  0  0
    6.4374   42.1389   48.1925 C   0  0  0  0  0  3  0  0  0  0  0  0
    5.8111   40.9685   47.8181 C   0  0  0  0  0  3  0  0  0  0  0  0
    4.6424   40.5194   48.3880 C   0  0  0  0  0  3  0  0  0  0  0  0
    4.0702   41.2972   49.3966 C   0  0  0  0  0  0  0  0  0  0  0  0
    4.6867   42.4706   49.7808 C   0  0  0  0  0  3  0  0  0  0  0  0
    6.5037   44.0975   49.5736 N   0  0  0  0  0  0  0  0  0  0  0  0
    7.8539   44.0325   50.0273 C   0  0  0  0  0  0  0  0  0  0  0  0
    8.5889   43.0915   49.6037 O   0  0  0  0  0  0  0  0  0  0  0  0
    8.3580   45.0384   50.9592 C   0  0  0  0  0  0  0  0  0  0  0  0
    7.6612   45.8635   51.8173 C   0  0  0  0  0  3  0  0  0  0  0  0
    9.6606   45.3279   51.1299 N   0  0  0  0  0  0  0  0  0  0  0  0
    8.5285   46.6702   52.5257 C   0  0  0  0  0  0  0  0  0  0  0  0
    9.7953   46.3003   52.0605 C   0  0  0  0  0  0  0  0  0  0  0  0
    8.4004   47.6401   53.4760 C   0  0  0  0  0  3  0  0  0  0  0  0
   10.8963   46.9408   52.5882 C   0  0  0  0  0  3  0  0  0  0  0  0
    9.5047   48.2737   53.9966 C   0  0  0  0  0  3  0  0  0  0  0  0
   10.7480   47.9186   53.5479 C   0  0  0  0  0  3  0  0  0  0  0  0
    2.9016   40.9466   50.0385 O   0  0  0  0  0  0  0  0  0  0  0  0
    1.6815   40.6768   49.4157 C   0  0  0  0  0  2  0  0  0  0  0  0
    0.5991   40.1808   50.3232 C   0  0  0  0  0  3  0  0  0  0  0  0
   -0.5730   39.6974   49.5060 C   0  0  0  0  0  2  0  0  0  0  0  0
    0.1464   41.1707   51.1605 O   0  0  0  0  0  0  0  0  0  0  0  0
   -1.7149   39.9235   50.4721 C   0  0  0  0  0  2  0  0  0  0  0  0
   -1.2102   41.0719   51.2856 C   0  0  0  0  0  2  0  0  0  0  0  0
  1  2  2  0
  1  7  1  0
  3  2  1  0
  4  3  2  0
  5  4  1  0
  5  6  2  0
  6  1  1  0
  7  8  1  0
  8  9  2  0
  8 10  1  0
 10 12  1  0
 11 10  2  0
 11 13  1  0
 12 14  1  0
 13 15  2  0
 13 14  1  0
 14 16  2  0
 15 17  1  0
 16 18  1  0
 17 18  2  0
 19  5  1  0
 20 19  1  0
 21 20  1  0
 21 22  1  0
 23 25  1  0
 23 21  1  0
 24 25  1  0
 24 22  1  0
M  RAD  8   2   2   3   2   4   2   6   2  11   2  15   2  16   2  17   2
M  RAD  6  18   2  20   3  21   2  22   3  24   3  25   3
M  END
>  <REMARK>  (1) 
 SMILES O=C(Nc1cccc(OCC2CCCO2)c1)c1cc2ccccc2[nH]1
 SMILES IDX 4 1 5 2 6 3 7 4 8 5 16 6 3 7 2 8 1 9 17 11 18 12 25 13 19 14
 SMILES IDX 24 15 20 16 23 17 21 18 22 19 9 21 10 22 11 23 12 24 15 25
 SMILES IDX 13 26 14 27
 H PARENT 3 10 25 20

>  <TORSDO>  (1) 
F 5

$$$$
