/home/pchatterjee/Documents/git/vs_workflow/DiffDock/diffdock_run/pdbqt_scrubbed/Z321303522.pdbqt
     RDKit          3D

 25 28  0  0  1  0  0  0  0  0999 V2000
    5.8021   42.9962   49.1854 C   0  0  0  0  0  0  0  0  0  0  0  0
    6.4967   42.3414   48.1935 C   0  0  0  0  0  3  0  0  0  0  0  0
    5.9136   41.2548   47.5759 C   0  0  0  0  0  3  0  0  0  0  0  0
    4.6626   40.7820   47.8981 C   0  0  0  0  0  3  0  0  0  0  0  0
    3.9564   41.4447   48.9040 C   0  0  0  0  0  0  0  0  0  0  0  0
    4.5284   42.5335   49.5301 C   0  0  0  0  0  3  0  0  0  0  0  0
    6.3861   44.1009   49.8184 N   0  0  0  0  0  0  0  0  0  0  0  0
    7.7806   44.0528   50.1122 C   0  0  0  0  0  0  0  0  0  0  0  0
    8.4891   43.1735   49.5376 O   0  0  0  0  0  0  0  0  0  0  0  0
    8.3587   45.0051   51.0572 C   0  0  0  0  0  0  0  0  0  0  0  0
    7.7262   45.8950   51.9001 C   0  0  0  0  0  3  0  0  0  0  0  0
    9.6791   45.1660   51.2586 N   0  0  0  0  0  0  0  0  0  0  0  0
    8.6515   46.6136   52.6298 C   0  0  0  0  0  0  0  0  0  0  0  0
    9.8865   46.1212   52.1937 C   0  0  0  0  0  0  0  0  0  0  0  0
    8.5967   47.5920   53.5784 C   0  0  0  0  0  3  0  0  0  0  0  0
   11.0323   46.6514   52.7478 C   0  0  0  0  0  3  0  0  0  0  0  0
    9.7452   48.1149   54.1257 C   0  0  0  0  0  3  0  0  0  0  0  0
   10.9580   47.6396   53.7054 C   0  0  0  0  0  3  0  0  0  0  0  0
    2.6963   41.0602   49.3099 O   0  0  0  0  0  0  0  0  0  0  0  0
    1.4948   41.6192   48.8703 C   0  0  0  0  0  2  0  0  0  0  0  0
    0.2572   40.9257   49.3482 C   0  0  0  0  0  3  0  0  0  0  0  0
   -0.9481   41.7968   49.0956 C   0  0  0  0  0  2  0  0  0  0  0  0
    0.3106   40.6644   50.6954 O   0  0  0  0  0  0  0  0  0  0  0  0
   -1.8797   41.3306   50.1924 C   0  0  0  0  0  2  0  0  0  0  0  0
   -0.9185   40.8871   51.2482 C   0  0  0  0  0  2  0  0  0  0  0  0
  1  2  2  0
  1  7  1  0
  3  2  1  0
  4  3  2  0
  5  4  1  0
  5  6  2  0
  6  1  1  0
  7  8  1  0
  8  9  2  0
  8 10  1  0
 10 12  1  0
 11 10  2  0
 11 13  1  0
 12 14  1  0
 13 15  2  0
 13 14  1  0
 14 16  2  0
 15 17  1  0
 16 18  1  0
 17 18  2  0
 19  5  1  0
 20 19  1  0
 21 20  1  0
 21 22  1  0
 23 25  1  0
 23 21  1  0
 24 25  1  0
 24 22  1  0
M  RAD  8   2   2   3   2   4   2   6   2  11   2  15   2  16   2  17   2
M  RAD  6  18   2  20   3  21   2  22   3  24   3  25   3
M  END
>  <REMARK>  (1) 
 SMILES O=C(Nc1cccc(OCC2CCCO2)c1)c1cc2ccccc2[nH]1
 SMILES IDX 4 1 5 2 6 3 7 4 8 5 16 6 3 7 2 8 1 9 17 11 18 12 25 13 19 14
 SMILES IDX 24 15 20 16 23 17 21 18 22 19 9 21 10 22 11 23 12 24 15 25
 SMILES IDX 13 26 14 27
 H PARENT 3 10 25 20

>  <TORSDO>  (1) 
F 5

$$$$
