/home/pchatterjee/Documents/git/vs_workflow/DiffDock/diffdock_run/pdbqt_scrubbed/Z321303522.pdbqt
     RDKit          3D

 25 28  0  0  1  0  0  0  0  0999 V2000
    5.7897   42.1638   49.3636 C   0  0  0  0  0  0  0  0  0  0  0  0
    6.1382   40.8320   49.3678 C   0  0  0  0  0  3  0  0  0  0  0  0
    5.5840   39.9939   48.4231 C   0  0  0  0  0  3  0  0  0  0  0  0
    4.6922   40.4176   47.4652 C   0  0  0  0  0  3  0  0  0  0  0  0
    4.3375   41.7681   47.4591 C   0  0  0  0  0  0  0  0  0  0  0  0
    4.8848   42.6175   48.3990 C   0  0  0  0  0  3  0  0  0  0  0  0
    6.3476   43.0227   50.3193 N   0  0  0  0  0  0  0  0  0  0  0  0
    7.6450   43.5595   50.0708 C   0  0  0  0  0  0  0  0  0  0  0  0
    8.3107   43.1031   49.0942 O   0  0  0  0  0  0  0  0  0  0  0  0
    8.1754   44.6113   50.9349 C   0  0  0  0  0  0  0  0  0  0  0  0
    7.5361   45.3478   51.9103 C   0  0  0  0  0  3  0  0  0  0  0  0
    9.4483   45.0459   50.9056 N   0  0  0  0  0  0  0  0  0  0  0  0
    8.4096   46.2441   52.4921 C   0  0  0  0  0  0  0  0  0  0  0  0
    9.6198   46.0226   51.8256 C   0  0  0  0  0  0  0  0  0  0  0  0
    8.3267   47.1884   53.4727 C   0  0  0  0  0  3  0  0  0  0  0  0
   10.7124   46.7812   52.1884 C   0  0  0  0  0  3  0  0  0  0  0  0
    9.4222   47.9405   53.8279 C   0  0  0  0  0  3  0  0  0  0  0  0
   10.6103   47.7310   53.1816 C   0  0  0  0  0  3  0  0  0  0  0  0
    3.4538   42.3045   46.5470 O   0  0  0  0  0  0  0  0  0  0  0  0
    2.9746   41.6612   45.4043 C   0  0  0  0  0  2  0  0  0  0  0  0
    2.1439   42.5124   44.4953 C   0  0  0  0  0  3  0  0  0  0  0  0
    0.9203   43.0023   45.2287 C   0  0  0  0  0  2  0  0  0  0  0  0
    1.7194   41.8122   43.3928 O   0  0  0  0  0  0  0  0  0  0  0  0
   -0.0533   43.1807   44.0847 C   0  0  0  0  0  2  0  0  0  0  0  0
    0.4310   42.1619   43.1035 C   0  0  0  0  0  2  0  0  0  0  0  0
  1  2  2  0
  1  7  1  0
  3  2  1  0
  4  3  2  0
  5  4  1  0
  5  6  2  0
  6  1  1  0
  7  8  1  0
  8  9  2  0
  8 10  1  0
 10 12  1  0
 11 10  2  0
 11 13  1  0
 12 14  1  0
 13 15  2  0
 13 14  1  0
 14 16  2  0
 15 17  1  0
 16 18  1  0
 17 18  2  0
 19  5  1  0
 20 19  1  0
 21 20  1  0
 21 22  1  0
 23 25  1  0
 23 21  1  0
 24 25  1  0
 24 22  1  0
M  RAD  8   2   2   3   2   4   2   6   2  11   2  15   2  16   2  17   2
M  RAD  6  18   2  20   3  21   2  22   3  24   3  25   3
M  END
>  <REMARK>  (1) 
 SMILES O=C(Nc1cccc(OCC2CCCO2)c1)c1cc2ccccc2[nH]1
 SMILES IDX 4 1 5 2 6 3 7 4 8 5 16 6 3 7 2 8 1 9 17 11 18 12 25 13 19 14
 SMILES IDX 24 15 20 16 23 17 21 18 22 19 9 21 10 22 11 23 12 24 15 25
 SMILES IDX 13 26 14 27
 H PARENT 3 10 25 20

>  <TORSDO>  (1) 
F 5

$$$$
