/home/pchatterjee/Documents/git/vs_workflow/DiffDock/diffdock_run/pdbqt_scrubbed/5329560.pdbqt
     RDKit          3D

 26 29  0  0  1  0  0  0  0  0999 V2000
    7.6435   43.4757   49.3246 C   0  0  0  0  0  0  0  0  0  0  0  0
    6.6070   43.9673   50.1860 N   0  0  0  0  0  0  0  0  0  0  0  0
    6.8204   44.9309   51.0577 C   0  0  0  0  0  0  0  0  0  0  0  0
    8.1138   45.5141   51.1355 C   0  0  0  0  0  3  0  0  0  0  0  0
    8.7050   45.9959   52.3002 N   0  0  0  0  0  0  0  0  0  0  0  0
    9.9560   46.5807   51.7379 C   0  0  0  0  0  2  0  0  0  0  0  0
   10.2628   45.6196   50.6592 N   0  0  0  0  0  0  0  0  0  0  0  0
    9.1879   44.9915   50.3048 C   0  0  0  0  0  0  0  0  0  0  0  0
    8.8591   43.9580   49.3744 N   0  0  0  0  0  0  0  0  0  0  0  0
    7.3213   42.4277   48.3902 N   0  0  0  0  0  0  0  0  0  0  0  0
    6.0359   41.8338   48.4315 C   0  0  0  0  0  0  0  0  0  0  0  0
    3.5283   40.7100   48.6651 C   0  0  0  0  0  0  0  0  0  0  0  0
    4.1231   41.2453   49.7919 C   0  0  0  0  0  3  0  0  0  0  0  0
    4.1521   40.7206   47.4240 C   0  0  0  0  0  3  0  0  0  0  0  0
    5.3762   41.8018   49.6525 C   0  0  0  0  0  3  0  0  0  0  0  0
    5.4178   41.2903   47.3169 C   0  0  0  0  0  3  0  0  0  0  0  0
    2.2621   40.1530   48.8292 O   0  0  0  0  0  0  0  0  0  0  0  0
    1.4746   39.6940   47.7437 C   0  0  0  0  0  1  0  0  0  0  0  0
    5.7850   45.3628   51.8725 O   0  0  0  0  0  0  0  0  0  0  0  0
    4.7812   44.4163   52.2457 C   0  0  0  0  0  2  0  0  0  0  0  0
    3.3924   44.9168   52.1034 C   0  0  0  0  0  3  0  0  0  0  0  0
    2.4078   44.3883   53.0928 C   0  0  0  0  0  2  0  0  0  0  0  0
    3.2281   46.3358   51.7079 C   0  0  0  0  0  2  0  0  0  0  0  0
    1.9596   45.3617   54.1151 C   0  0  0  0  0  2  0  0  0  0  0  0
    1.8329   46.8191   52.1170 C   0  0  0  0  0  2  0  0  0  0  0  0
    1.8256   46.7869   53.6457 C   0  0  0  0  0  2  0  0  0  0  0  0
  1  2  1  0
  2  3  2  0
  3 19  1  0
  4  8  1  0
  4  5  1  0
  4  3  1  0
  6  5  1  0
  7  8  2  0
  7  6  1  0
  9  1  2  0
  9  8  1  0
 10  1  1  0
 11 10  1  0
 12 13  2  0
 12 14  1  0
 13 15  1  0
 14 16  2  0
 15 11  2  0
 16 11  1  0
 17 12  1  0
 18 17  1  0
 19 20  1  0
 20 21  1  0
 21 23  1  0
 22 24  1  0
 22 21  1  0
 24 26  1  0
 25 23  1  0
 26 25  1  0
M  RAD  8   4   2   6   3  13   2  14   2  15   2  16   2  18   2  20   3
M  RAD  6  21   2  22   3  23   3  24   3  25   3  26   3
M  END
>  <REMARK>  (1) 
 SMILES COc1ccc(Nc2nc(OCC3CCCCC3)c3[nH]cnc3n2)cc1
 SMILES IDX 8 1 9 2 10 3 19 4 20 5 21 6 22 7 23 8 24 9 7 11 6 13 3 14
 SMILES IDX 4 15 26 16 5 17 25 18 2 19 1 20 11 21 12 22 13 23 14 24
 SMILES IDX 18 25 15 26 17 27 16 28
 H PARENT 20 10 7 12

>  <TORSDO>  (1) 
F 6

$$$$
