/home/pchatterjee/Documents/git/vs_workflow/DiffDock/diffdock_run/pdbqt_scrubbed/5329560.pdbqt
     RDKit          3D

 26 29  0  0  1  0  0  0  0  0999 V2000
    7.8160   43.3585   49.3642 C   0  0  0  0  0  0  0  0  0  0  0  0
    6.7480   43.9711   50.1004 N   0  0  0  0  0  0  0  0  0  0  0  0
    6.9383   45.0325   50.8561 C   0  0  0  0  0  0  0  0  0  0  0  0
    8.2391   45.5995   50.9308 C   0  0  0  0  0  3  0  0  0  0  0  0
    8.7802   46.2135   52.0570 N   0  0  0  0  0  0  0  0  0  0  0  0
   10.0718   46.7026   51.4952 C   0  0  0  0  0  2  0  0  0  0  0  0
   10.4116   45.6091   50.5623 N   0  0  0  0  0  0  0  0  0  0  0  0
    9.3422   44.9594   50.2309 C   0  0  0  0  0  0  0  0  0  0  0  0
    9.0382   43.8231   49.4195 N   0  0  0  0  0  0  0  0  0  0  0  0
    7.5184   42.2072   48.5509 N   0  0  0  0  0  0  0  0  0  0  0  0
    6.1994   41.6907   48.5376 C   0  0  0  0  0  0  0  0  0  0  0  0
    3.6259   40.7079   48.6665 C   0  0  0  0  0  0  0  0  0  0  0  0
    4.2334   41.1318   49.8332 C   0  0  0  0  0  3  0  0  0  0  0  0
    4.2690   40.7615   47.4363 C   0  0  0  0  0  3  0  0  0  0  0  0
    5.5196   41.6193   49.7458 C   0  0  0  0  0  3  0  0  0  0  0  0
    5.5679   41.2593   47.3822 C   0  0  0  0  0  3  0  0  0  0  0  0
    2.3263   40.2191   48.7782 O   0  0  0  0  0  0  0  0  0  0  0  0
    1.8250   39.1684   47.9695 C   0  0  0  0  0  1  0  0  0  0  0  0
    5.8723   45.5801   51.5536 O   0  0  0  0  0  0  0  0  0  0  0  0
    4.7444   44.7453   51.8250 C   0  0  0  0  0  2  0  0  0  0  0  0
    3.8371   45.2731   52.8728 C   0  0  0  0  0  3  0  0  0  0  0  0
    3.3506   46.6690   52.6668 C   0  0  0  0  0  2  0  0  0  0  0  0
    2.8664   44.3201   53.4616 C   0  0  0  0  0  2  0  0  0  0  0  0
    1.9231   46.7882   52.2908 C   0  0  0  0  0  2  0  0  0  0  0  0
    1.7058   45.0992   54.0887 C   0  0  0  0  0  2  0  0  0  0  0  0
    0.9960   45.7799   52.9179 C   0  0  0  0  0  2  0  0  0  0  0  0
  1  2  1  0
  2  3  2  0
  3 19  1  0
  4  8  1  0
  4  5  1  0
  4  3  1  0
  6  5  1  0
  7  8  2  0
  7  6  1  0
  9  1  2  0
  9  8  1  0
 10  1  1  0
 11 10  1  0
 12 13  2  0
 12 14  1  0
 13 15  1  0
 14 16  2  0
 15 11  2  0
 16 11  1  0
 17 12  1  0
 18 17  1  0
 19 20  1  0
 20 21  1  0
 21 23  1  0
 22 24  1  0
 22 21  1  0
 24 26  1  0
 25 23  1  0
 26 25  1  0
M  RAD  8   4   2   6   3  13   2  14   2  15   2  16   2  18   2  20   3
M  RAD  6  21   2  22   3  23   3  24   3  25   3  26   3
M  END
>  <REMARK>  (1) 
 SMILES COc1ccc(Nc2nc(OCC3CCCCC3)c3[nH]cnc3n2)cc1
 SMILES IDX 8 1 9 2 10 3 19 4 20 5 21 6 22 7 23 8 24 9 7 11 6 13 3 14
 SMILES IDX 4 15 26 16 5 17 25 18 2 19 1 20 11 21 12 22 13 23 14 24
 SMILES IDX 18 25 15 26 17 27 16 28
 H PARENT 20 10 7 12

>  <TORSDO>  (1) 
F 6

$$$$
