/home/pchatterjee/Documents/git/vs_workflow/DiffDock/diffdock_run/pdbqt_scrubbed/5329560.pdbqt
     RDKit          3D

 26 29  0  0  1  0  0  0  0  0999 V2000
    9.1392   66.3372   82.1160 C   0  0  0  0  0  0  0  0  0  0  0  0
   10.0359   65.3976   82.7250 N   0  0  0  0  0  0  0  0  0  0  0  0
    9.6388   64.2048   83.1169 C   0  0  0  0  0  0  0  0  0  0  0  0
    8.2833   63.8300   82.9140 C   0  0  0  0  0  3  0  0  0  0  0  0
    7.5457   63.0077   83.7612 N   0  0  0  0  0  0  0  0  0  0  0  0
    6.2843   62.8842   82.9759 C   0  0  0  0  0  2  0  0  0  0  0  0
    6.1833   64.2323   82.3810 N   0  0  0  0  0  0  0  0  0  0  0  0
    7.3506   64.7905   82.3446 C   0  0  0  0  0  0  0  0  0  0  0  0
    7.8749   66.0539   81.9312 N   0  0  0  0  0  0  0  0  0  0  0  0
    9.6591   67.6162   81.7046 N   0  0  0  0  0  0  0  0  0  0  0  0
   11.0604   67.8230   81.6923 C   0  0  0  0  0  0  0  0  0  0  0  0
   13.8044   68.0933   81.7512 C   0  0  0  0  0  0  0  0  0  0  0  0
   13.2316   67.0022   82.3769 C   0  0  0  0  0  3  0  0  0  0  0  0
   13.0436   69.0537   81.0965 C   0  0  0  0  0  3  0  0  0  0  0  0
   11.8588   66.8868   82.3352 C   0  0  0  0  0  3  0  0  0  0  0  0
   11.6594   68.9078   81.0726 C   0  0  0  0  0  3  0  0  0  0  0  0
   15.1929   68.1897   81.8059 O   0  0  0  0  0  0  0  0  0  0  0  0
   15.9151   69.2632   81.2268 C   0  0  0  0  0  1  0  0  0  0  0  0
   10.5454   63.3380   83.7081 O   0  0  0  0  0  0  0  0  0  0  0  0
   11.7428   63.8891   84.2605 C   0  0  0  0  0  2  0  0  0  0  0  0
   12.3599   63.0575   85.3223 C   0  0  0  0  0  3  0  0  0  0  0  0
   12.4970   61.6043   85.0107 C   0  0  0  0  0  2  0  0  0  0  0  0
   13.4660   63.6700   86.0960 C   0  0  0  0  0  2  0  0  0  0  0  0
   13.8811   61.1442   84.7540 C   0  0  0  0  0  2  0  0  0  0  0  0
   14.3110   62.5643   86.7368 C   0  0  0  0  0  2  0  0  0  0  0  0
   14.9550   61.8182   85.5677 C   0  0  0  0  0  2  0  0  0  0  0  0
  1  2  1  0
  2  3  2  0
  3 19  1  0
  4  8  1  0
  4  5  1  0
  4  3  1  0
  6  5  1  0
  7  8  2  0
  7  6  1  0
  9  1  2  0
  9  8  1  0
 10  1  1  0
 11 10  1  0
 12 13  2  0
 12 14  1  0
 13 15  1  0
 14 16  2  0
 15 11  2  0
 16 11  1  0
 17 12  1  0
 18 17  1  0
 19 20  1  0
 20 21  1  0
 21 23  1  0
 22 24  1  0
 22 21  1  0
 24 26  1  0
 25 23  1  0
 26 25  1  0
M  RAD  8   4   2   6   3  13   2  14   2  15   2  16   2  18   2  20   3
M  RAD  6  21   2  22   3  23   3  24   3  25   3  26   3
M  END
>  <REMARK>  (1) 
 SMILES COc1ccc(Nc2nc(OCC3CCCCC3)c3[nH]cnc3n2)cc1
 SMILES IDX 8 1 9 2 10 3 19 4 20 5 21 6 22 7 23 8 24 9 7 11 6 13 3 14
 SMILES IDX 4 15 26 16 5 17 25 18 2 19 1 20 11 21 12 22 13 23 14 24
 SMILES IDX 18 25 15 26 17 27 16 28
 H PARENT 20 10 7 12

>  <TORSDO>  (1) 
F 6

$$$$
