/home/pchatterjee/Documents/git/vs_workflow/DiffDock/diffdock_run/pdbqt_scrubbed/5329560.pdbqt
     RDKit          3D

 26 29  0  0  1  0  0  0  0  0999 V2000
    7.7076   43.5097   49.4542 C   0  0  0  0  0  0  0  0  0  0  0  0
    6.7506   44.1172   50.3333 N   0  0  0  0  0  0  0  0  0  0  0  0
    7.0749   45.0977   51.1502 C   0  0  0  0  0  0  0  0  0  0  0  0
    8.4111   45.5811   51.1483 C   0  0  0  0  0  3  0  0  0  0  0  0
    9.0880   46.0649   52.2645 N   0  0  0  0  0  0  0  0  0  0  0  0
   10.3539   46.5256   51.6255 C   0  0  0  0  0  2  0  0  0  0  0  0
   10.5388   45.4981   50.5808 N   0  0  0  0  0  0  0  0  0  0  0  0
    9.4046   44.9412   50.2997 C   0  0  0  0  0  0  0  0  0  0  0  0
    8.9575   43.8974   49.4322 N   0  0  0  0  0  0  0  0  0  0  0  0
    7.2658   42.4508   48.5831 N   0  0  0  0  0  0  0  0  0  0  0  0
    5.9190   42.0167   48.6483 C   0  0  0  0  0  0  0  0  0  0  0  0
    3.3056   41.1361   48.6229 C   0  0  0  0  0  0  0  0  0  0  0  0
    4.0345   41.0847   47.4498 C   0  0  0  0  0  3  0  0  0  0  0  0
    3.8466   41.6156   49.8091 C   0  0  0  0  0  3  0  0  0  0  0  0
    5.3384   41.5298   47.4852 C   0  0  0  0  0  3  0  0  0  0  0  0
    5.1667   42.0577   49.8111 C   0  0  0  0  0  3  0  0  0  0  0  0
    1.9903   40.6813   48.5641 O   0  0  0  0  0  0  0  0  0  0  0  0
    1.4733   39.9562   47.4613 C   0  0  0  0  0  1  0  0  0  0  0  0
    6.1122   45.6437   51.9856 O   0  0  0  0  0  0  0  0  0  0  0  0
    5.1268   44.7695   52.5400 C   0  0  0  0  0  2  0  0  0  0  0  0
    3.7465   45.0323   52.0653 C   0  0  0  0  0  3  0  0  0  0  0  0
    2.6799   44.1794   52.6676 C   0  0  0  0  0  2  0  0  0  0  0  0
    3.3857   46.4455   51.8012 C   0  0  0  0  0  2  0  0  0  0  0  0
    1.7850   44.8727   53.6224 C   0  0  0  0  0  2  0  0  0  0  0  0
    1.8619   46.5981   51.8476 C   0  0  0  0  0  2  0  0  0  0  0  0
    1.4704   46.3097   53.2973 C   0  0  0  0  0  2  0  0  0  0  0  0
  1  2  1  0
  2  3  2  0
  3 19  1  0
  4  8  1  0
  4  5  1  0
  4  3  1  0
  6  5  1  0
  7  8  2  0
  7  6  1  0
  9  1  2  0
  9  8  1  0
 10  1  1  0
 11 10  1  0
 12 13  2  0
 12 14  1  0
 13 15  1  0
 14 16  2  0
 15 11  2  0
 16 11  1  0
 17 12  1  0
 18 17  1  0
 19 20  1  0
 20 21  1  0
 21 23  1  0
 22 24  1  0
 22 21  1  0
 24 26  1  0
 25 23  1  0
 26 25  1  0
M  RAD  8   4   2   6   3  13   2  14   2  15   2  16   2  18   2  20   3
M  RAD  6  21   2  22   3  23   3  24   3  25   3  26   3
M  END
>  <REMARK>  (1) 
 SMILES COc1ccc(Nc2nc(OCC3CCCCC3)c3[nH]cnc3n2)cc1
 SMILES IDX 8 1 9 2 10 3 19 4 20 5 21 6 22 7 23 8 24 9 7 11 6 13 3 14
 SMILES IDX 4 15 26 16 5 17 25 18 2 19 1 20 11 21 12 22 13 23 14 24
 SMILES IDX 18 25 15 26 17 27 16 28
 H PARENT 20 10 7 12

>  <TORSDO>  (1) 
F 6

$$$$
