/home/pchatterjee/Documents/git/vs_workflow/DiffDock/diffdock_run/pdbqt_scrubbed/5329560.pdbqt
     RDKit          3D

 26 29  0  0  1  0  0  0  0  0999 V2000
    7.7297   43.6109   49.5211 C   0  0  0  0  0  0  0  0  0  0  0  0
    6.7311   44.2727   50.3101 N   0  0  0  0  0  0  0  0  0  0  0  0
    7.0131   45.3134   51.0659 C   0  0  0  0  0  0  0  0  0  0  0  0
    8.3453   45.8073   51.0871 C   0  0  0  0  0  3  0  0  0  0  0  0
    8.9691   46.3777   52.1933 N   0  0  0  0  0  0  0  0  0  0  0  0
   10.2595   46.8016   51.5783 C   0  0  0  0  0  2  0  0  0  0  0  0
   10.4966   45.7019   50.6213 N   0  0  0  0  0  0  0  0  0  0  0  0
    9.3792   45.1157   50.3325 C   0  0  0  0  0  0  0  0  0  0  0  0
    8.9771   44.0070   49.5255 N   0  0  0  0  0  0  0  0  0  0  0  0
    7.3331   42.4870   48.7118 N   0  0  0  0  0  0  0  0  0  0  0  0
    5.9937   42.0297   48.7702 C   0  0  0  0  0  0  0  0  0  0  0  0
    3.4073   41.0727   48.7437 C   0  0  0  0  0  0  0  0  0  0  0  0
    4.2276   40.7976   47.6660 C   0  0  0  0  0  3  0  0  0  0  0  0
    3.8437   41.8132   49.8350 C   0  0  0  0  0  3  0  0  0  0  0  0
    5.5161   41.2855   47.7000 C   0  0  0  0  0  3  0  0  0  0  0  0
    5.1510   42.2917   49.8384 C   0  0  0  0  0  3  0  0  0  0  0  0
    2.1095   40.5699   48.6880 O   0  0  0  0  0  0  0  0  0  0  0  0
    1.2055   40.6453   49.7772 C   0  0  0  0  0  1  0  0  0  0  0  0
    6.0112   45.9106   51.8157 O   0  0  0  0  0  0  0  0  0  0  0  0
    5.1145   45.0640   52.5381 C   0  0  0  0  0  2  0  0  0  0  0  0
    3.7480   44.9980   51.9652 C   0  0  0  0  0  3  0  0  0  0  0  0
    2.8677   43.9224   52.5090 C   0  0  0  0  0  2  0  0  0  0  0  0
    3.0897   46.2883   51.6506 C   0  0  0  0  0  2  0  0  0  0  0  0
    1.7714   44.3913   53.3873 C   0  0  0  0  0  2  0  0  0  0  0  0
    1.5726   46.0832   51.5898 C   0  0  0  0  0  2  0  0  0  0  0  0
    1.1567   45.7152   53.0145 C   0  0  0  0  0  2  0  0  0  0  0  0
  1  2  1  0
  2  3  2  0
  3 19  1  0
  4  8  1  0
  4  5  1  0
  4  3  1  0
  6  5  1  0
  7  8  2  0
  7  6  1  0
  9  1  2  0
  9  8  1  0
 10  1  1  0
 11 10  1  0
 12 13  2  0
 12 14  1  0
 13 15  1  0
 14 16  2  0
 15 11  2  0
 16 11  1  0
 17 12  1  0
 18 17  1  0
 19 20  1  0
 20 21  1  0
 21 23  1  0
 22 24  1  0
 22 21  1  0
 24 26  1  0
 25 23  1  0
 26 25  1  0
M  RAD  8   4   2   6   3  13   2  14   2  15   2  16   2  18   2  20   3
M  RAD  6  21   2  22   3  23   3  24   3  25   3  26   3
M  END
>  <REMARK>  (1) 
 SMILES COc1ccc(Nc2nc(OCC3CCCCC3)c3[nH]cnc3n2)cc1
 SMILES IDX 8 1 9 2 10 3 19 4 20 5 21 6 22 7 23 8 24 9 7 11 6 13 3 14
 SMILES IDX 4 15 26 16 5 17 25 18 2 19 1 20 11 21 12 22 13 23 14 24
 SMILES IDX 18 25 15 26 17 27 16 28
 H PARENT 20 10 7 12

>  <TORSDO>  (1) 
F 6

$$$$
