/home/pchatterjee/Documents/git/vs_workflow/DiffDock/diffdock_run/pdbqt_scrubbed/5329560.pdbqt
     RDKit          3D

 26 29  0  0  1  0  0  0  0  0999 V2000
    7.5572   43.3599   49.2974 C   0  0  0  0  0  0  0  0  0  0  0  0
    6.5564   43.9477   50.1404 N   0  0  0  0  0  0  0  0  0  0  0  0
    6.8245   44.9524   50.9483 C   0  0  0  0  0  0  0  0  0  0  0  0
    8.1426   45.4825   50.9729 C   0  0  0  0  0  3  0  0  0  0  0  0
    8.7722   46.0081   52.0978 N   0  0  0  0  0  0  0  0  0  0  0  0
   10.0379   46.5026   51.4842 C   0  0  0  0  0  2  0  0  0  0  0  0
   10.2863   45.4651   50.4627 N   0  0  0  0  0  0  0  0  0  0  0  0
    9.1801   44.8640   50.1619 C   0  0  0  0  0  0  0  0  0  0  0  0
    8.7929   43.7909   49.3013 N   0  0  0  0  0  0  0  0  0  0  0  0
    7.1758   42.2719   48.4335 N   0  0  0  0  0  0  0  0  0  0  0  0
    5.8751   41.7222   48.5448 C   0  0  0  0  0  0  0  0  0  0  0  0
    3.3527   40.6091   48.6112 C   0  0  0  0  0  0  0  0  0  0  0  0
    4.0691   40.5590   47.4304 C   0  0  0  0  0  3  0  0  0  0  0  0
    3.8619   41.2004   49.7605 C   0  0  0  0  0  3  0  0  0  0  0  0
    5.3274   41.1213   47.4197 C   0  0  0  0  0  3  0  0  0  0  0  0
    5.1361   41.7592   49.7163 C   0  0  0  0  0  3  0  0  0  0  0  0
    2.0837   40.0349   48.5993 O   0  0  0  0  0  0  0  0  0  0  0  0
    1.1258   40.3013   47.5890 C   0  0  0  0  0  1  0  0  0  0  0  0
    5.8214   45.4779   51.7486 O   0  0  0  0  0  0  0  0  0  0  0  0
    4.5983   44.7474   51.8629 C   0  0  0  0  0  2  0  0  0  0  0  0
    3.6028   45.3689   52.7698 C   0  0  0  0  0  3  0  0  0  0  0  0
    3.7459   45.0341   54.2172 C   0  0  0  0  0  2  0  0  0  0  0  0
    3.1825   46.7551   52.4553 C   0  0  0  0  0  2  0  0  0  0  0  0
    4.2439   46.1367   55.0713 C   0  0  0  0  0  2  0  0  0  0  0  0
    2.6091   47.4106   53.7158 C   0  0  0  0  0  2  0  0  0  0  0  0
    3.7857   47.5193   54.6863 C   0  0  0  0  0  2  0  0  0  0  0  0
  1  2  1  0
  2  3  2  0
  3 19  1  0
  4  8  1  0
  4  5  1  0
  4  3  1  0
  6  5  1  0
  7  8  2  0
  7  6  1  0
  9  1  2  0
  9  8  1  0
 10  1  1  0
 11 10  1  0
 12 13  2  0
 12 14  1  0
 13 15  1  0
 14 16  2  0
 15 11  2  0
 16 11  1  0
 17 12  1  0
 18 17  1  0
 19 20  1  0
 20 21  1  0
 21 23  1  0
 22 24  1  0
 22 21  1  0
 24 26  1  0
 25 23  1  0
 26 25  1  0
M  RAD  8   4   2   6   3  13   2  14   2  15   2  16   2  18   2  20   3
M  RAD  6  21   2  22   3  23   3  24   3  25   3  26   3
M  END
>  <REMARK>  (1) 
 SMILES COc1ccc(Nc2nc(OCC3CCCCC3)c3[nH]cnc3n2)cc1
 SMILES IDX 8 1 9 2 10 3 19 4 20 5 21 6 22 7 23 8 24 9 7 11 6 13 3 14
 SMILES IDX 4 15 26 16 5 17 25 18 2 19 1 20 11 21 12 22 13 23 14 24
 SMILES IDX 18 25 15 26 17 27 16 28
 H PARENT 20 10 7 12

>  <TORSDO>  (1) 
F 6

$$$$
