/home/pchatterjee/Documents/git/vs_workflow/DiffDock/diffdock_run/pdbqt_scrubbed/5329560.pdbqt
     RDKit          3D

 26 29  0  0  1  0  0  0  0  0999 V2000
    7.7407   43.4458   49.4817 C   0  0  0  0  0  0  0  0  0  0  0  0
    6.7519   44.0426   50.3326 N   0  0  0  0  0  0  0  0  0  0  0  0
    7.0399   45.0314   51.1531 C   0  0  0  0  0  0  0  0  0  0  0  0
    8.3683   45.5349   51.1838 C   0  0  0  0  0  3  0  0  0  0  0  0
    9.0084   46.0336   52.3151 N   0  0  0  0  0  0  0  0  0  0  0  0
   10.2836   46.5107   51.7073 C   0  0  0  0  0  2  0  0  0  0  0  0
   10.5112   45.4815   50.6726 N   0  0  0  0  0  0  0  0  0  0  0  0
    9.3932   44.9064   50.3646 C   0  0  0  0  0  0  0  0  0  0  0  0
    8.9847   43.8522   49.4906 N   0  0  0  0  0  0  0  0  0  0  0  0
    7.3377   42.3766   48.6043 N   0  0  0  0  0  0  0  0  0  0  0  0
    6.0124   41.8821   48.6782 C   0  0  0  0  0  0  0  0  0  0  0  0
    3.4235   40.9767   48.9678 C   0  0  0  0  0  0  0  0  0  0  0  0
    4.0122   41.6510   50.0208 C   0  0  0  0  0  3  0  0  0  0  0  0
    4.0928   40.7421   47.7733 C   0  0  0  0  0  3  0  0  0  0  0  0
    5.3065   42.0946   49.8545 C   0  0  0  0  0  3  0  0  0  0  0  0
    5.3993   41.2033   47.6375 C   0  0  0  0  0  3  0  0  0  0  0  0
    2.1153   40.5375   49.1577 O   0  0  0  0  0  0  0  0  0  0  0  0
    1.5592   40.3015   50.4400 C   0  0  0  0  0  1  0  0  0  0  0  0
    6.0476   45.5664   51.9604 O   0  0  0  0  0  0  0  0  0  0  0  0
    5.1511   44.6650   52.6133 C   0  0  0  0  0  2  0  0  0  0  0  0
    3.7579   44.7225   52.1078 C   0  0  0  0  0  3  0  0  0  0  0  0
    2.7893   43.7991   52.7688 C   0  0  0  0  0  2  0  0  0  0  0  0
    3.2371   46.0570   51.7271 C   0  0  0  0  0  2  0  0  0  0  0  0
    1.8021   44.4544   53.6572 C   0  0  0  0  0  2  0  0  0  0  0  0
    1.7054   46.0299   51.7490 C   0  0  0  0  0  2  0  0  0  0  0  0
    1.3253   45.8131   53.2141 C   0  0  0  0  0  2  0  0  0  0  0  0
  1  2  1  0
  2  3  2  0
  3 19  1  0
  4  8  1  0
  4  5  1  0
  4  3  1  0
  6  5  1  0
  7  8  2  0
  7  6  1  0
  9  1  2  0
  9  8  1  0
 10  1  1  0
 11 10  1  0
 12 13  2  0
 12 14  1  0
 13 15  1  0
 14 16  2  0
 15 11  2  0
 16 11  1  0
 17 12  1  0
 18 17  1  0
 19 20  1  0
 20 21  1  0
 21 23  1  0
 22 24  1  0
 22 21  1  0
 24 26  1  0
 25 23  1  0
 26 25  1  0
M  RAD  8   4   2   6   3  13   2  14   2  15   2  16   2  18   2  20   3
M  RAD  6  21   2  22   3  23   3  24   3  25   3  26   3
M  END
>  <REMARK>  (1) 
 SMILES COc1ccc(Nc2nc(OCC3CCCCC3)c3[nH]cnc3n2)cc1
 SMILES IDX 8 1 9 2 10 3 19 4 20 5 21 6 22 7 23 8 24 9 7 11 6 13 3 14
 SMILES IDX 4 15 26 16 5 17 25 18 2 19 1 20 11 21 12 22 13 23 14 24
 SMILES IDX 18 25 15 26 17 27 16 28
 H PARENT 20 10 7 12

>  <TORSDO>  (1) 
F 6

$$$$
