/home/pchatterjee/Documents/git/vs_workflow/DiffDock/diffdock_run/pdbqt_scrubbed/5329560.pdbqt
     RDKit          3D

 26 29  0  0  1  0  0  0  0  0999 V2000
    9.0632   66.5425   82.0802 C   0  0  0  0  0  0  0  0  0  0  0  0
    9.9291   65.6012   82.7298 N   0  0  0  0  0  0  0  0  0  0  0  0
    9.4675   64.5204   83.3237 C   0  0  0  0  0  0  0  0  0  0  0  0
    8.0690   64.2695   83.3053 C   0  0  0  0  0  3  0  0  0  0  0  0
    7.3542   63.6506   84.3271 N   0  0  0  0  0  0  0  0  0  0  0  0
    6.0092   63.5602   83.6901 C   0  0  0  0  0  2  0  0  0  0  0  0
    5.9703   64.8205   82.9210 N   0  0  0  0  0  0  0  0  0  0  0  0
    7.1737   65.2405   82.6953 C   0  0  0  0  0  0  0  0  0  0  0  0
    7.7654   66.3744   82.0581 N   0  0  0  0  0  0  0  0  0  0  0  0
    9.6523   67.6925   81.4432 N   0  0  0  0  0  0  0  0  0  0  0  0
   11.0529   67.8879   81.5246 C   0  0  0  0  0  0  0  0  0  0  0  0
   13.7892   68.1349   81.7647 C   0  0  0  0  0  0  0  0  0  0  0  0
   13.1692   67.0397   82.3359 C   0  0  0  0  0  3  0  0  0  0  0  0
   13.0794   69.1107   81.0764 C   0  0  0  0  0  3  0  0  0  0  0  0
   11.8012   66.9362   82.2039 C   0  0  0  0  0  3  0  0  0  0  0  0
   11.6986   68.9765   80.9610 C   0  0  0  0  0  3  0  0  0  0  0  0
   15.1719   68.2191   81.9104 O   0  0  0  0  0  0  0  0  0  0  0  0
   15.9482   69.2496   81.3233 C   0  0  0  0  0  1  0  0  0  0  0  0
   10.3481   63.6474   83.9443 O   0  0  0  0  0  0  0  0  0  0  0  0
   11.7005   64.0718   84.1280 C   0  0  0  0  0  2  0  0  0  0  0  0
   12.6042   63.0135   84.6408 C   0  0  0  0  0  3  0  0  0  0  0  0
   14.0296   63.4133   84.8304 C   0  0  0  0  0  2  0  0  0  0  0  0
   12.0436   62.0840   85.6502 C   0  0  0  0  0  2  0  0  0  0  0  0
   14.4610   63.5539   86.2401 C   0  0  0  0  0  2  0  0  0  0  0  0
   13.1883   61.4388   86.4381 C   0  0  0  0  0  2  0  0  0  0  0  0
   13.8422   62.5836   87.2124 C   0  0  0  0  0  2  0  0  0  0  0  0
  1  2  1  0
  2  3  2  0
  3 19  1  0
  4  8  1  0
  4  5  1  0
  4  3  1  0
  6  5  1  0
  7  8  2  0
  7  6  1  0
  9  1  2  0
  9  8  1  0
 10  1  1  0
 11 10  1  0
 12 13  2  0
 12 14  1  0
 13 15  1  0
 14 16  2  0
 15 11  2  0
 16 11  1  0
 17 12  1  0
 18 17  1  0
 19 20  1  0
 20 21  1  0
 21 23  1  0
 22 24  1  0
 22 21  1  0
 24 26  1  0
 25 23  1  0
 26 25  1  0
M  RAD  8   4   2   6   3  13   2  14   2  15   2  16   2  18   2  20   3
M  RAD  6  21   2  22   3  23   3  24   3  25   3  26   3
M  END
>  <REMARK>  (1) 
 SMILES COc1ccc(Nc2nc(OCC3CCCCC3)c3[nH]cnc3n2)cc1
 SMILES IDX 8 1 9 2 10 3 19 4 20 5 21 6 22 7 23 8 24 9 7 11 6 13 3 14
 SMILES IDX 4 15 26 16 5 17 25 18 2 19 1 20 11 21 12 22 13 23 14 24
 SMILES IDX 18 25 15 26 17 27 16 28
 H PARENT 20 10 7 12

>  <TORSDO>  (1) 
F 6

$$$$
