/home/pchatterjee/Documents/git/vs_workflow/DiffDock/diffdock_run/pdbqt_scrubbed/5329560.pdbqt
     RDKit          3D

 26 29  0  0  1  0  0  0  0  0999 V2000
    7.7344   43.5474   49.4114 C   0  0  0  0  0  0  0  0  0  0  0  0
    6.6857   44.2044   50.1369 N   0  0  0  0  0  0  0  0  0  0  0  0
    6.9114   45.2616   50.8888 C   0  0  0  0  0  0  0  0  0  0  0  0
    8.2325   45.7785   50.9702 C   0  0  0  0  0  3  0  0  0  0  0  0
    8.7889   46.3769   52.0973 N   0  0  0  0  0  0  0  0  0  0  0  0
   10.1023   46.8131   51.5424 C   0  0  0  0  0  2  0  0  0  0  0  0
   10.4063   45.7026   50.6174 N   0  0  0  0  0  0  0  0  0  0  0  0
    9.3151   45.0929   50.2814 C   0  0  0  0  0  0  0  0  0  0  0  0
    8.9733   43.9649   49.4734 N   0  0  0  0  0  0  0  0  0  0  0  0
    7.3985   42.4042   48.6017 N   0  0  0  0  0  0  0  0  0  0  0  0
    6.0918   41.8625   48.6761 C   0  0  0  0  0  0  0  0  0  0  0  0
    3.5628   40.7624   48.6719 C   0  0  0  0  0  0  0  0  0  0  0  0
    4.3205   40.6884   47.5184 C   0  0  0  0  0  3  0  0  0  0  0  0
    4.0340   41.3712   49.8282 C   0  0  0  0  0  3  0  0  0  0  0  0
    5.5813   41.2446   47.5427 C   0  0  0  0  0  3  0  0  0  0  0  0
    5.3119   41.9234   49.8197 C   0  0  0  0  0  3  0  0  0  0  0  0
    2.2921   40.1938   48.6248 O   0  0  0  0  0  0  0  0  0  0  0  0
    1.5184   39.9366   49.7843 C   0  0  0  0  0  1  0  0  0  0  0  0
    5.8624   45.8533   51.5760 O   0  0  0  0  0  0  0  0  0  0  0  0
    4.7465   45.0362   51.9361 C   0  0  0  0  0  2  0  0  0  0  0  0
    3.8553   45.6413   52.9556 C   0  0  0  0  0  3  0  0  0  0  0  0
    3.0631   46.8234   52.5053 C   0  0  0  0  0  2  0  0  0  0  0  0
    3.1744   44.7116   53.8879 C   0  0  0  0  0  2  0  0  0  0  0  0
    1.6132   46.5783   52.3289 C   0  0  0  0  0  2  0  0  0  0  0  0
    1.9416   45.4003   54.4823 C   0  0  0  0  0  2  0  0  0  0  0  0
    0.9903   45.6141   53.3045 C   0  0  0  0  0  2  0  0  0  0  0  0
  1  2  1  0
  2  3  2  0
  3 19  1  0
  4  8  1  0
  4  5  1  0
  4  3  1  0
  6  5  1  0
  7  8  2  0
  7  6  1  0
  9  1  2  0
  9  8  1  0
 10  1  1  0
 11 10  1  0
 12 13  2  0
 12 14  1  0
 13 15  1  0
 14 16  2  0
 15 11  2  0
 16 11  1  0
 17 12  1  0
 18 17  1  0
 19 20  1  0
 20 21  1  0
 21 23  1  0
 22 24  1  0
 22 21  1  0
 24 26  1  0
 25 23  1  0
 26 25  1  0
M  RAD  8   4   2   6   3  13   2  14   2  15   2  16   2  18   2  20   3
M  RAD  6  21   2  22   3  23   3  24   3  25   3  26   3
M  END
>  <REMARK>  (1) 
 SMILES COc1ccc(Nc2nc(OCC3CCCCC3)c3[nH]cnc3n2)cc1
 SMILES IDX 8 1 9 2 10 3 19 4 20 5 21 6 22 7 23 8 24 9 7 11 6 13 3 14
 SMILES IDX 4 15 26 16 5 17 25 18 2 19 1 20 11 21 12 22 13 23 14 24
 SMILES IDX 18 25 15 26 17 27 16 28
 H PARENT 20 10 7 12

>  <TORSDO>  (1) 
F 6

$$$$
