/home/pchatterjee/Documents/git/vs_workflow/DiffDock/diffdock_run/pdbqt_scrubbed/5329560.pdbqt
     RDKit          3D

 26 29  0  0  1  0  0  0  0  0999 V2000
    7.7234   43.3891   49.3303 C   0  0  0  0  0  0  0  0  0  0  0  0
    6.7370   43.9511   50.2072 N   0  0  0  0  0  0  0  0  0  0  0  0
    6.9937   44.9902   50.9743 C   0  0  0  0  0  0  0  0  0  0  0  0
    8.2832   45.5845   50.9185 C   0  0  0  0  0  3  0  0  0  0  0  0
    8.9400   46.1720   51.9962 N   0  0  0  0  0  0  0  0  0  0  0  0
   10.1477   46.7100   51.3069 C   0  0  0  0  0  2  0  0  0  0  0  0
   10.3974   45.6573   50.3014 N   0  0  0  0  0  0  0  0  0  0  0  0
    9.3093   44.9946   50.0725 C   0  0  0  0  0  0  0  0  0  0  0  0
    8.9347   43.8799   49.2607 N   0  0  0  0  0  0  0  0  0  0  0  0
    7.3552   42.2597   48.5153 N   0  0  0  0  0  0  0  0  0  0  0  0
    6.0234   41.7792   48.5584 C   0  0  0  0  0  0  0  0  0  0  0  0
    3.4555   40.7748   48.5038 C   0  0  0  0  0  0  0  0  0  0  0  0
    4.2999   40.4951   47.4461 C   0  0  0  0  0  3  0  0  0  0  0  0
    3.8587   41.5431   49.5887 C   0  0  0  0  0  3  0  0  0  0  0  0
    5.5787   41.0069   47.4940 C   0  0  0  0  0  3  0  0  0  0  0  0
    5.1569   42.0452   49.6064 C   0  0  0  0  0  3  0  0  0  0  0  0
    2.1681   40.2475   48.4345 O   0  0  0  0  0  0  0  0  0  0  0  0
    1.1743   40.5073   49.4113 C   0  0  0  0  0  1  0  0  0  0  0  0
    6.0060   45.4886   51.8102 O   0  0  0  0  0  0  0  0  0  0  0  0
    5.1378   44.5563   52.4580 C   0  0  0  0  0  2  0  0  0  0  0  0
    3.7034   44.9307   52.4130 C   0  0  0  0  0  3  0  0  0  0  0  0
    2.9670   44.8353   53.7078 C   0  0  0  0  0  2  0  0  0  0  0  0
    3.3328   46.0613   51.5291 C   0  0  0  0  0  2  0  0  0  0  0  0
    2.6142   46.1332   54.3275 C   0  0  0  0  0  2  0  0  0  0  0  0
    1.9919   46.6451   51.9859 C   0  0  0  0  0  2  0  0  0  0  0  0
    2.2596   47.2399   53.3688 C   0  0  0  0  0  2  0  0  0  0  0  0
  1  2  1  0
  2  3  2  0
  3 19  1  0
  4  8  1  0
  4  5  1  0
  4  3  1  0
  6  5  1  0
  7  8  2  0
  7  6  1  0
  9  1  2  0
  9  8  1  0
 10  1  1  0
 11 10  1  0
 12 13  2  0
 12 14  1  0
 13 15  1  0
 14 16  2  0
 15 11  2  0
 16 11  1  0
 17 12  1  0
 18 17  1  0
 19 20  1  0
 20 21  1  0
 21 23  1  0
 22 24  1  0
 22 21  1  0
 24 26  1  0
 25 23  1  0
 26 25  1  0
M  RAD  8   4   2   6   3  13   2  14   2  15   2  16   2  18   2  20   3
M  RAD  6  21   2  22   3  23   3  24   3  25   3  26   3
M  END
>  <REMARK>  (1) 
 SMILES COc1ccc(Nc2nc(OCC3CCCCC3)c3[nH]cnc3n2)cc1
 SMILES IDX 8 1 9 2 10 3 19 4 20 5 21 6 22 7 23 8 24 9 7 11 6 13 3 14
 SMILES IDX 4 15 26 16 5 17 25 18 2 19 1 20 11 21 12 22 13 23 14 24
 SMILES IDX 18 25 15 26 17 27 16 28
 H PARENT 20 10 7 12

>  <TORSDO>  (1) 
F 6

$$$$
