/home/pchatterjee/Documents/git/vs_workflow/DiffDock/diffdock_run/pdbqt_scrubbed/Z1400966843.pdbqt
     RDKit          3D

 26 29  0  0  1  0  0  0  0  0999 V2000
    8.9894   48.4472   52.3101 O   0  0  0  0  0  0  0  0  0  0  0  0
    8.1917   47.9497   53.1455 C   0  0  0  0  0  0  0  0  0  0  0  0
    7.3725   48.7671   53.9798 N   0  0  0  0  0  0  0  0  0  0  0  0
    7.9151   49.9892   54.5263 C   0  0  0  0  0  2  0  0  0  0  0  0
    7.1998   50.4783   55.7534 C   0  0  0  0  0  2  0  0  0  0  0  0
    5.7059   50.4720   55.6118 C   0  0  0  0  0  3  0  0  0  0  0  0
    5.2322   49.6654   54.4286 C   0  0  0  0  0  2  0  0  0  0  0  0
    5.9917   48.3682   54.2788 C   0  0  0  0  0  2  0  0  0  0  0  0
    8.1279   46.4734   53.2377 C   0  0  0  0  0  2  0  0  0  0  0  0
    8.8255   45.8971   52.0564 C   0  0  0  0  0  0  0  0  0  0  0  0
   10.1777   46.0939   51.7711 C   0  0  0  0  0  3  0  0  0  0  0  0
    8.3014   45.0895   51.0514 C   0  0  0  0  0  0  0  0  0  0  0  0
   10.4328   45.4242   50.6390 N   0  0  0  0  0  0  0  0  0  0  0  0
    7.0349   44.5952   50.8457 C   0  0  0  0  0  3  0  0  0  0  0  0
    9.3498   44.8121   50.1743 C   0  0  0  0  0  0  0  0  0  0  0  0
    6.7784   43.8047   49.7509 C   0  0  0  0  0  3  0  0  0  0  0  0
    9.0466   44.0305   49.1132 N   0  0  0  0  0  0  0  0  0  0  0  0
    7.8201   43.5365   48.8907 C   0  0  0  0  0  3  0  0  0  0  0  0
    5.2062   51.8932   55.4636 C   0  0  0  0  0  2  0  0  0  0  0  0
    6.1434   52.8500   55.8486 O   0  0  0  0  0  0  0  0  0  0  0  0
    5.8299   54.1551   56.2018 C   0  0  0  0  0  0  0  0  0  0  0  0
    6.1501   54.6907   57.4450 C   0  0  0  0  0  3  0  0  0  0  0  0
    5.1769   55.0009   55.3298 C   0  0  0  0  0  3  0  0  0  0  0  0
    5.8213   55.9900   57.7556 C   0  0  0  0  0  3  0  0  0  0  0  0
    4.8452   56.3044   55.6368 C   0  0  0  0  0  3  0  0  0  0  0  0
    5.1683   56.8229   56.8726 C   0  0  0  0  0  3  0  0  0  0  0  0
  1  2  2  0
  2  3  1  0
  3  8  1  0
  3  4  1  0
  4  5  1  0
  5  6  1  0
  6 19  1  0
  7  6  1  0
  8  7  1  0
  9  2  1  0
 10  9  1  0
 11 10  2  0
 12 14  1  0
 12 10  1  0
 13 11  1  0
 15 13  1  0
 15 12  2  0
 16 14  2  0
 17 18  2  0
 17 15  1  0
 18 16  1  0
 19 20  1  0
 20 21  1  0
 21 23  1  0
 21 22  2  0
 22 24  1  0
 23 25  2  0
 24 26  2  0
 25 26  1  0
M  RAD  8   4   3   5   3   6   2   7   3   8   3   9   3  11   2  14   2
M  RAD  8  16   2  18   2  19   3  22   2  23   2  24   2  25   2  26   2
M  END
>  <REMARK>  (1) 
 SMILES O=C(Cc1c[nH]c2ncccc12)N1CCC(COc2ccccc2)CC1
 SMILES IDX 1 1 2 2 13 3 14 4 15 5 16 6 25 7 26 8 3 9 4 10 5 11 12 12
 SMILES IDX 6 13 11 14 7 15 10 16 8 17 9 18 17 20 18 21 19 22 20 23
 SMILES IDX 24 24 21 25 23 26 22 27
 H PARENT 6 19

>  <TORSDO>  (1) 
F 5

$$$$
