/home/pchatterjee/Documents/git/vs_workflow/DiffDock/diffdock_run/pdbqt_scrubbed/Z1400966843.pdbqt
     RDKit          3D

 26 29  0  0  1  0  0  0  0  0999 V2000
    6.7418   48.5933   52.6860 O   0  0  0  0  0  0  0  0  0  0  0  0
    6.8809   47.4282   53.1387 C   0  0  0  0  0  0  0  0  0  0  0  0
    5.7589   46.5922   53.4166 N   0  0  0  0  0  0  0  0  0  0  0  0
    5.2603   46.5024   54.7694 C   0  0  0  0  0  2  0  0  0  0  0  0
    4.4644   45.2584   55.0442 C   0  0  0  0  0  2  0  0  0  0  0  0
    3.4427   44.9615   53.9859 C   0  0  0  0  0  3  0  0  0  0  0  0
    3.6597   45.7553   52.7220 C   0  0  0  0  0  2  0  0  0  0  0  0
    5.1184   45.8314   52.3367 C   0  0  0  0  0  2  0  0  0  0  0  0
    8.2600   46.9453   53.3770 C   0  0  0  0  0  2  0  0  0  0  0  0
    8.7888   46.3833   52.1048 C   0  0  0  0  0  0  0  0  0  0  0  0
   10.0748   46.6218   51.6168 C   0  0  0  0  0  3  0  0  0  0  0  0
    8.1454   45.5516   51.1930 C   0  0  0  0  0  0  0  0  0  0  0  0
   10.1771   45.9524   50.4606 N   0  0  0  0  0  0  0  0  0  0  0  0
    6.8795   45.0149   51.1834 C   0  0  0  0  0  3  0  0  0  0  0  0
    9.0571   45.3021   50.1674 C   0  0  0  0  0  0  0  0  0  0  0  0
    6.4862   44.2085   50.1422 C   0  0  0  0  0  3  0  0  0  0  0  0
    8.6224   44.5032   49.1666 N   0  0  0  0  0  0  0  0  0  0  0  0
    7.3935   43.9679   49.1342 C   0  0  0  0  0  3  0  0  0  0  0  0
    2.0591   45.2648   54.5199 C   0  0  0  0  0  2  0  0  0  0  0  0
    1.1196   45.4956   53.5169 O   0  0  0  0  0  0  0  0  0  0  0  0
   -0.2292   45.1851   53.6211 C   0  0  0  0  0  0  0  0  0  0  0  0
   -1.2322   46.1148   53.3672 C   0  0  0  0  0  3  0  0  0  0  0  0
   -0.6526   43.9243   53.9861 C   0  0  0  0  0  3  0  0  0  0  0  0
   -2.5582   45.7662   53.4821 C   0  0  0  0  0  3  0  0  0  0  0  0
   -1.9809   43.5702   54.1026 C   0  0  0  0  0  3  0  0  0  0  0  0
   -2.9652   44.5013   53.8481 C   0  0  0  0  0  3  0  0  0  0  0  0
  1  2  2  0
  2  3  1  0
  3  8  1  0
  3  4  1  0
  4  5  1  0
  5  6  1  0
  6 19  1  0
  7  6  1  0
  8  7  1  0
  9  2  1  0
 10  9  1  0
 11 10  2  0
 12 14  1  0
 12 10  1  0
 13 11  1  0
 15 13  1  0
 15 12  2  0
 16 14  2  0
 17 18  2  0
 17 15  1  0
 18 16  1  0
 19 20  1  0
 20 21  1  0
 21 23  1  0
 21 22  2  0
 22 24  1  0
 23 25  2  0
 24 26  2  0
 25 26  1  0
M  RAD  8   4   3   5   3   6   2   7   3   8   3   9   3  11   2  14   2
M  RAD  8  16   2  18   2  19   3  22   2  23   2  24   2  25   2  26   2
M  END
>  <REMARK>  (1) 
 SMILES O=C(Cc1c[nH]c2ncccc12)N1CCC(COc2ccccc2)CC1
 SMILES IDX 1 1 2 2 13 3 14 4 15 5 16 6 25 7 26 8 3 9 4 10 5 11 12 12
 SMILES IDX 6 13 11 14 7 15 10 16 8 17 9 18 17 20 18 21 19 22 20 23
 SMILES IDX 24 24 21 25 23 26 22 27
 H PARENT 6 19

>  <TORSDO>  (1) 
F 5

$$$$
