/home/pchatterjee/Documents/git/vs_workflow/DiffDock/diffdock_run/pdbqt_scrubbed/Z1400966843.pdbqt
     RDKit          3D

 26 29  0  0  1  0  0  0  0  0999 V2000
    6.8923   45.0847   52.9545 O   0  0  0  0  0  0  0  0  0  0  0  0
    5.7710   45.5104   52.5760 C   0  0  0  0  0  0  0  0  0  0  0  0
    5.0686   46.5198   53.2989 N   0  0  0  0  0  0  0  0  0  0  0  0
    5.8055   47.6194   53.8773 C   0  0  0  0  0  2  0  0  0  0  0  0
    5.0919   48.3032   55.0085 C   0  0  0  0  0  2  0  0  0  0  0  0
    3.6552   48.6117   54.7040 C   0  0  0  0  0  3  0  0  0  0  0  0
    3.1412   47.8753   53.4923 C   0  0  0  0  0  2  0  0  0  0  0  0
    3.6108   46.4400   53.4525 C   0  0  0  0  0  2  0  0  0  0  0  0
    5.1959   44.9253   51.3435 C   0  0  0  0  0  2  0  0  0  0  0  0
    6.3002   44.3253   50.5471 C   0  0  0  0  0  0  0  0  0  0  0  0
    6.1431   43.2425   49.6801 C   0  0  0  0  0  3  0  0  0  0  0  0
    7.6400   44.7000   50.5062 C   0  0  0  0  0  0  0  0  0  0  0  0
    7.3496   42.9949   49.1523 N   0  0  0  0  0  0  0  0  0  0  0  0
    8.3291   45.6951   51.1585 C   0  0  0  0  0  3  0  0  0  0  0  0
    8.2700   43.8342   49.6126 C   0  0  0  0  0  0  0  0  0  0  0  0
    9.6759   45.8542   50.9349 C   0  0  0  0  0  3  0  0  0  0  0  0
    9.5949   44.0317   49.4269 N   0  0  0  0  0  0  0  0  0  0  0  0
   10.2891   44.9944   50.0507 C   0  0  0  0  0  3  0  0  0  0  0  0
    3.4955   50.0994   54.4737 C   0  0  0  0  0  2  0  0  0  0  0  0
    4.7099   50.7710   54.3471 O   0  0  0  0  0  0  0  0  0  0  0  0
    4.8544   52.1491   54.4268 C   0  0  0  0  0  0  0  0  0  0  0  0
    5.3640   52.7835   55.5550 C   0  0  0  0  0  3  0  0  0  0  0  0
    4.4966   52.9732   53.3803 C   0  0  0  0  0  3  0  0  0  0  0  0
    5.4909   54.1529   55.5934 C   0  0  0  0  0  3  0  0  0  0  0  0
    4.6221   54.3467   53.4143 C   0  0  0  0  0  3  0  0  0  0  0  0
    5.1287   54.9629   54.5386 C   0  0  0  0  0  3  0  0  0  0  0  0
  1  2  2  0
  2  3  1  0
  3  8  1  0
  3  4  1  0
  4  5  1  0
  5  6  1  0
  6 19  1  0
  7  6  1  0
  8  7  1  0
  9  2  1  0
 10  9  1  0
 11 10  2  0
 12 14  1  0
 12 10  1  0
 13 11  1  0
 15 13  1  0
 15 12  2  0
 16 14  2  0
 17 18  2  0
 17 15  1  0
 18 16  1  0
 19 20  1  0
 20 21  1  0
 21 23  1  0
 21 22  2  0
 22 24  1  0
 23 25  2  0
 24 26  2  0
 25 26  1  0
M  RAD  8   4   3   5   3   6   2   7   3   8   3   9   3  11   2  14   2
M  RAD  8  16   2  18   2  19   3  22   2  23   2  24   2  25   2  26   2
M  END
>  <REMARK>  (1) 
 SMILES O=C(Cc1c[nH]c2ncccc12)N1CCC(COc2ccccc2)CC1
 SMILES IDX 1 1 2 2 13 3 14 4 15 5 16 6 25 7 26 8 3 9 4 10 5 11 12 12
 SMILES IDX 6 13 11 14 7 15 10 16 8 17 9 18 17 20 18 21 19 22 20 23
 SMILES IDX 24 24 21 25 23 26 22 27
 H PARENT 6 19

>  <TORSDO>  (1) 
F 5

$$$$
