/home/pchatterjee/Documents/git/vs_workflow/DiffDock/diffdock_run/pdbqt_scrubbed/Z1400966843.pdbqt
     RDKit          3D

 26 29  0  0  1  0  0  0  0  0999 V2000
    7.0256   48.4123   54.0611 O   0  0  0  0  0  0  0  0  0  0  0  0
    6.9301   47.1941   53.7633 C   0  0  0  0  0  0  0  0  0  0  0  0
    5.7182   46.6385   53.2558 N   0  0  0  0  0  0  0  0  0  0  0  0
    5.6449   45.2200   52.9926 C   0  0  0  0  0  2  0  0  0  0  0  0
    4.5732   44.8366   52.0123 C   0  0  0  0  0  2  0  0  0  0  0  0
    3.2494   45.4835   52.2969 C   0  0  0  0  0  3  0  0  0  0  0  0
    3.3541   46.6291   53.2724 C   0  0  0  0  0  2  0  0  0  0  0  0
    4.5577   47.5017   53.0041 C   0  0  0  0  0  2  0  0  0  0  0  0
    8.1272   46.3448   53.9576 C   0  0  0  0  0  2  0  0  0  0  0  0
    8.7373   46.0790   52.6268 C   0  0  0  0  0  0  0  0  0  0  0  0
   10.0168   46.4941   52.2537 C   0  0  0  0  0  3  0  0  0  0  0  0
    8.1876   45.4002   51.5432 C   0  0  0  0  0  0  0  0  0  0  0  0
   10.2062   46.0719   50.9962 N   0  0  0  0  0  0  0  0  0  0  0  0
    6.9665   44.7919   51.3720 C   0  0  0  0  0  3  0  0  0  0  0  0
    9.1480   45.4176   50.5320 C   0  0  0  0  0  0  0  0  0  0  0  0
    6.6684   44.1798   50.1780 C   0  0  0  0  0  3  0  0  0  0  0  0
    8.8069   44.8023   49.3770 N   0  0  0  0  0  0  0  0  0  0  0  0
    7.6231   44.2023   49.1855 C   0  0  0  0  0  3  0  0  0  0  0  0
    2.2931   44.4525   52.8574 C   0  0  0  0  0  2  0  0  0  0  0  0
    2.3096   43.2475   52.1578 O   0  0  0  0  0  0  0  0  0  0  0  0
    1.1746   42.5266   51.8135 C   0  0  0  0  0  0  0  0  0  0  0  0
    0.5305   42.6851   50.5909 C   0  0  0  0  0  3  0  0  0  0  0  0
    0.6180   41.6039   52.6743 C   0  0  0  0  0  3  0  0  0  0  0  0
   -0.5928   41.9504   50.2886 C   0  0  0  0  0  3  0  0  0  0  0  0
   -0.5081   40.8650   52.3755 C   0  0  0  0  0  3  0  0  0  0  0  0
   -1.1370   41.0318   51.1602 C   0  0  0  0  0  3  0  0  0  0  0  0
  1  2  2  0
  2  3  1  0
  3  8  1  0
  3  4  1  0
  4  5  1  0
  5  6  1  0
  6 19  1  0
  7  6  1  0
  8  7  1  0
  9  2  1  0
 10  9  1  0
 11 10  2  0
 12 14  1  0
 12 10  1  0
 13 11  1  0
 15 13  1  0
 15 12  2  0
 16 14  2  0
 17 18  2  0
 17 15  1  0
 18 16  1  0
 19 20  1  0
 20 21  1  0
 21 23  1  0
 21 22  2  0
 22 24  1  0
 23 25  2  0
 24 26  2  0
 25 26  1  0
M  RAD  8   4   3   5   3   6   2   7   3   8   3   9   3  11   2  14   2
M  RAD  8  16   2  18   2  19   3  22   2  23   2  24   2  25   2  26   2
M  END
>  <REMARK>  (1) 
 SMILES O=C(Cc1c[nH]c2ncccc12)N1CCC(COc2ccccc2)CC1
 SMILES IDX 1 1 2 2 13 3 14 4 15 5 16 6 25 7 26 8 3 9 4 10 5 11 12 12
 SMILES IDX 6 13 11 14 7 15 10 16 8 17 9 18 17 20 18 21 19 22 20 23
 SMILES IDX 24 24 21 25 23 26 22 27
 H PARENT 6 19

>  <TORSDO>  (1) 
F 5

$$$$
