/home/pchatterjee/Documents/git/vs_workflow/DiffDock/diffdock_run/pdbqt_scrubbed/Z1400966843.pdbqt
     RDKit          3D

 26 29  0  0  1  0  0  0  0  0999 V2000
    9.2555   48.3966   52.8179 O   0  0  0  0  0  0  0  0  0  0  0  0
    8.1611   48.0362   53.3221 C   0  0  0  0  0  0  0  0  0  0  0  0
    7.3709   48.9228   54.1123 N   0  0  0  0  0  0  0  0  0  0  0  0
    7.8458   50.2643   54.3609 C   0  0  0  0  0  2  0  0  0  0  0  0
    7.2414   50.9094   55.5753 C   0  0  0  0  0  2  0  0  0  0  0  0
    5.7505   50.7559   55.6492 C   0  0  0  0  0  3  0  0  0  0  0  0
    5.2206   49.7110   54.6993 C   0  0  0  0  0  2  0  0  0  0  0  0
    6.0876   48.4744   54.6666 C   0  0  0  0  0  2  0  0  0  0  0  0
    7.7130   46.6483   53.0676 C   0  0  0  0  0  2  0  0  0  0  0  0
    8.5108   46.0949   51.9401 C   0  0  0  0  0  0  0  0  0  0  0  0
    9.8869   46.2757   51.7901 C   0  0  0  0  0  3  0  0  0  0  0  0
    8.0725   45.3271   50.8652 C   0  0  0  0  0  0  0  0  0  0  0  0
   10.2383   45.6355   50.6668 N   0  0  0  0  0  0  0  0  0  0  0  0
    6.8240   44.8619   50.5254 C   0  0  0  0  0  3  0  0  0  0  0  0
    9.1952   45.0571   50.0829 C   0  0  0  0  0  0  0  0  0  0  0  0
    6.6608   44.1091   49.3870 C   0  0  0  0  0  3  0  0  0  0  0  0
    8.9824   44.3130   48.9739 N   0  0  0  0  0  0  0  0  0  0  0  0
    7.7754   43.8479   48.6211 C   0  0  0  0  0  3  0  0  0  0  0  0
    5.0897   52.0808   55.3334 C   0  0  0  0  0  2  0  0  0  0  0  0
    5.9592   53.1659   55.4242 O   0  0  0  0  0  0  0  0  0  0  0  0
    5.5663   54.4600   55.7362 C   0  0  0  0  0  0  0  0  0  0  0  0
    4.8391   55.2536   54.8552 C   0  0  0  0  0  3  0  0  0  0  0  0
    5.8792   55.0356   56.9500 C   0  0  0  0  0  3  0  0  0  0  0  0
    4.4691   56.5321   55.2036 C   0  0  0  0  0  3  0  0  0  0  0  0
    5.5103   56.3171   57.3036 C   0  0  0  0  0  3  0  0  0  0  0  0
    4.7897   57.0930   56.4211 C   0  0  0  0  0  3  0  0  0  0  0  0
  1  2  2  0
  2  3  1  0
  3  8  1  0
  3  4  1  0
  4  5  1  0
  5  6  1  0
  6 19  1  0
  7  6  1  0
  8  7  1  0
  9  2  1  0
 10  9  1  0
 11 10  2  0
 12 14  1  0
 12 10  1  0
 13 11  1  0
 15 13  1  0
 15 12  2  0
 16 14  2  0
 17 18  2  0
 17 15  1  0
 18 16  1  0
 19 20  1  0
 20 21  1  0
 21 23  1  0
 21 22  2  0
 22 24  1  0
 23 25  2  0
 24 26  2  0
 25 26  1  0
M  RAD  8   4   3   5   3   6   2   7   3   8   3   9   3  11   2  14   2
M  RAD  8  16   2  18   2  19   3  22   2  23   2  24   2  25   2  26   2
M  END
>  <REMARK>  (1) 
 SMILES O=C(Cc1c[nH]c2ncccc12)N1CCC(COc2ccccc2)CC1
 SMILES IDX 1 1 2 2 13 3 14 4 15 5 16 6 25 7 26 8 3 9 4 10 5 11 12 12
 SMILES IDX 6 13 11 14 7 15 10 16 8 17 9 18 17 20 18 21 19 22 20 23
 SMILES IDX 24 24 21 25 23 26 22 27
 H PARENT 6 19

>  <TORSDO>  (1) 
F 5

$$$$
