/home/pchatterjee/Documents/git/vs_workflow/DiffDock/diffdock_run/pdbqt_scrubbed/Z1400966843.pdbqt
     RDKit          3D

 26 29  0  0  1  0  0  0  0  0999 V2000
    7.6081   46.6153   54.9584 O   0  0  0  0  0  0  0  0  0  0  0  0
    6.9892   46.8415   53.8871 C   0  0  0  0  0  0  0  0  0  0  0  0
    5.6797   46.3261   53.6537 N   0  0  0  0  0  0  0  0  0  0  0  0
    4.9547   46.7413   52.4752 C   0  0  0  0  0  2  0  0  0  0  0  0
    3.4658   46.5757   52.5859 C   0  0  0  0  0  2  0  0  0  0  0  0
    3.0559   45.2372   53.1265 C   0  0  0  0  0  3  0  0  0  0  0  0
    4.1992   44.4861   53.7618 C   0  0  0  0  0  2  0  0  0  0  0  0
    5.0764   45.3830   54.6033 C   0  0  0  0  0  2  0  0  0  0  0  0
    7.6690   47.6683   52.8641 C   0  0  0  0  0  2  0  0  0  0  0  0
    8.6840   46.8257   52.1757 C   0  0  0  0  0  0  0  0  0  0  0  0
   10.0605   46.9296   52.3832 C   0  0  0  0  0  3  0  0  0  0  0  0
    8.4795   45.8187   51.2371 C   0  0  0  0  0  0  0  0  0  0  0  0
   10.6382   46.0147   51.5929 N   0  0  0  0  0  0  0  0  0  0  0  0
    7.3297   45.3116   50.6790 C   0  0  0  0  0  3  0  0  0  0  0  0
    9.7401   45.3308   50.8934 C   0  0  0  0  0  0  0  0  0  0  0  0
    7.4074   44.2962   49.7558 C   0  0  0  0  0  3  0  0  0  0  0  0
    9.7632   44.3325   49.9815 N   0  0  0  0  0  0  0  0  0  0  0  0
    8.6567   43.8212   49.4230 C   0  0  0  0  0  3  0  0  0  0  0  0
    2.4817   44.3945   52.0076 C   0  0  0  0  0  2  0  0  0  0  0  0
    3.2913   43.3150   51.6594 O   0  0  0  0  0  0  0  0  0  0  0  0
    2.8928   42.2712   50.8360 C   0  0  0  0  0  0  0  0  0  0  0  0
    1.8516   41.4113   51.1696 C   0  0  0  0  0  3  0  0  0  0  0  0
    3.5145   42.0273   49.6291 C   0  0  0  0  0  3  0  0  0  0  0  0
    1.4878   40.3882   50.3246 C   0  0  0  0  0  3  0  0  0  0  0  0
    3.1531   41.0028   48.7788 C   0  0  0  0  0  3  0  0  0  0  0  0
    2.1193   40.1576   49.1214 C   0  0  0  0  0  3  0  0  0  0  0  0
  1  2  2  0
  2  3  1  0
  3  8  1  0
  3  4  1  0
  4  5  1  0
  5  6  1  0
  6 19  1  0
  7  6  1  0
  8  7  1  0
  9  2  1  0
 10  9  1  0
 11 10  2  0
 12 14  1  0
 12 10  1  0
 13 11  1  0
 15 13  1  0
 15 12  2  0
 16 14  2  0
 17 18  2  0
 17 15  1  0
 18 16  1  0
 19 20  1  0
 20 21  1  0
 21 23  1  0
 21 22  2  0
 22 24  1  0
 23 25  2  0
 24 26  2  0
 25 26  1  0
M  RAD  8   4   3   5   3   6   2   7   3   8   3   9   3  11   2  14   2
M  RAD  8  16   2  18   2  19   3  22   2  23   2  24   2  25   2  26   2
M  END
>  <REMARK>  (1) 
 SMILES O=C(Cc1c[nH]c2ncccc12)N1CCC(COc2ccccc2)CC1
 SMILES IDX 1 1 2 2 13 3 14 4 15 5 16 6 25 7 26 8 3 9 4 10 5 11 12 12
 SMILES IDX 6 13 11 14 7 15 10 16 8 17 9 18 17 20 18 21 19 22 20 23
 SMILES IDX 24 24 21 25 23 26 22 27
 H PARENT 6 19

>  <TORSDO>  (1) 
F 5

$$$$
