/home/pchatterjee/Documents/git/vs_workflow/DiffDock/diffdock_run/pdbqt_scrubbed/Z1400966843.pdbqt
     RDKit          3D

 26 29  0  0  1  0  0  0  0  0999 V2000
    7.6475   48.6147   53.7366 O   0  0  0  0  0  0  0  0  0  0  0  0
    7.2664   47.4174   53.6814 C   0  0  0  0  0  0  0  0  0  0  0  0
    5.8965   47.0746   53.4795 N   0  0  0  0  0  0  0  0  0  0  0  0
    5.4788   45.7012   53.6413 C   0  0  0  0  0  2  0  0  0  0  0  0
    4.2019   45.3643   52.9255 C   0  0  0  0  0  2  0  0  0  0  0  0
    3.1134   46.3735   53.1462 C   0  0  0  0  0  3  0  0  0  0  0  0
    3.6217   47.6643   53.7379 C   0  0  0  0  0  2  0  0  0  0  0  0
    4.9222   48.1089   53.1109 C   0  0  0  0  0  2  0  0  0  0  0  0
    8.2944   46.3630   53.8341 C   0  0  0  0  0  2  0  0  0  0  0  0
    8.8884   46.0872   52.4980 C   0  0  0  0  0  0  0  0  0  0  0  0
   10.1318   46.5641   52.0791 C   0  0  0  0  0  3  0  0  0  0  0  0
    8.3556   45.3395   51.4520 C   0  0  0  0  0  0  0  0  0  0  0  0
   10.3170   46.1100   50.8322 N   0  0  0  0  0  0  0  0  0  0  0  0
    7.1696   44.6543   51.3322 C   0  0  0  0  0  3  0  0  0  0  0  0
    9.2896   45.3783   50.4169 C   0  0  0  0  0  0  0  0  0  0  0  0
    6.8812   43.9841   50.1673 C   0  0  0  0  0  3  0  0  0  0  0  0
    8.9594   44.7037   49.2923 N   0  0  0  0  0  0  0  0  0  0  0  0
    7.8097   44.0283   49.1509 C   0  0  0  0  0  3  0  0  0  0  0  0
    2.0658   45.7927   54.0719 C   0  0  0  0  0  2  0  0  0  0  0  0
    1.7558   44.4640   53.7888 O   0  0  0  0  0  0  0  0  0  0  0  0
    0.4674   43.9482   53.7671 C   0  0  0  0  0  0  0  0  0  0  0  0
   -0.1882   43.5253   54.9187 C   0  0  0  0  0  3  0  0  0  0  0  0
   -0.2405   43.8258   52.5896 C   0  0  0  0  0  3  0  0  0  0  0  0
   -1.4661   43.0198   54.8537 C   0  0  0  0  0  3  0  0  0  0  0  0
   -1.5219   43.3195   52.5197 C   0  0  0  0  0  3  0  0  0  0  0  0
   -2.1603   42.9039   53.6686 C   0  0  0  0  0  3  0  0  0  0  0  0
  1  2  2  0
  2  3  1  0
  3  8  1  0
  3  4  1  0
  4  5  1  0
  5  6  1  0
  6 19  1  0
  7  6  1  0
  8  7  1  0
  9  2  1  0
 10  9  1  0
 11 10  2  0
 12 14  1  0
 12 10  1  0
 13 11  1  0
 15 13  1  0
 15 12  2  0
 16 14  2  0
 17 18  2  0
 17 15  1  0
 18 16  1  0
 19 20  1  0
 20 21  1  0
 21 23  1  0
 21 22  2  0
 22 24  1  0
 23 25  2  0
 24 26  2  0
 25 26  1  0
M  RAD  8   4   3   5   3   6   2   7   3   8   3   9   3  11   2  14   2
M  RAD  8  16   2  18   2  19   3  22   2  23   2  24   2  25   2  26   2
M  END
>  <REMARK>  (1) 
 SMILES O=C(Cc1c[nH]c2ncccc12)N1CCC(COc2ccccc2)CC1
 SMILES IDX 1 1 2 2 13 3 14 4 15 5 16 6 25 7 26 8 3 9 4 10 5 11 12 12
 SMILES IDX 6 13 11 14 7 15 10 16 8 17 9 18 17 20 18 21 19 22 20 23
 SMILES IDX 24 24 21 25 23 26 22 27
 H PARENT 6 19

>  <TORSDO>  (1) 
F 5

$$$$
