/home/pchatterjee/Documents/git/vs_workflow/DiffDock/diffdock_run/pdbqt_scrubbed/Z1400966843.pdbqt
     RDKit          3D

 26 29  0  0  1  0  0  0  0  0999 V2000
    7.1553   48.4687   53.7914 O   0  0  0  0  0  0  0  0  0  0  0  0
    7.0150   47.2253   53.6642 C   0  0  0  0  0  0  0  0  0  0  0  0
    5.7744   46.6475   53.2617 N   0  0  0  0  0  0  0  0  0  0  0  0
    5.5945   45.2175   53.3587 C   0  0  0  0  0  2  0  0  0  0  0  0
    4.5180   44.6764   52.4616 C   0  0  0  0  0  2  0  0  0  0  0  0
    3.2438   45.4670   52.5198 C   0  0  0  0  0  3  0  0  0  0  0  0
    3.4173   46.8113   53.1813 C   0  0  0  0  0  2  0  0  0  0  0  0
    4.6922   47.4997   52.7539 C   0  0  0  0  0  2  0  0  0  0  0  0
    8.1897   46.3701   53.9483 C   0  0  0  0  0  2  0  0  0  0  0  0
    8.8510   46.0344   52.6583 C   0  0  0  0  0  0  0  0  0  0  0  0
   10.1708   46.3640   52.3446 C   0  0  0  0  0  3  0  0  0  0  0  0
    8.3186   45.3611   51.5628 C   0  0  0  0  0  0  0  0  0  0  0  0
   10.3994   45.8988   51.1090 N   0  0  0  0  0  0  0  0  0  0  0  0
    7.0737   44.8212   51.3408 C   0  0  0  0  0  3  0  0  0  0  0  0
    9.3294   45.2958   50.6041 C   0  0  0  0  0  0  0  0  0  0  0  0
    6.8018   44.1968   50.1469 C   0  0  0  0  0  3  0  0  0  0  0  0
    9.0124   44.6717   49.4470 N   0  0  0  0  0  0  0  0  0  0  0  0
    7.8064   44.1374   49.2064 C   0  0  0  0  0  3  0  0  0  0  0  0
    2.1961   44.6819   53.2799 C   0  0  0  0  0  2  0  0  0  0  0  0
    2.1874   43.3248   52.9638 O   0  0  0  0  0  0  0  0  0  0  0  0
    1.0502   42.6094   52.6154 C   0  0  0  0  0  0  0  0  0  0  0  0
   -0.2258   42.9920   53.0159 C   0  0  0  0  0  3  0  0  0  0  0  0
    1.1245   41.4680   51.8447 C   0  0  0  0  0  3  0  0  0  0  0  0
   -1.3277   42.2546   52.6486 C   0  0  0  0  0  3  0  0  0  0  0  0
    0.0224   40.7254   51.4740 C   0  0  0  0  0  3  0  0  0  0  0  0
   -1.2366   41.1156   51.8777 C   0  0  0  0  0  3  0  0  0  0  0  0
  1  2  2  0
  2  3  1  0
  3  8  1  0
  3  4  1  0
  4  5  1  0
  5  6  1  0
  6 19  1  0
  7  6  1  0
  8  7  1  0
  9  2  1  0
 10  9  1  0
 11 10  2  0
 12 14  1  0
 12 10  1  0
 13 11  1  0
 15 13  1  0
 15 12  2  0
 16 14  2  0
 17 18  2  0
 17 15  1  0
 18 16  1  0
 19 20  1  0
 20 21  1  0
 21 23  1  0
 21 22  2  0
 22 24  1  0
 23 25  2  0
 24 26  2  0
 25 26  1  0
M  RAD  8   4   3   5   3   6   2   7   3   8   3   9   3  11   2  14   2
M  RAD  8  16   2  18   2  19   3  22   2  23   2  24   2  25   2  26   2
M  END
>  <REMARK>  (1) 
 SMILES O=C(Cc1c[nH]c2ncccc12)N1CCC(COc2ccccc2)CC1
 SMILES IDX 1 1 2 2 13 3 14 4 15 5 16 6 25 7 26 8 3 9 4 10 5 11 12 12
 SMILES IDX 6 13 11 14 7 15 10 16 8 17 9 18 17 20 18 21 19 22 20 23
 SMILES IDX 24 24 21 25 23 26 22 27
 H PARENT 6 19

>  <TORSDO>  (1) 
F 5

$$$$
