/home/pchatterjee/Documents/git/vs_workflow/DiffDock/diffdock_run/pdbqt_scrubbed/Z1400966843.pdbqt
     RDKit          3D

 26 29  0  0  1  0  0  0  0  0999 V2000
    7.1841   48.4359   52.8300 O   0  0  0  0  0  0  0  0  0  0  0  0
    7.0522   47.3388   53.4306 C   0  0  0  0  0  0  0  0  0  0  0  0
    5.7670   46.7917   53.7201 N   0  0  0  0  0  0  0  0  0  0  0  0
    4.6693   47.0447   52.8158 C   0  0  0  0  0  2  0  0  0  0  0  0
    3.3138   46.8890   53.4441 C   0  0  0  0  0  2  0  0  0  0  0  0
    3.1746   45.6318   54.2516 C   0  0  0  0  0  3  0  0  0  0  0  0
    4.4998   44.9758   54.5487 C   0  0  0  0  0  2  0  0  0  0  0  0
    5.5639   45.9795   54.9261 C   0  0  0  0  0  2  0  0  0  0  0  0
    8.2852   46.6244   53.8323 C   0  0  0  0  0  2  0  0  0  0  0  0
    8.9650   46.1308   52.6042 C   0  0  0  0  0  0  0  0  0  0  0  0
   10.2981   46.3955   52.2857 C   0  0  0  0  0  3  0  0  0  0  0  0
    8.4400   45.3482   51.5800 C   0  0  0  0  0  0  0  0  0  0  0  0
   10.5415   45.7883   51.1164 N   0  0  0  0  0  0  0  0  0  0  0  0
    7.1879   44.8120   51.3920 C   0  0  0  0  0  3  0  0  0  0  0  0
    9.4686   45.1538   50.6584 C   0  0  0  0  0  0  0  0  0  0  0  0
    6.9264   44.0615   50.2705 C   0  0  0  0  0  3  0  0  0  0  0  0
    9.1613   44.4087   49.5725 N   0  0  0  0  0  0  0  0  0  0  0  0
    7.9485   43.8752   49.3663 C   0  0  0  0  0  3  0  0  0  0  0  0
    2.2999   44.6465   53.5061 C   0  0  0  0  0  2  0  0  0  0  0  0
    1.4975   45.2453   52.5369 O   0  0  0  0  0  0  0  0  0  0  0  0
    0.3945   44.6402   51.9506 C   0  0  0  0  0  0  0  0  0  0  0  0
    0.4868   43.8856   50.7857 C   0  0  0  0  0  3  0  0  0  0  0  0
   -0.8665   44.7556   52.4972 C   0  0  0  0  0  3  0  0  0  0  0  0
   -0.6317   43.3022   50.2366 C   0  0  0  0  0  3  0  0  0  0  0  0
   -1.9907   44.1723   51.9502 C   0  0  0  0  0  3  0  0  0  0  0  0
   -1.8855   43.4270   50.7954 C   0  0  0  0  0  3  0  0  0  0  0  0
  1  2  2  0
  2  3  1  0
  3  8  1  0
  3  4  1  0
  4  5  1  0
  5  6  1  0
  6 19  1  0
  7  6  1  0
  8  7  1  0
  9  2  1  0
 10  9  1  0
 11 10  2  0
 12 14  1  0
 12 10  1  0
 13 11  1  0
 15 13  1  0
 15 12  2  0
 16 14  2  0
 17 18  2  0
 17 15  1  0
 18 16  1  0
 19 20  1  0
 20 21  1  0
 21 23  1  0
 21 22  2  0
 22 24  1  0
 23 25  2  0
 24 26  2  0
 25 26  1  0
M  RAD  8   4   3   5   3   6   2   7   3   8   3   9   3  11   2  14   2
M  RAD  8  16   2  18   2  19   3  22   2  23   2  24   2  25   2  26   2
M  END
>  <REMARK>  (1) 
 SMILES O=C(Cc1c[nH]c2ncccc12)N1CCC(COc2ccccc2)CC1
 SMILES IDX 1 1 2 2 13 3 14 4 15 5 16 6 25 7 26 8 3 9 4 10 5 11 12 12
 SMILES IDX 6 13 11 14 7 15 10 16 8 17 9 18 17 20 18 21 19 22 20 23
 SMILES IDX 24 24 21 25 23 26 22 27
 H PARENT 6 19

>  <TORSDO>  (1) 
F 5

$$$$
