/home/pchatterjee/Documents/git/vs_workflow/DiffDock/diffdock_run/pdbqt_scrubbed/Z1400966843.pdbqt
     RDKit          3D

 26 29  0  0  1  0  0  0  0  0999 V2000
    6.7994   48.7423   52.7822 O   0  0  0  0  0  0  0  0  0  0  0  0
    6.8853   47.5813   53.2580 C   0  0  0  0  0  0  0  0  0  0  0  0
    5.7302   46.7745   53.4813 N   0  0  0  0  0  0  0  0  0  0  0  0
    4.8149   46.5306   52.3906 C   0  0  0  0  0  2  0  0  0  0  0  0
    3.4325   46.1411   52.8307 C   0  0  0  0  0  2  0  0  0  0  0  0
    3.4243   45.0835   53.8952 C   0  0  0  0  0  3  0  0  0  0  0  0
    4.7745   44.8880   54.5382 C   0  0  0  0  0  2  0  0  0  0  0  0
    5.4759   46.1986   54.8075 C   0  0  0  0  0  2  0  0  0  0  0  0
    8.2369   47.0717   53.5829 C   0  0  0  0  0  2  0  0  0  0  0  0
    8.8603   46.5593   52.3328 C   0  0  0  0  0  0  0  0  0  0  0  0
   10.1295   46.9262   51.8820 C   0  0  0  0  0  3  0  0  0  0  0  0
    8.3347   45.6601   51.4096 C   0  0  0  0  0  0  0  0  0  0  0  0
   10.3364   46.2638   50.7359 N   0  0  0  0  0  0  0  0  0  0  0  0
    7.1317   44.9956   51.3665 C   0  0  0  0  0  3  0  0  0  0  0  0
    9.2989   45.4995   50.4148 C   0  0  0  0  0  0  0  0  0  0  0  0
    6.8563   44.1465   50.3214 C   0  0  0  0  0  3  0  0  0  0  0  0
    8.9803   44.6539   49.4087 N   0  0  0  0  0  0  0  0  0  0  0  0
    7.8146   43.9945   49.3439 C   0  0  0  0  0  3  0  0  0  0  0  0
    2.9748   43.7676   53.2970 C   0  0  0  0  0  2  0  0  0  0  0  0
    2.4143   43.9018   52.0282 O   0  0  0  0  0  0  0  0  0  0  0  0
    1.7420   42.8892   51.3582 C   0  0  0  0  0  0  0  0  0  0  0  0
    1.7018   41.5804   51.8277 C   0  0  0  0  0  3  0  0  0  0  0  0
    1.0699   43.1283   50.1778 C   0  0  0  0  0  3  0  0  0  0  0  0
    1.0237   40.6057   51.1328 C   0  0  0  0  0  3  0  0  0  0  0  0
    0.3886   42.1541   49.4776 C   0  0  0  0  0  3  0  0  0  0  0  0
    0.3566   40.8609   49.9539 C   0  0  0  0  0  3  0  0  0  0  0  0
  1  2  2  0
  2  3  1  0
  3  8  1  0
  3  4  1  0
  4  5  1  0
  5  6  1  0
  6 19  1  0
  7  6  1  0
  8  7  1  0
  9  2  1  0
 10  9  1  0
 11 10  2  0
 12 14  1  0
 12 10  1  0
 13 11  1  0
 15 13  1  0
 15 12  2  0
 16 14  2  0
 17 18  2  0
 17 15  1  0
 18 16  1  0
 19 20  1  0
 20 21  1  0
 21 23  1  0
 21 22  2  0
 22 24  1  0
 23 25  2  0
 24 26  2  0
 25 26  1  0
M  RAD  8   4   3   5   3   6   2   7   3   8   3   9   3  11   2  14   2
M  RAD  8  16   2  18   2  19   3  22   2  23   2  24   2  25   2  26   2
M  END
>  <REMARK>  (1) 
 SMILES O=C(Cc1c[nH]c2ncccc12)N1CCC(COc2ccccc2)CC1
 SMILES IDX 1 1 2 2 13 3 14 4 15 5 16 6 25 7 26 8 3 9 4 10 5 11 12 12
 SMILES IDX 6 13 11 14 7 15 10 16 8 17 9 18 17 20 18 21 19 22 20 23
 SMILES IDX 24 24 21 25 23 26 22 27
 H PARENT 6 19

>  <TORSDO>  (1) 
F 5

$$$$
