/home/pchatterjee/Documents/git/vs_workflow/DiffDock/diffdock_run/pdbqt_scrubbed/Z1833218652.pdbqt
     RDKit          3D

 24 27  0  0  1  0  0  0  0  0999 V2000
    5.6516   42.1251   49.8039 C   0  0  0  0  0  0  0  0  0  0  0  0
    4.6046   41.9407   50.7121 C   0  0  0  0  0  3  0  0  0  0  0  0
    3.3692   41.4870   50.2427 C   0  0  0  0  0  3  0  0  0  0  0  0
    3.1417   41.2123   48.9086 C   0  0  0  0  0  3  0  0  0  0  0  0
    4.1883   41.4003   48.0253 C   0  0  0  0  0  0  0  0  0  0  0  0
    5.4360   41.8507   48.4486 C   0  0  0  0  0  3  0  0  0  0  0  0
    6.9192   42.5863   50.2570 N   0  0  0  0  0  0  0  0  0  0  0  0
    7.0817   43.9594   50.5668 C   0  0  0  0  0  0  0  0  0  0  0  0
    6.0367   44.6348   50.7475 O   0  0  0  0  0  0  0  0  0  0  0  0
    8.3574   44.6330   50.6885 C   0  0  0  0  0  0  0  0  0  0  0  0
    9.4601   44.3070   49.9268 C   0  0  0  0  0  3  0  0  0  0  0  0
    8.7670   45.6620   51.5034 C   0  0  0  0  0  0  0  0  0  0  0  0
   10.4923   45.1041   50.2660 N   0  0  0  0  0  0  0  0  0  0  0  0
   10.0723   45.9210   51.2174 N   0  0  0  0  0  0  0  0  0  0  0  0
    7.9273   46.3580   52.5107 C   0  0  0  0  0  3  0  0  0  0  0  0
    8.2293   47.7906   52.8338 C   0  0  0  0  0  2  0  0  0  0  0  0
    8.6680   46.6814   53.8139 C   0  0  0  0  0  2  0  0  0  0  0  0
    4.0006   41.1329   46.6592 O   0  0  0  0  0  0  0  0  0  0  0  0
    2.8114   41.5985   46.0800 C   0  0  0  0  0  2  0  0  0  0  0  0
    2.5454   40.9840   44.7246 C   0  0  0  0  0  3  0  0  0  0  0  0
    3.8383   41.0018   43.9385 C   0  0  0  0  0  2  0  0  0  0  0  0
    1.5999   41.6701   44.0017 O   0  0  0  0  0  0  0  0  0  0  0  0
    3.5109   41.8990   42.7785 C   0  0  0  0  0  2  0  0  0  0  0  0
    2.2825   42.6352   43.2981 C   0  0  0  0  0  2  0  0  0  0  0  0
  1  2  2  0
  1  7  1  0
  3  2  1  0
  4  3  2  0
  5  4  1  0
  5  6  2  0
  6  1  1  0
  7  8  1  0
  8 10  1  0
  9  8  2  0
 10 12  1  0
 10 11  2  0
 11 13  1  0
 12 14  2  0
 14 13  1  0
 15 16  1  0
 15 12  1  0
 15 17  1  0
 16 17  1  0
 18  5  1  0
 19 18  1  0
 20 19  1  0
 20 22  1  0
 21 20  1  0
 23 21  1  0
 23 24  1  0
 24 22  1  0
M  RAD  8   2   2   3   2   4   2   6   2  11   2  15   2  16   3  17   3
M  RAD  5  19   3  20   2  21   3  23   3  24   3
M  END
>  <REMARK>  (1) 
 SMILES O=C(Nc1cccc(OCC2CCCO2)c1)c1c[nH]nc1C1CC1
 SMILES IDX 4 1 5 2 6 3 7 4 8 5 16 6 3 7 2 8 1 9 17 11 18 12 21 13 19 14
 SMILES IDX 20 15 22 17 23 18 24 19 9 20 10 21 11 22 12 23 15 24 13 25
 SMILES IDX 14 26
 H PARENT 3 10 19 16

>  <TORSDO>  (1) 
F 6

$$$$
