/home/pchatterjee/Documents/git/vs_workflow/DiffDock/diffdock_run/pdbqt_scrubbed/Z1833218652.pdbqt
     RDKit          3D

 24 27  0  0  1  0  0  0  0  0999 V2000
    5.7502   42.1008   49.9154 C   0  0  0  0  0  0  0  0  0  0  0  0
    4.6912   41.8005   50.7774 C   0  0  0  0  0  3  0  0  0  0  0  0
    3.5058   41.2868   50.2452 C   0  0  0  0  0  3  0  0  0  0  0  0
    3.3394   41.0633   48.8926 C   0  0  0  0  0  3  0  0  0  0  0  0
    4.3970   41.3660   48.0555 C   0  0  0  0  0  0  0  0  0  0  0  0
    5.5963   41.8795   48.5420 C   0  0  0  0  0  3  0  0  0  0  0  0
    6.9677   42.6249   50.4328 N   0  0  0  0  0  0  0  0  0  0  0  0
    7.1068   44.0276   50.5779 C   0  0  0  0  0  0  0  0  0  0  0  0
    6.0507   44.7012   50.6850 O   0  0  0  0  0  0  0  0  0  0  0  0
    8.3707   44.7328   50.6111 C   0  0  0  0  0  0  0  0  0  0  0  0
    9.4515   44.3846   49.8281 C   0  0  0  0  0  3  0  0  0  0  0  0
    8.7870   45.8164   51.3481 C   0  0  0  0  0  0  0  0  0  0  0  0
   10.4774   45.2212   50.0804 N   0  0  0  0  0  0  0  0  0  0  0  0
   10.0747   46.0844   50.9977 N   0  0  0  0  0  0  0  0  0  0  0  0
    7.9697   46.5538   52.3445 C   0  0  0  0  0  3  0  0  0  0  0  0
    8.1897   48.0280   52.5067 C   0  0  0  0  0  2  0  0  0  0  0  0
    8.7719   47.0527   53.5524 C   0  0  0  0  0  2  0  0  0  0  0  0
    4.2707   41.1541   46.6727 O   0  0  0  0  0  0  0  0  0  0  0  0
    2.9770   41.2243   46.1365 C   0  0  0  0  0  2  0  0  0  0  0  0
    2.8775   40.5809   44.7721 C   0  0  0  0  0  3  0  0  0  0  0  0
    4.0726   41.0227   43.9558 C   0  0  0  0  0  2  0  0  0  0  0  0
    1.7410   40.9434   44.0906 O   0  0  0  0  0  0  0  0  0  0  0  0
    3.4413   41.7895   42.8282 C   0  0  0  0  0  2  0  0  0  0  0  0
    2.0597   42.0876   43.3967 C   0  0  0  0  0  2  0  0  0  0  0  0
  1  2  2  0
  1  7  1  0
  3  2  1  0
  4  3  2  0
  5  4  1  0
  5  6  2  0
  6  1  1  0
  7  8  1  0
  8 10  1  0
  9  8  2  0
 10 12  1  0
 10 11  2  0
 11 13  1  0
 12 14  2  0
 14 13  1  0
 15 16  1  0
 15 12  1  0
 15 17  1  0
 16 17  1  0
 18  5  1  0
 19 18  1  0
 20 19  1  0
 20 22  1  0
 21 20  1  0
 23 21  1  0
 23 24  1  0
 24 22  1  0
M  RAD  8   2   2   3   2   4   2   6   2  11   2  15   2  16   3  17   3
M  RAD  5  19   3  20   2  21   3  23   3  24   3
M  END
>  <REMARK>  (1) 
 SMILES O=C(Nc1cccc(OCC2CCCO2)c1)c1c[nH]nc1C1CC1
 SMILES IDX 4 1 5 2 6 3 7 4 8 5 16 6 3 7 2 8 1 9 17 11 18 12 21 13 19 14
 SMILES IDX 20 15 22 17 23 18 24 19 9 20 10 21 11 22 12 23 15 24 13 25
 SMILES IDX 14 26
 H PARENT 3 10 19 16

>  <TORSDO>  (1) 
F 6

$$$$
