/home/pchatterjee/Documents/git/vs_workflow/DiffDock/diffdock_run/pdbqt_scrubbed/Z1833218652.pdbqt
     RDKit          3D

 24 27  0  0  1  0  0  0  0  0999 V2000
    5.9912   42.0654   49.6002 C   0  0  0  0  0  0  0  0  0  0  0  0
    4.9688   41.8110   50.5193 C   0  0  0  0  0  3  0  0  0  0  0  0
    3.7660   41.2644   50.0647 C   0  0  0  0  0  3  0  0  0  0  0  0
    3.5474   40.9641   48.7345 C   0  0  0  0  0  3  0  0  0  0  0  0
    4.5692   41.2223   47.8402 C   0  0  0  0  0  0  0  0  0  0  0  0
    5.7842   41.7663   48.2487 C   0  0  0  0  0  3  0  0  0  0  0  0
    7.2255   42.6216   50.0382 N   0  0  0  0  0  0  0  0  0  0  0  0
    7.2716   43.9887   50.4083 C   0  0  0  0  0  0  0  0  0  0  0  0
    6.1755   44.5558   50.6484 O   0  0  0  0  0  0  0  0  0  0  0  0
    8.4838   44.7711   50.5282 C   0  0  0  0  0  0  0  0  0  0  0  0
    9.6199   44.5233   49.7864 C   0  0  0  0  0  3  0  0  0  0  0  0
    8.7940   45.8492   51.3232 C   0  0  0  0  0  0  0  0  0  0  0  0
   10.5762   45.4130   50.1182 N   0  0  0  0  0  0  0  0  0  0  0  0
   10.0761   46.2121   51.0455 N   0  0  0  0  0  0  0  0  0  0  0  0
    7.8852   46.4934   52.3048 C   0  0  0  0  0  3  0  0  0  0  0  0
    8.1412   47.9181   52.6958 C   0  0  0  0  0  2  0  0  0  0  0  0
    8.5443   46.7810   53.6592 C   0  0  0  0  0  2  0  0  0  0  0  0
    4.3894   40.9322   46.4776 O   0  0  0  0  0  0  0  0  0  0  0  0
    3.1250   41.2008   45.9342 C   0  0  0  0  0  2  0  0  0  0  0  0
    3.1870   41.5576   44.4664 C   0  0  0  0  0  3  0  0  0  0  0  0
    2.0213   42.4711   44.1552 C   0  0  0  0  0  2  0  0  0  0  0  0
    3.0976   40.4607   43.6443 O   0  0  0  0  0  0  0  0  0  0  0  0
    1.2206   41.6663   43.1708 C   0  0  0  0  0  2  0  0  0  0  0  0
    1.7555   40.2613   43.4172 C   0  0  0  0  0  2  0  0  0  0  0  0
  1  2  2  0
  1  7  1  0
  3  2  1  0
  4  3  2  0
  5  4  1  0
  5  6  2  0
  6  1  1  0
  7  8  1  0
  8 10  1  0
  9  8  2  0
 10 12  1  0
 10 11  2  0
 11 13  1  0
 12 14  2  0
 14 13  1  0
 15 16  1  0
 15 12  1  0
 15 17  1  0
 16 17  1  0
 18  5  1  0
 19 18  1  0
 20 19  1  0
 20 22  1  0
 21 20  1  0
 23 21  1  0
 23 24  1  0
 24 22  1  0
M  RAD  8   2   2   3   2   4   2   6   2  11   2  15   2  16   3  17   3
M  RAD  5  19   3  20   2  21   3  23   3  24   3
M  END
>  <REMARK>  (1) 
 SMILES O=C(Nc1cccc(OCC2CCCO2)c1)c1c[nH]nc1C1CC1
 SMILES IDX 4 1 5 2 6 3 7 4 8 5 16 6 3 7 2 8 1 9 17 11 18 12 21 13 19 14
 SMILES IDX 20 15 22 17 23 18 24 19 9 20 10 21 11 22 12 23 15 24 13 25
 SMILES IDX 14 26
 H PARENT 3 10 19 16

>  <TORSDO>  (1) 
F 6

$$$$
