/home/pchatterjee/Documents/git/vs_workflow/DiffDock/diffdock_run/pdbqt_scrubbed/Z1833218652.pdbqt
     RDKit          3D

 24 27  0  0  1  0  0  0  0  0999 V2000
    6.0914   42.0662   49.5459 C   0  0  0  0  0  0  0  0  0  0  0  0
    5.1318   41.8559   50.5408 C   0  0  0  0  0  3  0  0  0  0  0  0
    3.9054   41.2840   50.1928 C   0  0  0  0  0  3  0  0  0  0  0  0
    3.6033   40.9165   48.8964 C   0  0  0  0  0  3  0  0  0  0  0  0
    4.5640   41.1318   47.9260 C   0  0  0  0  0  0  0  0  0  0  0  0
    5.7995   41.6987   48.2274 C   0  0  0  0  0  3  0  0  0  0  0  0
    7.3480   42.6470   49.8749 N   0  0  0  0  0  0  0  0  0  0  0  0
    7.3877   43.9861   50.3367 C   0  0  0  0  0  0  0  0  0  0  0  0
    6.2873   44.5393   50.5890 O   0  0  0  0  0  0  0  0  0  0  0  0
    8.5980   44.7550   50.5364 C   0  0  0  0  0  0  0  0  0  0  0  0
    9.7983   44.4463   49.9310 C   0  0  0  0  0  3  0  0  0  0  0  0
    8.8488   45.8728   51.2969 C   0  0  0  0  0  0  0  0  0  0  0  0
   10.7348   45.3387   50.3087 N   0  0  0  0  0  0  0  0  0  0  0  0
   10.1601   46.1985   51.1328 N   0  0  0  0  0  0  0  0  0  0  0  0
    7.8588   46.5875   52.1415 C   0  0  0  0  0  3  0  0  0  0  0  0
    7.9925   48.0716   52.3078 C   0  0  0  0  0  2  0  0  0  0  0  0
    8.4443   47.1349   53.4489 C   0  0  0  0  0  2  0  0  0  0  0  0
    4.2985   40.7728   46.5942 O   0  0  0  0  0  0  0  0  0  0  0  0
    3.1833   41.3684   45.9877 C   0  0  0  0  0  2  0  0  0  0  0  0
    2.7148   40.6141   44.7642 C   0  0  0  0  0  3  0  0  0  0  0  0
    3.9317   40.2520   43.9407 C   0  0  0  0  0  2  0  0  0  0  0  0
    1.8701   41.3519   43.9710 O   0  0  0  0  0  0  0  0  0  0  0  0
    3.7030   41.0032   42.6596 C   0  0  0  0  0  2  0  0  0  0  0  0
    2.6743   42.0402   43.0924 C   0  0  0  0  0  2  0  0  0  0  0  0
  1  2  2  0
  1  7  1  0
  3  2  1  0
  4  3  2  0
  5  4  1  0
  5  6  2  0
  6  1  1  0
  7  8  1  0
  8 10  1  0
  9  8  2  0
 10 12  1  0
 10 11  2  0
 11 13  1  0
 12 14  2  0
 14 13  1  0
 15 16  1  0
 15 12  1  0
 15 17  1  0
 16 17  1  0
 18  5  1  0
 19 18  1  0
 20 19  1  0
 20 22  1  0
 21 20  1  0
 23 21  1  0
 23 24  1  0
 24 22  1  0
M  RAD  8   2   2   3   2   4   2   6   2  11   2  15   2  16   3  17   3
M  RAD  5  19   3  20   2  21   3  23   3  24   3
M  END
>  <REMARK>  (1) 
 SMILES O=C(Nc1cccc(OCC2CCCO2)c1)c1c[nH]nc1C1CC1
 SMILES IDX 4 1 5 2 6 3 7 4 8 5 16 6 3 7 2 8 1 9 17 11 18 12 21 13 19 14
 SMILES IDX 20 15 22 17 23 18 24 19 9 20 10 21 11 22 12 23 15 24 13 25
 SMILES IDX 14 26
 H PARENT 3 10 19 16

>  <TORSDO>  (1) 
F 6

$$$$
