/home/pchatterjee/Documents/git/vs_workflow/DiffDock/diffdock_run/pdbqt_scrubbed/Z1833218652.pdbqt
     RDKit          3D

 24 27  0  0  1  0  0  0  0  0999 V2000
    5.7293   42.3049   49.2913 C   0  0  0  0  0  0  0  0  0  0  0  0
    5.1031   41.4207   50.1751 C   0  0  0  0  0  3  0  0  0  0  0  0
    3.8362   40.9246   49.8572 C   0  0  0  0  0  3  0  0  0  0  0  0
    3.1753   41.2762   48.6967 C   0  0  0  0  0  3  0  0  0  0  0  0
    3.8095   42.1512   47.8348 C   0  0  0  0  0  0  0  0  0  0  0  0
    5.0717   42.6703   48.1111 C   0  0  0  0  0  3  0  0  0  0  0  0
    7.0194   42.8241   49.5923 N   0  0  0  0  0  0  0  0  0  0  0  0
    7.1217   44.0747   50.2508 C   0  0  0  0  0  0  0  0  0  0  0  0
    6.0494   44.6230   50.6117 O   0  0  0  0  0  0  0  0  0  0  0  0
    8.3655   44.7591   50.5343 C   0  0  0  0  0  0  0  0  0  0  0  0
    9.5444   44.4908   49.8705 C   0  0  0  0  0  3  0  0  0  0  0  0
    8.6721   45.7484   51.4388 C   0  0  0  0  0  0  0  0  0  0  0  0
   10.5220   45.2833   50.3523 N   0  0  0  0  0  0  0  0  0  0  0  0
    9.9938   46.0414   51.2984 N   0  0  0  0  0  0  0  0  0  0  0  0
    7.7232   46.3766   52.3923 C   0  0  0  0  0  3  0  0  0  0  0  0
    7.9685   47.7909   52.8256 C   0  0  0  0  0  2  0  0  0  0  0  0
    8.3218   46.6307   53.7810 C   0  0  0  0  0  2  0  0  0  0  0  0
    3.1732   42.5355   46.6429 O   0  0  0  0  0  0  0  0  0  0  0  0
    2.7891   41.5075   45.7700 C   0  0  0  0  0  2  0  0  0  0  0  0
    1.5635   41.8616   44.9586 C   0  0  0  0  0  3  0  0  0  0  0  0
    1.3022   40.7329   43.9851 C   0  0  0  0  0  2  0  0  0  0  0  0
    1.7165   43.0192   44.2349 O   0  0  0  0  0  0  0  0  0  0  0  0
    1.4750   41.3983   42.6489 C   0  0  0  0  0  2  0  0  0  0  0  0
    2.2617   42.6466   43.0281 C   0  0  0  0  0  2  0  0  0  0  0  0
  1  2  2  0
  1  7  1  0
  3  2  1  0
  4  3  2  0
  5  4  1  0
  5  6  2  0
  6  1  1  0
  7  8  1  0
  8 10  1  0
  9  8  2  0
 10 12  1  0
 10 11  2  0
 11 13  1  0
 12 14  2  0
 14 13  1  0
 15 16  1  0
 15 12  1  0
 15 17  1  0
 16 17  1  0
 18  5  1  0
 19 18  1  0
 20 19  1  0
 20 22  1  0
 21 20  1  0
 23 21  1  0
 23 24  1  0
 24 22  1  0
M  RAD  8   2   2   3   2   4   2   6   2  11   2  15   2  16   3  17   3
M  RAD  5  19   3  20   2  21   3  23   3  24   3
M  END
>  <REMARK>  (1) 
 SMILES O=C(Nc1cccc(OCC2CCCO2)c1)c1c[nH]nc1C1CC1
 SMILES IDX 4 1 5 2 6 3 7 4 8 5 16 6 3 7 2 8 1 9 17 11 18 12 21 13 19 14
 SMILES IDX 20 15 22 17 23 18 24 19 9 20 10 21 11 22 12 23 15 24 13 25
 SMILES IDX 14 26
 H PARENT 3 10 19 16

>  <TORSDO>  (1) 
F 6

$$$$
