/home/pchatterjee/Documents/git/vs_workflow/DiffDock/diffdock_run/pdbqt_scrubbed/Z1833218652.pdbqt
     RDKit          3D

 24 27  0  0  1  0  0  0  0  0999 V2000
    6.0875   42.1210   49.2423 C   0  0  0  0  0  0  0  0  0  0  0  0
    5.9874   41.6331   47.9358 C   0  0  0  0  0  3  0  0  0  0  0  0
    4.7692   41.1075   47.4976 C   0  0  0  0  0  3  0  0  0  0  0  0
    3.6541   41.0512   48.3103 C   0  0  0  0  0  3  0  0  0  0  0  0
    3.7716   41.5381   49.5987 C   0  0  0  0  0  0  0  0  0  0  0  0
    4.9657   42.0706   50.0777 C   0  0  0  0  0  3  0  0  0  0  0  0
    7.3171   42.6612   49.7124 N   0  0  0  0  0  0  0  0  0  0  0  0
    7.3841   44.0387   50.0380 C   0  0  0  0  0  0  0  0  0  0  0  0
    6.3110   44.6923   49.9924 O   0  0  0  0  0  0  0  0  0  0  0  0
    8.5929   44.7398   50.4164 C   0  0  0  0  0  0  0  0  0  0  0  0
    9.8494   44.3658   49.9877 C   0  0  0  0  0  3  0  0  0  0  0  0
    8.7916   45.8419   51.2142 C   0  0  0  0  0  0  0  0  0  0  0  0
   10.7687   45.2051   50.5038 N   0  0  0  0  0  0  0  0  0  0  0  0
   10.1287   46.0951   51.2435 N   0  0  0  0  0  0  0  0  0  0  0  0
    7.7305   46.6098   51.9132 C   0  0  0  0  0  3  0  0  0  0  0  0
    8.1012   47.8915   52.5972 C   0  0  0  0  0  2  0  0  0  0  0  0
    7.8780   46.6171   53.4395 C   0  0  0  0  0  2  0  0  0  0  0  0
    2.6621   41.5002   50.4593 O   0  0  0  0  0  0  0  0  0  0  0  0
    1.5705   40.7200   50.0517 C   0  0  0  0  0  2  0  0  0  0  0  0
    0.6378   40.3839   51.1931 C   0  0  0  0  0  3  0  0  0  0  0  0
   -0.5607   39.6575   50.6223 C   0  0  0  0  0  2  0  0  0  0  0  0
    0.1825   41.4964   51.8581 O   0  0  0  0  0  0  0  0  0  0  0  0
   -1.6968   40.5886   50.9389 C   0  0  0  0  0  2  0  0  0  0  0  0
   -0.9580   41.8951   51.2003 C   0  0  0  0  0  2  0  0  0  0  0  0
  1  2  2  0
  1  7  1  0
  3  2  1  0
  4  3  2  0
  5  4  1  0
  5  6  2  0
  6  1  1  0
  7  8  1  0
  8 10  1  0
  9  8  2  0
 10 12  1  0
 10 11  2  0
 11 13  1  0
 12 14  2  0
 14 13  1  0
 15 16  1  0
 15 12  1  0
 15 17  1  0
 16 17  1  0
 18  5  1  0
 19 18  1  0
 20 19  1  0
 20 22  1  0
 21 20  1  0
 23 21  1  0
 23 24  1  0
 24 22  1  0
M  RAD  8   2   2   3   2   4   2   6   2  11   2  15   2  16   3  17   3
M  RAD  5  19   3  20   2  21   3  23   3  24   3
M  END
>  <REMARK>  (1) 
 SMILES O=C(Nc1cccc(OCC2CCCO2)c1)c1c[nH]nc1C1CC1
 SMILES IDX 4 1 5 2 6 3 7 4 8 5 16 6 3 7 2 8 1 9 17 11 18 12 21 13 19 14
 SMILES IDX 20 15 22 17 23 18 24 19 9 20 10 21 11 22 12 23 15 24 13 25
 SMILES IDX 14 26
 H PARENT 3 10 19 16

>  <TORSDO>  (1) 
F 6

$$$$
