/home/pchatterjee/Documents/git/vs_workflow/DiffDock/diffdock_run/pdbqt_scrubbed/Z1833218652.pdbqt
     RDKit          3D

 24 27  0  0  1  0  0  0  0  0999 V2000
    5.7459   42.0001   49.6560 C   0  0  0  0  0  0  0  0  0  0  0  0
    6.0614   41.4082   48.4292 C   0  0  0  0  0  3  0  0  0  0  0  0
    5.0348   40.8658   47.6518 C   0  0  0  0  0  3  0  0  0  0  0  0
    3.7132   40.8921   48.0514 C   0  0  0  0  0  3  0  0  0  0  0  0
    3.4200   41.4812   49.2670 C   0  0  0  0  0  0  0  0  0  0  0  0
    4.4107   42.0343   50.0741 C   0  0  0  0  0  3  0  0  0  0  0  0
    6.7732   42.5597   50.4660 N   0  0  0  0  0  0  0  0  0  0  0  0
    6.9707   43.9628   50.4555 C   0  0  0  0  0  0  0  0  0  0  0  0
    5.9476   44.6859   50.3502 O   0  0  0  0  0  0  0  0  0  0  0  0
    8.2587   44.6160   50.5569 C   0  0  0  0  0  0  0  0  0  0  0  0
    9.3717   44.2062   49.8527 C   0  0  0  0  0  3  0  0  0  0  0  0
    8.6727   45.6977   51.2981 C   0  0  0  0  0  0  0  0  0  0  0  0
   10.4140   45.0053   50.1547 N   0  0  0  0  0  0  0  0  0  0  0  0
    9.9904   45.9045   51.0269 N   0  0  0  0  0  0  0  0  0  0  0  0
    7.8254   46.4900   52.2247 C   0  0  0  0  0  3  0  0  0  0  0  0
    8.2302   47.8977   52.5448 C   0  0  0  0  0  2  0  0  0  0  0  0
    8.4914   46.7784   53.5755 C   0  0  0  0  0  2  0  0  0  0  0  0
    2.0886   41.5298   49.7120 O   0  0  0  0  0  0  0  0  0  0  0  0
    1.0894   41.4423   48.7321 C   0  0  0  0  0  2  0  0  0  0  0  0
   -0.0064   42.4655   48.9261 C   0  0  0  0  0  3  0  0  0  0  0  0
   -0.1751   42.6975   50.4119 C   0  0  0  0  0  2  0  0  0  0  0  0
   -1.2166   42.0567   48.4205 O   0  0  0  0  0  0  0  0  0  0  0  0
   -1.5798   42.2280   50.6654 C   0  0  0  0  0  2  0  0  0  0  0  0
   -1.8422   41.3693   49.4346 C   0  0  0  0  0  2  0  0  0  0  0  0
  1  2  2  0
  1  7  1  0
  3  2  1  0
  4  3  2  0
  5  4  1  0
  5  6  2  0
  6  1  1  0
  7  8  1  0
  8 10  1  0
  9  8  2  0
 10 12  1  0
 10 11  2  0
 11 13  1  0
 12 14  2  0
 14 13  1  0
 15 16  1  0
 15 12  1  0
 15 17  1  0
 16 17  1  0
 18  5  1  0
 19 18  1  0
 20 19  1  0
 20 22  1  0
 21 20  1  0
 23 21  1  0
 23 24  1  0
 24 22  1  0
M  RAD  8   2   2   3   2   4   2   6   2  11   2  15   2  16   3  17   3
M  RAD  5  19   3  20   2  21   3  23   3  24   3
M  END
>  <REMARK>  (1) 
 SMILES O=C(Nc1cccc(OCC2CCCO2)c1)c1c[nH]nc1C1CC1
 SMILES IDX 4 1 5 2 6 3 7 4 8 5 16 6 3 7 2 8 1 9 17 11 18 12 21 13 19 14
 SMILES IDX 20 15 22 17 23 18 24 19 9 20 10 21 11 22 12 23 15 24 13 25
 SMILES IDX 14 26
 H PARENT 3 10 19 16

>  <TORSDO>  (1) 
F 6

$$$$
