/home/pchatterjee/Documents/git/vs_workflow/DiffDock/diffdock_run/pdbqt_scrubbed/Z1833218652.pdbqt
     RDKit          3D

 24 27  0  0  1  0  0  0  0  0999 V2000
    5.8446   42.0210   49.7266 C   0  0  0  0  0  0  0  0  0  0  0  0
    4.7920   41.5827   50.5359 C   0  0  0  0  0  3  0  0  0  0  0  0
    3.6498   41.0472   49.9353 C   0  0  0  0  0  3  0  0  0  0  0  0
    3.5201   40.9335   48.5651 C   0  0  0  0  0  3  0  0  0  0  0  0
    4.5706   41.3718   47.7808 C   0  0  0  0  0  0  0  0  0  0  0  0
    5.7275   41.9121   48.3362 C   0  0  0  0  0  3  0  0  0  0  0  0
    7.0185   42.5702   50.3140 N   0  0  0  0  0  0  0  0  0  0  0  0
    7.0951   43.9701   50.5193 C   0  0  0  0  0  0  0  0  0  0  0  0
    6.0110   44.6059   50.5518 O   0  0  0  0  0  0  0  0  0  0  0  0
    8.3256   44.7129   50.6929 C   0  0  0  0  0  0  0  0  0  0  0  0
    9.5131   44.3609   50.0860 C   0  0  0  0  0  3  0  0  0  0  0  0
    8.6099   45.8409   51.4261 C   0  0  0  0  0  0  0  0  0  0  0  0
   10.4743   45.2379   50.4367 N   0  0  0  0  0  0  0  0  0  0  0  0
    9.9275   46.1301   51.2453 N   0  0  0  0  0  0  0  0  0  0  0  0
    7.6445   46.5988   52.2615 C   0  0  0  0  0  3  0  0  0  0  0  0
    7.9561   48.0239   52.6082 C   0  0  0  0  0  2  0  0  0  0  0  0
    8.1650   46.9204   53.6676 C   0  0  0  0  0  2  0  0  0  0  0  0
    4.4808   41.2749   46.3824 O   0  0  0  0  0  0  0  0  0  0  0  0
    3.2018   41.0797   45.8417 C   0  0  0  0  0  2  0  0  0  0  0  0
    2.9982   41.8297   44.5449 C   0  0  0  0  0  3  0  0  0  0  0  0
    1.5136   41.8722   44.2546 C   0  0  0  0  0  2  0  0  0  0  0  0
    3.6223   41.2321   43.4769 O   0  0  0  0  0  0  0  0  0  0  0  0
    1.4027   41.0995   42.9707 C   0  0  0  0  0  2  0  0  0  0  0  0
    2.7189   40.3324   42.9604 C   0  0  0  0  0  2  0  0  0  0  0  0
  1  2  2  0
  1  7  1  0
  3  2  1  0
  4  3  2  0
  5  4  1  0
  5  6  2  0
  6  1  1  0
  7  8  1  0
  8 10  1  0
  9  8  2  0
 10 12  1  0
 10 11  2  0
 11 13  1  0
 12 14  2  0
 14 13  1  0
 15 16  1  0
 15 12  1  0
 15 17  1  0
 16 17  1  0
 18  5  1  0
 19 18  1  0
 20 19  1  0
 20 22  1  0
 21 20  1  0
 23 21  1  0
 23 24  1  0
 24 22  1  0
M  RAD  8   2   2   3   2   4   2   6   2  11   2  15   2  16   3  17   3
M  RAD  5  19   3  20   2  21   3  23   3  24   3
M  END
>  <REMARK>  (1) 
 SMILES O=C(Nc1cccc(OCC2CCCO2)c1)c1c[nH]nc1C1CC1
 SMILES IDX 4 1 5 2 6 3 7 4 8 5 16 6 3 7 2 8 1 9 17 11 18 12 21 13 19 14
 SMILES IDX 20 15 22 17 23 18 24 19 9 20 10 21 11 22 12 23 15 24 13 25
 SMILES IDX 14 26
 H PARENT 3 10 19 16

>  <TORSDO>  (1) 
F 6

$$$$
