/home/pchatterjee/Documents/git/vs_workflow/DiffDock/diffdock_run/pdbqt_scrubbed/Z1833218652.pdbqt
     RDKit          3D

 24 27  0  0  1  0  0  0  0  0999 V2000
    5.9656   42.2842   49.3514 C   0  0  0  0  0  0  0  0  0  0  0  0
    5.0520   42.2194   50.4079 C   0  0  0  0  0  3  0  0  0  0  0  0
    3.8088   41.6180   50.1961 C   0  0  0  0  0  3  0  0  0  0  0  0
    3.4459   41.0821   48.9761 C   0  0  0  0  0  3  0  0  0  0  0  0
    4.3616   41.1551   47.9432 C   0  0  0  0  0  0  0  0  0  0  0  0
    5.6119   41.7452   48.1092 C   0  0  0  0  0  3  0  0  0  0  0  0
    7.2382   42.8915   49.5418 N   0  0  0  0  0  0  0  0  0  0  0  0
    7.3271   44.0757   50.3150 C   0  0  0  0  0  0  0  0  0  0  0  0
    6.2654   44.5022   50.8361 O   0  0  0  0  0  0  0  0  0  0  0  0
    8.5461   44.8222   50.5445 C   0  0  0  0  0  0  0  0  0  0  0  0
    9.6493   44.7400   49.7208 C   0  0  0  0  0  3  0  0  0  0  0  0
    8.8931   45.7130   51.5328 C   0  0  0  0  0  0  0  0  0  0  0  0
   10.6219   45.5461   50.1903 N   0  0  0  0  0  0  0  0  0  0  0  0
   10.1638   46.1323   51.2836 N   0  0  0  0  0  0  0  0  0  0  0  0
    8.0285   46.1342   52.6639 C   0  0  0  0  0  3  0  0  0  0  0  0
    7.6391   47.5779   52.7736 C   0  0  0  0  0  2  0  0  0  0  0  0
    8.7453   47.0168   53.6928 C   0  0  0  0  0  2  0  0  0  0  0  0
    4.0337   40.6225   46.6855 O   0  0  0  0  0  0  0  0  0  0  0  0
    2.9744   41.2305   45.9967 C   0  0  0  0  0  2  0  0  0  0  0  0
    3.3695   41.6907   44.6119 C   0  0  0  0  0  3  0  0  0  0  0  0
    2.1345   42.2351   43.9274 C   0  0  0  0  0  2  0  0  0  0  0  0
    3.8735   40.6767   43.8340 O   0  0  0  0  0  0  0  0  0  0  0  0
    1.9572   41.2989   42.7655 C   0  0  0  0  0  2  0  0  0  0  0  0
    2.7924   40.1032   43.2057 C   0  0  0  0  0  2  0  0  0  0  0  0
  1  2  2  0
  1  7  1  0
  3  2  1  0
  4  3  2  0
  5  4  1  0
  5  6  2  0
  6  1  1  0
  7  8  1  0
  8 10  1  0
  9  8  2  0
 10 12  1  0
 10 11  2  0
 11 13  1  0
 12 14  2  0
 14 13  1  0
 15 16  1  0
 15 12  1  0
 15 17  1  0
 16 17  1  0
 18  5  1  0
 19 18  1  0
 20 19  1  0
 20 22  1  0
 21 20  1  0
 23 21  1  0
 23 24  1  0
 24 22  1  0
M  RAD  8   2   2   3   2   4   2   6   2  11   2  15   2  16   3  17   3
M  RAD  5  19   3  20   2  21   3  23   3  24   3
M  END
>  <REMARK>  (1) 
 SMILES O=C(Nc1cccc(OCC2CCCO2)c1)c1c[nH]nc1C1CC1
 SMILES IDX 4 1 5 2 6 3 7 4 8 5 16 6 3 7 2 8 1 9 17 11 18 12 21 13 19 14
 SMILES IDX 20 15 22 17 23 18 24 19 9 20 10 21 11 22 12 23 15 24 13 25
 SMILES IDX 14 26
 H PARENT 3 10 19 16

>  <TORSDO>  (1) 
F 6

$$$$
