/home/pchatterjee/Documents/git/vs_workflow/DiffDock/diffdock_run/pdbqt_scrubbed/Z1833218652.pdbqt
     RDKit          3D

 24 27  0  0  1  0  0  0  0  0999 V2000
    6.1473   42.0977   49.3474 C   0  0  0  0  0  0  0  0  0  0  0  0
    6.0905   41.5507   48.0619 C   0  0  0  0  0  3  0  0  0  0  0  0
    4.9032   40.9555   47.6279 C   0  0  0  0  0  3  0  0  0  0  0  0
    3.7774   40.8866   48.4247 C   0  0  0  0  0  3  0  0  0  0  0  0
    3.8519   41.4325   49.6925 C   0  0  0  0  0  0  0  0  0  0  0  0
    5.0142   42.0353   50.1664 C   0  0  0  0  0  3  0  0  0  0  0  0
    7.3448   42.7094   49.8127 N   0  0  0  0  0  0  0  0  0  0  0  0
    7.3227   44.0795   50.1737 C   0  0  0  0  0  0  0  0  0  0  0  0
    6.1960   44.6275   50.2787 O   0  0  0  0  0  0  0  0  0  0  0  0
    8.4982   44.8853   50.4279 C   0  0  0  0  0  0  0  0  0  0  0  0
    9.6946   44.7075   49.7649 C   0  0  0  0  0  3  0  0  0  0  0  0
    8.7145   45.9266   51.2996 C   0  0  0  0  0  0  0  0  0  0  0  0
   10.5957   45.6023   50.2157 N   0  0  0  0  0  0  0  0  0  0  0  0
   10.0026   46.3369   51.1416 N   0  0  0  0  0  0  0  0  0  0  0  0
    7.7146   46.4930   52.2396 C   0  0  0  0  0  3  0  0  0  0  0  0
    7.8732   47.9148   52.6885 C   0  0  0  0  0  2  0  0  0  0  0  0
    8.2723   46.7676   53.6415 C   0  0  0  0  0  2  0  0  0  0  0  0
    2.7301   41.3843   50.5364 O   0  0  0  0  0  0  0  0  0  0  0  0
    1.6315   40.6373   50.0878 C   0  0  0  0  0  2  0  0  0  0  0  0
    0.5673   40.4738   51.1491 C   0  0  0  0  0  3  0  0  0  0  0  0
   -0.2806   39.2748   50.7837 C   0  0  0  0  0  2  0  0  0  0  0  0
   -0.2615   41.5649   51.2490 O   0  0  0  0  0  0  0  0  0  0  0  0
   -1.6372   39.8813   50.5608 C   0  0  0  0  0  2  0  0  0  0  0  0
   -1.2863   41.3497   50.3568 C   0  0  0  0  0  2  0  0  0  0  0  0
  1  2  2  0
  1  7  1  0
  3  2  1  0
  4  3  2  0
  5  4  1  0
  5  6  2  0
  6  1  1  0
  7  8  1  0
  8 10  1  0
  9  8  2  0
 10 12  1  0
 10 11  2  0
 11 13  1  0
 12 14  2  0
 14 13  1  0
 15 16  1  0
 15 12  1  0
 15 17  1  0
 16 17  1  0
 18  5  1  0
 19 18  1  0
 20 19  1  0
 20 22  1  0
 21 20  1  0
 23 21  1  0
 23 24  1  0
 24 22  1  0
M  RAD  8   2   2   3   2   4   2   6   2  11   2  15   2  16   3  17   3
M  RAD  5  19   3  20   2  21   3  23   3  24   3
M  END
>  <REMARK>  (1) 
 SMILES O=C(Nc1cccc(OCC2CCCO2)c1)c1c[nH]nc1C1CC1
 SMILES IDX 4 1 5 2 6 3 7 4 8 5 16 6 3 7 2 8 1 9 17 11 18 12 21 13 19 14
 SMILES IDX 20 15 22 17 23 18 24 19 9 20 10 21 11 22 12 23 15 24 13 25
 SMILES IDX 14 26
 H PARENT 3 10 19 16

>  <TORSDO>  (1) 
F 6

$$$$
