/home/pchatterjee/Documents/git/vs_workflow/DiffDock/diffdock_run/pdbqt_scrubbed/Z30167053.pdbqt
     RDKit          3D

 25 27  0  0  0  0  0  0  0  0999 V2000
   13.1149   62.6672   84.5068 C   0  0  0  0  0  2  0  0  0  0  0  0
   13.2080   63.7707   83.4955 C   0  0  0  0  0  0  0  0  0  0  0  0
   12.0100   64.5450   83.3186 N   0  0  0  0  0  0  0  0  0  0  0  0
   14.2389   64.0170   82.8440 O   0  0  0  0  0  0  0  0  0  0  0  0
   12.0704   65.6635   82.4123 C   0  0  0  0  0  2  0  0  0  0  0  0
   10.7959   66.4112   82.3662 C   0  0  0  0  0  0  0  0  0  0  0  0
    9.7429   65.9824   83.1611 C   0  0  0  0  0  3  0  0  0  0  0  0
   10.6717   67.5189   81.5381 C   0  0  0  0  0  3  0  0  0  0  0  0
    8.5576   66.6623   83.1305 C   0  0  0  0  0  3  0  0  0  0  0  0
    9.4356   68.1651   81.5563 C   0  0  0  0  0  3  0  0  0  0  0  0
    8.4209   67.7409   82.3311 N   0  0  0  0  0  0  0  0  0  0  0  0
   14.3817   62.1305   84.7384 O   0  0  0  0  0  0  0  0  0  0  0  0
   14.5237   61.1087   85.6677 C   0  0  0  0  0  0  0  0  0  0  0  0
   14.4445   61.3412   87.0425 C   0  0  0  0  0  3  0  0  0  0  0  0
   14.7502   59.8243   85.2144 C   0  0  0  0  0  3  0  0  0  0  0  0
   14.5906   60.2994   87.9426 C   0  0  0  0  0  3  0  0  0  0  0  0
   14.8967   58.7817   86.1069 C   0  0  0  0  0  3  0  0  0  0  0  0
   14.8168   59.0174   87.4845 C   0  0  0  0  0  0  0  0  0  0  0  0
   14.9743   57.9099   88.3694 N   0  0  0  0  0  0  0  0  0  0  0  0
   14.0715   57.8874   89.4945 C   0  0  0  0  0  0  0  0  0  0  0  0
   14.1283   56.9022   90.4553 C   0  0  0  0  0  3  0  0  0  0  0  0
   13.1555   58.8929   89.5609 C   0  0  0  0  0  3  0  0  0  0  0  0
   13.2393   56.9407   91.4996 C   0  0  0  0  0  3  0  0  0  0  0  0
   12.2728   58.9058   90.6245 C   0  0  0  0  0  3  0  0  0  0  0  0
   12.2864   57.9336   91.6243 C   0  0  0  0  0  3  0  0  0  0  0  0
  2  1  1  0
  2  3  1  0
  4  2  2  0
  5  6  1  0
  5  3  1  0
  6  8  2  0
  7  9  2  0
  7  6  1  0
  8 10  1  0
  9 11  1  0
 11 10  2  0
 12 13  1  0
 12  1  1  0
 13 15  2  0
 14 16  2  0
 14 13  1  0
 15 17  1  0
 16 18  1  0
 18 19  1  0
 18 17  2  0
 19 20  1  0
 20 21  2  0
 20 22  1  0
 21 23  1  0
 22 24  2  0
 23 25  2  0
 25 24  1  0
M  RAD  8   1   3   5   3   7   2   8   2   9   2  10   2  14   2  15   2
M  RAD  7  16   2  17   2  21   2  22   2  23   2  24   2  25   2
M  END
>  <REMARK>  (1) 
 SMILES O=C(COc1ccc(Nc2ccccc2)cc1)NCc1ccncc1
 SMILES IDX 3 1 2 2 18 3 1 4 19 6 20 7 21 8 25 9 22 10 24 11 23 12 4 13
 SMILES IDX 5 14 6 15 17 16 7 17 16 18 8 19 9 20 10 22 11 23 15 24 12 25
 SMILES IDX 14 26 13 27
 H PARENT 18 5 9 21

>  <TORSDO>  (1) 
F 7

$$$$
