/home/pchatterjee/Documents/git/vs_workflow/DiffDock/diffdock_run/pdbqt_scrubbed/Z30167053.pdbqt
     RDKit          3D

 25 27  0  0  0  0  0  0  0  0999 V2000
    7.5818   43.9777   49.2541 C   0  0  0  0  0  2  0  0  0  0  0  0
    8.9859   44.2709   49.6916 C   0  0  0  0  0  0  0  0  0  0  0  0
    9.1054   45.0279   50.9077 N   0  0  0  0  0  0  0  0  0  0  0  0
    9.9915   43.8955   49.0625 O   0  0  0  0  0  0  0  0  0  0  0  0
    8.0523   45.9625   51.2138 C   0  0  0  0  0  2  0  0  0  0  0  0
    8.3405   46.7444   52.4350 C   0  0  0  0  0  0  0  0  0  0  0  0
    7.2778   47.2696   53.1557 C   0  0  0  0  0  3  0  0  0  0  0  0
    9.6545   46.9400   52.8389 C   0  0  0  0  0  3  0  0  0  0  0  0
    7.5265   47.9950   54.2872 C   0  0  0  0  0  3  0  0  0  0  0  0
    9.8356   47.6892   54.0016 C   0  0  0  0  0  3  0  0  0  0  0  0
    8.7980   48.1940   54.6931 N   0  0  0  0  0  0  0  0  0  0  0  0
    7.3100   42.6190   49.4176 O   0  0  0  0  0  0  0  0  0  0  0  0
    6.0859   42.1185   48.9945 C   0  0  0  0  0  0  0  0  0  0  0  0
    5.1413   41.6149   49.8915 C   0  0  0  0  0  3  0  0  0  0  0  0
    5.7975   42.1205   47.6442 C   0  0  0  0  0  3  0  0  0  0  0  0
    3.9298   41.1230   49.4362 C   0  0  0  0  0  3  0  0  0  0  0  0
    4.5915   41.6315   47.1844 C   0  0  0  0  0  3  0  0  0  0  0  0
    3.6464   41.1273   48.0856 C   0  0  0  0  0  0  0  0  0  0  0  0
    2.4140   40.6324   47.5652 N   0  0  0  0  0  0  0  0  0  0  0  0
    2.2505   40.7657   46.1380 C   0  0  0  0  0  0  0  0  0  0  0  0
    2.9294   39.9629   45.2483 C   0  0  0  0  0  3  0  0  0  0  0  0
    1.3877   41.7287   45.7107 C   0  0  0  0  0  3  0  0  0  0  0  0
    2.7273   40.1429   43.9032 C   0  0  0  0  0  3  0  0  0  0  0  0
    1.2042   41.8870   44.3498 C   0  0  0  0  0  3  0  0  0  0  0  0
    1.8657   41.1020   43.4060 C   0  0  0  0  0  3  0  0  0  0  0  0
  2  1  1  0
  2  3  1  0
  4  2  2  0
  5  6  1  0
  5  3  1  0
  6  8  2  0
  7  9  2  0
  7  6  1  0
  8 10  1  0
  9 11  1  0
 11 10  2  0
 12 13  1  0
 12  1  1  0
 13 15  2  0
 14 16  2  0
 14 13  1  0
 15 17  1  0
 16 18  1  0
 18 19  1  0
 18 17  2  0
 19 20  1  0
 20 21  2  0
 20 22  1  0
 21 23  1  0
 22 24  2  0
 23 25  2  0
 25 24  1  0
M  RAD  8   1   3   5   3   7   2   8   2   9   2  10   2  14   2  15   2
M  RAD  7  16   2  17   2  21   2  22   2  23   2  24   2  25   2
M  END
>  <REMARK>  (1) 
 SMILES O=C(COc1ccc(Nc2ccccc2)cc1)NCc1ccncc1
 SMILES IDX 3 1 2 2 18 3 1 4 19 6 20 7 21 8 25 9 22 10 24 11 23 12 4 13
 SMILES IDX 5 14 6 15 17 16 7 17 16 18 8 19 9 20 10 22 11 23 15 24 12 25
 SMILES IDX 14 26 13 27
 H PARENT 18 5 9 21

>  <TORSDO>  (1) 
F 7

$$$$
