/home/pchatterjee/Documents/git/vs_workflow/DiffDock/diffdock_run/pdbqt_scrubbed/Z30167053.pdbqt
     RDKit          3D

 25 27  0  0  0  0  0  0  0  0999 V2000
    7.3250   43.9200   49.7668 C   0  0  0  0  0  2  0  0  0  0  0  0
    8.7475   44.3541   49.9586 C   0  0  0  0  0  0  0  0  0  0  0  0
    8.9801   45.2184   51.0834 N   0  0  0  0  0  0  0  0  0  0  0  0
    9.6771   44.0036   49.2096 O   0  0  0  0  0  0  0  0  0  0  0  0
    7.8601   45.9761   51.5810 C   0  0  0  0  0  2  0  0  0  0  0  0
    8.2532   46.9045   52.6622 C   0  0  0  0  0  0  0  0  0  0  0  0
    9.6022   47.1547   52.8676 C   0  0  0  0  0  3  0  0  0  0  0  0
    7.2789   47.5059   53.4477 C   0  0  0  0  0  3  0  0  0  0  0  0
    9.9829   48.0105   53.8630 C   0  0  0  0  0  3  0  0  0  0  0  0
    7.7376   48.3674   54.4444 C   0  0  0  0  0  3  0  0  0  0  0  0
    9.0482   48.6031   54.6351 N   0  0  0  0  0  0  0  0  0  0  0  0
    7.2921   42.6286   49.2396 O   0  0  0  0  0  0  0  0  0  0  0  0
    6.0724   42.0834   48.8616 C   0  0  0  0  0  0  0  0  0  0  0  0
    5.1786   41.5503   49.7929 C   0  0  0  0  0  3  0  0  0  0  0  0
    5.7366   42.0697   47.5224 C   0  0  0  0  0  3  0  0  0  0  0  0
    3.9700   41.0140   49.3823 C   0  0  0  0  0  3  0  0  0  0  0  0
    4.5332   41.5364   47.1071 C   0  0  0  0  0  3  0  0  0  0  0  0
    3.6390   41.0026   48.0426 C   0  0  0  0  0  0  0  0  0  0  0  0
    2.4074   40.4623   47.5676 N   0  0  0  0  0  0  0  0  0  0  0  0
    2.1070   40.7381   46.1837 C   0  0  0  0  0  0  0  0  0  0  0  0
    1.3076   41.7947   45.8077 C   0  0  0  0  0  3  0  0  0  0  0  0
    2.6551   39.8985   45.2622 C   0  0  0  0  0  3  0  0  0  0  0  0
    1.0622   42.0002   44.4735 C   0  0  0  0  0  3  0  0  0  0  0  0
    2.3903   40.1302   43.9255 C   0  0  0  0  0  3  0  0  0  0  0  0
    1.5883   41.1846   43.4900 C   0  0  0  0  0  3  0  0  0  0  0  0
  2  1  1  0
  2  3  1  0
  4  2  2  0
  5  6  1  0
  5  3  1  0
  6  8  2  0
  7  9  2  0
  7  6  1  0
  8 10  1  0
  9 11  1  0
 11 10  2  0
 12 13  1  0
 12  1  1  0
 13 15  2  0
 14 16  2  0
 14 13  1  0
 15 17  1  0
 16 18  1  0
 18 19  1  0
 18 17  2  0
 19 20  1  0
 20 21  2  0
 20 22  1  0
 21 23  1  0
 22 24  2  0
 23 25  2  0
 25 24  1  0
M  RAD  8   1   3   5   3   7   2   8   2   9   2  10   2  14   2  15   2
M  RAD  7  16   2  17   2  21   2  22   2  23   2  24   2  25   2
M  END
>  <REMARK>  (1) 
 SMILES O=C(COc1ccc(Nc2ccccc2)cc1)NCc1ccncc1
 SMILES IDX 3 1 2 2 18 3 1 4 19 6 20 7 21 8 25 9 22 10 24 11 23 12 4 13
 SMILES IDX 5 14 6 15 17 16 7 17 16 18 8 19 9 20 10 22 11 23 15 24 12 25
 SMILES IDX 14 26 13 27
 H PARENT 18 5 9 21

>  <TORSDO>  (1) 
F 7

$$$$
