/home/pchatterjee/Documents/git/vs_workflow/DiffDock/diffdock_run/pdbqt_scrubbed/Z30167053.pdbqt
     RDKit          3D

 25 27  0  0  0  0  0  0  0  0999 V2000
   11.4260   84.1103   71.0548 C   0  0  0  0  0  2  0  0  0  0  0  0
    9.9377   83.9354   71.1104 C   0  0  0  0  0  0  0  0  0  0  0  0
    9.3578   84.0172   72.4231 N   0  0  0  0  0  0  0  0  0  0  0  0
    9.2342   83.7329   70.1044 O   0  0  0  0  0  0  0  0  0  0  0  0
   10.2424   83.8640   73.5501 C   0  0  0  0  0  2  0  0  0  0  0  0
    9.5182   83.9243   74.8376 C   0  0  0  0  0  0  0  0  0  0  0  0
   10.2396   83.7876   76.0146 C   0  0  0  0  0  3  0  0  0  0  0  0
    8.1428   84.1145   74.8509 C   0  0  0  0  0  3  0  0  0  0  0  0
    9.5856   83.8408   77.2136 C   0  0  0  0  0  3  0  0  0  0  0  0
    7.5401   84.1589   76.1082 C   0  0  0  0  0  3  0  0  0  0  0  0
    8.2491   84.0251   77.2436 N   0  0  0  0  0  0  0  0  0  0  0  0
   11.7545   85.0584   70.0853 O   0  0  0  0  0  0  0  0  0  0  0  0
   13.0903   85.3680   69.8672 C   0  0  0  0  0  0  0  0  0  0  0  0
   13.5871   85.6495   68.5927 C   0  0  0  0  0  3  0  0  0  0  0  0
   13.9508   85.3973   70.9466 C   0  0  0  0  0  3  0  0  0  0  0  0
   14.9252   85.9547   68.4100 C   0  0  0  0  0  3  0  0  0  0  0  0
   15.2857   85.7008   70.7705 C   0  0  0  0  0  3  0  0  0  0  0  0
   15.7813   85.9827   69.4920 C   0  0  0  0  0  0  0  0  0  0  0  0
   17.1674   86.2911   69.3578 N   0  0  0  0  0  0  0  0  0  0  0  0
   18.0396   85.1521   69.2048 C   0  0  0  0  0  0  0  0  0  0  0  0
   17.5924   83.8619   69.3848 C   0  0  0  0  0  3  0  0  0  0  0  0
   19.3335   85.4158   68.8718 C   0  0  0  0  0  3  0  0  0  0  0  0
   18.4753   82.8242   69.2236 C   0  0  0  0  0  3  0  0  0  0  0  0
   20.2001   84.3503   68.7161 C   0  0  0  0  0  3  0  0  0  0  0  0
   19.8002   83.0252   68.8864 C   0  0  0  0  0  3  0  0  0  0  0  0
  2  1  1  0
  2  3  1  0
  4  2  2  0
  5  6  1  0
  5  3  1  0
  6  8  2  0
  7  9  2  0
  7  6  1  0
  8 10  1  0
  9 11  1  0
 11 10  2  0
 12 13  1  0
 12  1  1  0
 13 15  2  0
 14 16  2  0
 14 13  1  0
 15 17  1  0
 16 18  1  0
 18 19  1  0
 18 17  2  0
 19 20  1  0
 20 21  2  0
 20 22  1  0
 21 23  1  0
 22 24  2  0
 23 25  2  0
 25 24  1  0
M  RAD  8   1   3   5   3   7   2   8   2   9   2  10   2  14   2  15   2
M  RAD  7  16   2  17   2  21   2  22   2  23   2  24   2  25   2
M  END
>  <REMARK>  (1) 
 SMILES O=C(COc1ccc(Nc2ccccc2)cc1)NCc1ccncc1
 SMILES IDX 3 1 2 2 18 3 1 4 19 6 20 7 21 8 25 9 22 10 24 11 23 12 4 13
 SMILES IDX 5 14 6 15 17 16 7 17 16 18 8 19 9 20 10 22 11 23 15 24 12 25
 SMILES IDX 14 26 13 27
 H PARENT 18 5 9 21

>  <TORSDO>  (1) 
F 7

$$$$
