/home/pchatterjee/Documents/git/vs_workflow/DiffDock/diffdock_run/pdbqt_scrubbed/Z30167053.pdbqt
     RDKit          3D

 25 27  0  0  0  0  0  0  0  0999 V2000
   15.5696   63.4685   53.2805 C   0  0  0  0  0  2  0  0  0  0  0  0
   16.9583   63.3223   52.7338 C   0  0  0  0  0  0  0  0  0  0  0  0
   17.5515   62.0238   52.9021 N   0  0  0  0  0  0  0  0  0  0  0  0
   17.5731   64.2457   52.1705 O   0  0  0  0  0  0  0  0  0  0  0  0
   18.8938   61.8388   52.4119 C   0  0  0  0  0  2  0  0  0  0  0  0
   19.3621   60.4473   52.5851 C   0  0  0  0  0  0  0  0  0  0  0  0
   20.6242   60.1066   52.1207 C   0  0  0  0  0  3  0  0  0  0  0  0
   18.5424   59.5119   53.2025 C   0  0  0  0  0  3  0  0  0  0  0  0
   21.0726   58.8245   52.2728 C   0  0  0  0  0  3  0  0  0  0  0  0
   19.0628   58.2233   53.3246 C   0  0  0  0  0  3  0  0  0  0  0  0
   20.2881   57.9036   52.8708 N   0  0  0  0  0  0  0  0  0  0  0  0
   15.0707   64.7342   52.9707 O   0  0  0  0  0  0  0  0  0  0  0  0
   13.7792   65.0655   53.3581 C   0  0  0  0  0  0  0  0  0  0  0  0
   13.0885   64.3401   54.3314 C   0  0  0  0  0  3  0  0  0  0  0  0
   13.1622   66.1463   52.7601 C   0  0  0  0  0  3  0  0  0  0  0  0
   11.8011   64.6973   54.6946 C   0  0  0  0  0  3  0  0  0  0  0  0
   11.8790   66.5071   53.1181 C   0  0  0  0  0  3  0  0  0  0  0  0
   11.1888   65.7784   54.0939 C   0  0  0  0  0  0  0  0  0  0  0  0
    9.8649   66.1876   54.4319 N   0  0  0  0  0  0  0  0  0  0  0  0
    9.4784   67.4883   53.9417 C   0  0  0  0  0  0  0  0  0  0  0  0
    8.7832   67.6463   52.7632 C   0  0  0  0  0  3  0  0  0  0  0  0
    9.8360   68.5580   54.7047 C   0  0  0  0  0  3  0  0  0  0  0  0
    8.4469   68.9122   52.3549 C   0  0  0  0  0  3  0  0  0  0  0  0
    9.4835   69.8213   54.2681 C   0  0  0  0  0  3  0  0  0  0  0  0
    8.7802   70.0380   53.0835 C   0  0  0  0  0  3  0  0  0  0  0  0
  2  1  1  0
  2  3  1  0
  4  2  2  0
  5  6  1  0
  5  3  1  0
  6  8  2  0
  7  9  2  0
  7  6  1  0
  8 10  1  0
  9 11  1  0
 11 10  2  0
 12 13  1  0
 12  1  1  0
 13 15  2  0
 14 16  2  0
 14 13  1  0
 15 17  1  0
 16 18  1  0
 18 19  1  0
 18 17  2  0
 19 20  1  0
 20 21  2  0
 20 22  1  0
 21 23  1  0
 22 24  2  0
 23 25  2  0
 25 24  1  0
M  RAD  8   1   3   5   3   7   2   8   2   9   2  10   2  14   2  15   2
M  RAD  7  16   2  17   2  21   2  22   2  23   2  24   2  25   2
M  END
>  <REMARK>  (1) 
 SMILES O=C(COc1ccc(Nc2ccccc2)cc1)NCc1ccncc1
 SMILES IDX 3 1 2 2 18 3 1 4 19 6 20 7 21 8 25 9 22 10 24 11 23 12 4 13
 SMILES IDX 5 14 6 15 17 16 7 17 16 18 8 19 9 20 10 22 11 23 15 24 12 25
 SMILES IDX 14 26 13 27
 H PARENT 18 5 9 21

>  <TORSDO>  (1) 
F 7

$$$$
