/home/pchatterjee/Documents/git/vs_workflow/DiffDock/diffdock_run/pdbqt_scrubbed/Z30167053.pdbqt
     RDKit          3D

 25 27  0  0  0  0  0  0  0  0999 V2000
    4.1027   43.9491   51.0136 C   0  0  0  0  0  2  0  0  0  0  0  0
    4.3499   44.3963   52.4235 C   0  0  0  0  0  0  0  0  0  0  0  0
    5.3549   45.4122   52.5789 N   0  0  0  0  0  0  0  0  0  0  0  0
    3.7402   43.9348   53.4049 O   0  0  0  0  0  0  0  0  0  0  0  0
    6.7147   45.0542   52.2643 C   0  0  0  0  0  2  0  0  0  0  0  0
    7.6679   46.1282   52.6154 C   0  0  0  0  0  0  0  0  0  0  0  0
    7.2328   47.1657   53.4271 C   0  0  0  0  0  3  0  0  0  0  0  0
    8.9696   46.0844   52.1340 C   0  0  0  0  0  3  0  0  0  0  0  0
    8.1012   48.1669   53.7614 C   0  0  0  0  0  3  0  0  0  0  0  0
    9.8018   47.1375   52.5141 C   0  0  0  0  0  3  0  0  0  0  0  0
    9.3697   48.1389   53.3017 N   0  0  0  0  0  0  0  0  0  0  0  0
    4.3387   42.5784   50.9044 O   0  0  0  0  0  0  0  0  0  0  0  0
    4.2810   41.9797   49.6530 C   0  0  0  0  0  0  0  0  0  0  0  0
    3.0677   41.6541   49.0427 C   0  0  0  0  0  3  0  0  0  0  0  0
    5.4619   41.6993   48.9948 C   0  0  0  0  0  3  0  0  0  0  0  0
    3.0454   41.0575   47.7935 C   0  0  0  0  0  3  0  0  0  0  0  0
    5.4459   41.1047   47.7493 C   0  0  0  0  0  3  0  0  0  0  0  0
    4.2285   40.7793   47.1398 C   0  0  0  0  0  0  0  0  0  0  0  0
    4.2605   40.1661   45.8524 N   0  0  0  0  0  0  0  0  0  0  0  0
    3.3167   40.6919   44.8962 C   0  0  0  0  0  0  0  0  0  0  0  0
    3.0901   42.0439   44.7634 C   0  0  0  0  0  3  0  0  0  0  0  0
    2.6572   39.7818   44.1273 C   0  0  0  0  0  3  0  0  0  0  0  0
    2.1784   42.4765   43.8338 C   0  0  0  0  0  3  0  0  0  0  0  0
    1.7445   40.2470   43.1993 C   0  0  0  0  0  3  0  0  0  0  0  0
    1.4769   41.6043   43.0235 C   0  0  0  0  0  3  0  0  0  0  0  0
  2  1  1  0
  2  3  1  0
  4  2  2  0
  5  6  1  0
  5  3  1  0
  6  8  2  0
  7  9  2  0
  7  6  1  0
  8 10  1  0
  9 11  1  0
 11 10  2  0
 12 13  1  0
 12  1  1  0
 13 15  2  0
 14 16  2  0
 14 13  1  0
 15 17  1  0
 16 18  1  0
 18 19  1  0
 18 17  2  0
 19 20  1  0
 20 21  2  0
 20 22  1  0
 21 23  1  0
 22 24  2  0
 23 25  2  0
 25 24  1  0
M  RAD  8   1   3   5   3   7   2   8   2   9   2  10   2  14   2  15   2
M  RAD  7  16   2  17   2  21   2  22   2  23   2  24   2  25   2
M  END
>  <REMARK>  (1) 
 SMILES O=C(COc1ccc(Nc2ccccc2)cc1)NCc1ccncc1
 SMILES IDX 3 1 2 2 18 3 1 4 19 6 20 7 21 8 25 9 22 10 24 11 23 12 4 13
 SMILES IDX 5 14 6 15 17 16 7 17 16 18 8 19 9 20 10 22 11 23 15 24 12 25
 SMILES IDX 14 26 13 27
 H PARENT 18 5 9 21

>  <TORSDO>  (1) 
F 7

$$$$
