/home/pchatterjee/Documents/git/vs_workflow/DiffDock/diffdock_run/pdbqt_scrubbed/Z30167053.pdbqt
     RDKit          3D

 25 27  0  0  0  0  0  0  0  0999 V2000
    7.3250   44.0327   49.6982 C   0  0  0  0  0  2  0  0  0  0  0  0
    8.7418   44.4901   49.8778 C   0  0  0  0  0  0  0  0  0  0  0  0
    8.9421   45.4849   50.8958 N   0  0  0  0  0  0  0  0  0  0  0  0
    9.6927   44.0534   49.2047 O   0  0  0  0  0  0  0  0  0  0  0  0
    7.7688   46.0421   51.5193 C   0  0  0  0  0  2  0  0  0  0  0  0
    8.1093   47.0635   52.5324 C   0  0  0  0  0  0  0  0  0  0  0  0
    9.4437   47.3895   52.7271 C   0  0  0  0  0  3  0  0  0  0  0  0
    7.1016   47.6750   53.2661 C   0  0  0  0  0  3  0  0  0  0  0  0
    9.7760   48.3318   53.6597 C   0  0  0  0  0  3  0  0  0  0  0  0
    7.5115   48.6266   54.2002 C   0  0  0  0  0  3  0  0  0  0  0  0
    8.8083   48.9353   54.3811 N   0  0  0  0  0  0  0  0  0  0  0  0
    7.3073   42.7776   49.0891 O   0  0  0  0  0  0  0  0  0  0  0  0
    6.0874   42.2064   48.7521 C   0  0  0  0  0  0  0  0  0  0  0  0
    5.1646   41.8050   49.7205 C   0  0  0  0  0  3  0  0  0  0  0  0
    5.7810   42.0317   47.4172 C   0  0  0  0  0  3  0  0  0  0  0  0
    3.9567   41.2385   49.3504 C   0  0  0  0  0  3  0  0  0  0  0  0
    4.5784   41.4676   47.0422 C   0  0  0  0  0  3  0  0  0  0  0  0
    3.6551   41.0661   48.0148 C   0  0  0  0  0  0  0  0  0  0  0  0
    2.4255   40.4880   47.5809 N   0  0  0  0  0  0  0  0  0  0  0  0
    1.9309   40.9714   46.3147 C   0  0  0  0  0  0  0  0  0  0  0  0
    2.4815   40.5729   45.1167 C   0  0  0  0  0  3  0  0  0  0  0  0
    0.8876   41.8453   46.3616 C   0  0  0  0  0  3  0  0  0  0  0  0
    1.9625   41.0714   43.9486 C   0  0  0  0  0  3  0  0  0  0  0  0
    0.3857   42.3309   45.1686 C   0  0  0  0  0  3  0  0  0  0  0  0
    0.9052   41.9608   43.9285 C   0  0  0  0  0  3  0  0  0  0  0  0
  2  1  1  0
  2  3  1  0
  4  2  2  0
  5  6  1  0
  5  3  1  0
  6  8  2  0
  7  9  2  0
  7  6  1  0
  8 10  1  0
  9 11  1  0
 11 10  2  0
 12 13  1  0
 12  1  1  0
 13 15  2  0
 14 16  2  0
 14 13  1  0
 15 17  1  0
 16 18  1  0
 18 19  1  0
 18 17  2  0
 19 20  1  0
 20 21  2  0
 20 22  1  0
 21 23  1  0
 22 24  2  0
 23 25  2  0
 25 24  1  0
M  RAD  8   1   3   5   3   7   2   8   2   9   2  10   2  14   2  15   2
M  RAD  7  16   2  17   2  21   2  22   2  23   2  24   2  25   2
M  END
>  <REMARK>  (1) 
 SMILES O=C(COc1ccc(Nc2ccccc2)cc1)NCc1ccncc1
 SMILES IDX 3 1 2 2 18 3 1 4 19 6 20 7 21 8 25 9 22 10 24 11 23 12 4 13
 SMILES IDX 5 14 6 15 17 16 7 17 16 18 8 19 9 20 10 22 11 23 15 24 12 25
 SMILES IDX 14 26 13 27
 H PARENT 18 5 9 21

>  <TORSDO>  (1) 
F 7

$$$$
