/home/pchatterjee/Documents/git/vs_workflow/DiffDock/diffdock_run/pdbqt_scrubbed/Z30167053.pdbqt
     RDKit          3D

 25 27  0  0  0  0  0  0  0  0999 V2000
   13.4627   63.2247   84.0984 C   0  0  0  0  0  2  0  0  0  0  0  0
   13.6678   64.2805   83.0534 C   0  0  0  0  0  0  0  0  0  0  0  0
   12.6249   65.2656   82.9620 N   0  0  0  0  0  0  0  0  0  0  0  0
   14.6623   64.3210   82.3070 O   0  0  0  0  0  0  0  0  0  0  0  0
   12.6294   66.1320   81.8108 C   0  0  0  0  0  2  0  0  0  0  0  0
   11.5607   67.1513   81.8778 C   0  0  0  0  0  0  0  0  0  0  0  0
   11.6528   68.2677   81.0594 C   0  0  0  0  0  3  0  0  0  0  0  0
   10.4927   66.9796   82.7483 C   0  0  0  0  0  3  0  0  0  0  0  0
   10.6732   69.2197   81.1088 C   0  0  0  0  0  3  0  0  0  0  0  0
    9.5298   67.9889   82.7473 C   0  0  0  0  0  3  0  0  0  0  0  0
    9.6287   69.0675   81.9495 N   0  0  0  0  0  0  0  0  0  0  0  0
   14.6258   62.4671   84.2392 O   0  0  0  0  0  0  0  0  0  0  0  0
   14.6725   61.4732   85.2076 C   0  0  0  0  0  0  0  0  0  0  0  0
   14.3374   61.7212   86.5406 C   0  0  0  0  0  3  0  0  0  0  0  0
   15.0628   60.2016   84.8372 C   0  0  0  0  0  3  0  0  0  0  0  0
   14.3946   60.7071   87.4816 C   0  0  0  0  0  3  0  0  0  0  0  0
   15.1217   59.1868   85.7708 C   0  0  0  0  0  3  0  0  0  0  0  0
   14.7854   59.4379   87.1063 C   0  0  0  0  0  0  0  0  0  0  0  0
   14.8609   58.3590   88.0361 N   0  0  0  0  0  0  0  0  0  0  0  0
   14.2245   58.5972   89.3088 C   0  0  0  0  0  0  0  0  0  0  0  0
   14.1142   57.6116   90.2646 C   0  0  0  0  0  3  0  0  0  0  0  0
   13.7356   59.8504   89.5204 C   0  0  0  0  0  3  0  0  0  0  0  0
   13.4969   57.9058   91.4540 C   0  0  0  0  0  3  0  0  0  0  0  0
   13.1187   60.1176   90.7283 C   0  0  0  0  0  3  0  0  0  0  0  0
   12.9801   59.1573   91.7300 C   0  0  0  0  0  3  0  0  0  0  0  0
  2  1  1  0
  2  3  1  0
  4  2  2  0
  5  6  1  0
  5  3  1  0
  6  8  2  0
  7  9  2  0
  7  6  1  0
  8 10  1  0
  9 11  1  0
 11 10  2  0
 12 13  1  0
 12  1  1  0
 13 15  2  0
 14 16  2  0
 14 13  1  0
 15 17  1  0
 16 18  1  0
 18 19  1  0
 18 17  2  0
 19 20  1  0
 20 21  2  0
 20 22  1  0
 21 23  1  0
 22 24  2  0
 23 25  2  0
 25 24  1  0
M  RAD  8   1   3   5   3   7   2   8   2   9   2  10   2  14   2  15   2
M  RAD  7  16   2  17   2  21   2  22   2  23   2  24   2  25   2
M  END
>  <REMARK>  (1) 
 SMILES O=C(COc1ccc(Nc2ccccc2)cc1)NCc1ccncc1
 SMILES IDX 3 1 2 2 18 3 1 4 19 6 20 7 21 8 25 9 22 10 24 11 23 12 4 13
 SMILES IDX 5 14 6 15 17 16 7 17 16 18 8 19 9 20 10 22 11 23 15 24 12 25
 SMILES IDX 14 26 13 27
 H PARENT 18 5 9 21

>  <TORSDO>  (1) 
F 7

$$$$
