/home/pchatterjee/Documents/git/vs_workflow/DiffDock/diffdock_run/pdbqt_scrubbed/Z30167053.pdbqt
     RDKit          3D

 25 27  0  0  0  0  0  0  0  0999 V2000
    7.9172   84.2038   72.8821 C   0  0  0  0  0  2  0  0  0  0  0  0
    8.5935   85.3258   72.1523 C   0  0  0  0  0  0  0  0  0  0  0  0
    9.8734   85.0050   71.5821 N   0  0  0  0  0  0  0  0  0  0  0  0
    8.1006   86.4622   72.0359 O   0  0  0  0  0  0  0  0  0  0  0  0
   10.9708   85.8921   71.8732 C   0  0  0  0  0  2  0  0  0  0  0  0
   12.1182   85.6731   70.9671 C   0  0  0  0  0  0  0  0  0  0  0  0
   12.1030   84.5683   70.1282 C   0  0  0  0  0  3  0  0  0  0  0  0
   13.1823   86.5651   70.9680 C   0  0  0  0  0  3  0  0  0  0  0  0
   13.1559   84.3509   69.2841 C   0  0  0  0  0  3  0  0  0  0  0  0
   14.2225   86.2828   70.0823 C   0  0  0  0  0  3  0  0  0  0  0  0
   14.1977   85.2085   69.2730 N   0  0  0  0  0  0  0  0  0  0  0  0
    8.8547   83.4986   73.6375 O   0  0  0  0  0  0  0  0  0  0  0  0
    8.4281   82.4391   74.4270 C   0  0  0  0  0  0  0  0  0  0  0  0
    7.2421   81.7499   74.1644 C   0  0  0  0  0  3  0  0  0  0  0  0
    9.2033   82.0582   75.5042 C   0  0  0  0  0  3  0  0  0  0  0  0
    6.8455   80.6974   74.9717 C   0  0  0  0  0  3  0  0  0  0  0  0
    8.8130   81.0098   76.3126 C   0  0  0  0  0  3  0  0  0  0  0  0
    7.6239   80.3206   76.0472 C   0  0  0  0  0  0  0  0  0  0  0  0
    7.2605   79.2440   76.9093 N   0  0  0  0  0  0  0  0  0  0  0  0
    7.8099   79.3096   78.2417 C   0  0  0  0  0  0  0  0  0  0  0  0
    7.5474   78.3430   79.1870 C   0  0  0  0  0  3  0  0  0  0  0  0
    8.6049   80.3795   78.5210 C   0  0  0  0  0  3  0  0  0  0  0  0
    8.1024   78.4668   80.4357 C   0  0  0  0  0  3  0  0  0  0  0  0
    9.1501   80.4776   79.7874 C   0  0  0  0  0  3  0  0  0  0  0  0
    8.9172   79.5279   80.7816 C   0  0  0  0  0  3  0  0  0  0  0  0
  2  1  1  0
  2  3  1  0
  4  2  2  0
  5  6  1  0
  5  3  1  0
  6  8  2  0
  7  9  2  0
  7  6  1  0
  8 10  1  0
  9 11  1  0
 11 10  2  0
 12 13  1  0
 12  1  1  0
 13 15  2  0
 14 16  2  0
 14 13  1  0
 15 17  1  0
 16 18  1  0
 18 19  1  0
 18 17  2  0
 19 20  1  0
 20 21  2  0
 20 22  1  0
 21 23  1  0
 22 24  2  0
 23 25  2  0
 25 24  1  0
M  RAD  8   1   3   5   3   7   2   8   2   9   2  10   2  14   2  15   2
M  RAD  7  16   2  17   2  21   2  22   2  23   2  24   2  25   2
M  END
>  <REMARK>  (1) 
 SMILES O=C(COc1ccc(Nc2ccccc2)cc1)NCc1ccncc1
 SMILES IDX 3 1 2 2 18 3 1 4 19 6 20 7 21 8 25 9 22 10 24 11 23 12 4 13
 SMILES IDX 5 14 6 15 17 16 7 17 16 18 8 19 9 20 10 22 11 23 15 24 12 25
 SMILES IDX 14 26 13 27
 H PARENT 18 5 9 21

>  <TORSDO>  (1) 
F 7

$$$$
