/home/pchatterjee/Documents/git/vs_workflow/DiffDock/diffdock_run/pdbqt_scrubbed/Z30167053.pdbqt
     RDKit          3D

 25 27  0  0  0  0  0  0  0  0999 V2000
    6.9219   43.9132   49.4893 C   0  0  0  0  0  2  0  0  0  0  0  0
    6.5488   44.2798   50.8947 C   0  0  0  0  0  0  0  0  0  0  0  0
    7.4796   45.1397   51.5733 N   0  0  0  0  0  0  0  0  0  0  0  0
    5.5122   43.8798   51.4543 O   0  0  0  0  0  0  0  0  0  0  0  0
    6.9368   46.2366   52.3339 C   0  0  0  0  0  2  0  0  0  0  0  0
    7.9883   46.9942   53.0450 C   0  0  0  0  0  0  0  0  0  0  0  0
    9.3140   46.7820   52.6956 C   0  0  0  0  0  3  0  0  0  0  0  0
    7.6390   47.8969   54.0406 C   0  0  0  0  0  3  0  0  0  0  0  0
   10.2987   47.4743   53.3432 C   0  0  0  0  0  3  0  0  0  0  0  0
    8.6935   48.5685   54.6596 C   0  0  0  0  0  3  0  0  0  0  0  0
    9.9757   48.3551   54.3131 N   0  0  0  0  0  0  0  0  0  0  0  0
    6.7865   42.5364   49.3084 O   0  0  0  0  0  0  0  0  0  0  0  0
    5.6455   42.0446   48.6886 C   0  0  0  0  0  0  0  0  0  0  0  0
    5.4996   42.0417   47.2996 C   0  0  0  0  0  3  0  0  0  0  0  0
    4.6258   41.5440   49.4734 C   0  0  0  0  0  3  0  0  0  0  0  0
    4.3484   41.5438   46.7134 C   0  0  0  0  0  3  0  0  0  0  0  0
    3.4758   41.0463   48.8947 C   0  0  0  0  0  3  0  0  0  0  0  0
    3.3320   41.0444   47.5022 C   0  0  0  0  0  0  0  0  0  0  0  0
    2.1266   40.5204   46.9485 N   0  0  0  0  0  0  0  0  0  0  0  0
    1.9622   40.7222   45.5294 C   0  0  0  0  0  0  0  0  0  0  0  0
    2.6834   40.0031   44.6023 C   0  0  0  0  0  3  0  0  0  0  0  0
    1.0544   41.6633   45.1490 C   0  0  0  0  0  3  0  0  0  0  0  0
    2.4778   40.2452   43.2676 C   0  0  0  0  0  3  0  0  0  0  0  0
    0.8685   41.8856   43.7974 C   0  0  0  0  0  3  0  0  0  0  0  0
    1.5717   41.1862   42.8171 C   0  0  0  0  0  3  0  0  0  0  0  0
  2  1  1  0
  2  3  1  0
  4  2  2  0
  5  6  1  0
  5  3  1  0
  6  8  2  0
  7  9  2  0
  7  6  1  0
  8 10  1  0
  9 11  1  0
 11 10  2  0
 12 13  1  0
 12  1  1  0
 13 15  2  0
 14 16  2  0
 14 13  1  0
 15 17  1  0
 16 18  1  0
 18 19  1  0
 18 17  2  0
 19 20  1  0
 20 21  2  0
 20 22  1  0
 21 23  1  0
 22 24  2  0
 23 25  2  0
 25 24  1  0
M  RAD  8   1   3   5   3   7   2   8   2   9   2  10   2  14   2  15   2
M  RAD  7  16   2  17   2  21   2  22   2  23   2  24   2  25   2
M  END
>  <REMARK>  (1) 
 SMILES O=C(COc1ccc(Nc2ccccc2)cc1)NCc1ccncc1
 SMILES IDX 3 1 2 2 18 3 1 4 19 6 20 7 21 8 25 9 22 10 24 11 23 12 4 13
 SMILES IDX 5 14 6 15 17 16 7 17 16 18 8 19 9 20 10 22 11 23 15 24 12 25
 SMILES IDX 14 26 13 27
 H PARENT 18 5 9 21

>  <TORSDO>  (1) 
F 7

$$$$
