/home/pchatterjee/Documents/git/vs_workflow/DiffDock/diffdock_run/pdbqt_scrubbed/Z1127203562.pdbqt
     RDKit          3D

 25 27  0  0  0  0  0  0  0  0999 V2000
    4.4762   42.3830   49.9453 N   0  0  0  0  0  0  0  0  0  0  0  0
    3.5523   41.2701   50.0458 C   0  0  0  0  0  3  0  0  0  0  0  0
    3.2635   40.6744   48.6876 C   0  0  0  0  0  1  0  0  0  0  0  0
    4.2774   40.1854   50.8369 C   0  0  0  0  0  1  0  0  0  0  0  0
    5.7511   42.2616   49.2896 C   0  0  0  0  0  2  0  0  0  0  0  0
    6.6665   43.2679   49.8873 C   0  0  0  0  0  0  0  0  0  0  0  0
    6.2939   44.1415   50.8317 N   0  0  0  0  0  0  0  0  0  0  0  0
    7.9476   43.2850   49.4361 N   0  0  0  0  0  0  0  0  0  0  0  0
    7.1444   45.0405   51.3536 C   0  0  0  0  0  0  0  0  0  0  0  0
    8.8401   44.1737   49.9332 C   0  0  0  0  0  0  0  0  0  0  0  0
    6.7693   45.9449   52.3274 C   0  0  0  0  0  3  0  0  0  0  0  0
    8.4526   45.0860   50.9188 C   0  0  0  0  0  0  0  0  0  0  0  0
    7.7061   46.8274   52.8026 C   0  0  0  0  0  3  0  0  0  0  0  0
    9.3910   45.9552   51.3813 C   0  0  0  0  0  3  0  0  0  0  0  0
    9.0238   46.8668   52.3588 C   0  0  0  0  0  3  0  0  0  0  0  0
   10.0320   44.1926   49.5162 O   0  0  0  0  0  0  0  0  0  0  0  0
    4.1179   43.6378   50.5104 C   0  0  0  0  0  0  0  0  0  0  0  0
    3.9776   43.8200   51.9035 N   0  0  0  0  0  0  0  0  0  0  0  0
    3.9069   44.6575   49.7813 O   0  0  0  0  0  0  0  0  0  0  0  0
    3.2238   44.9439   52.4645 C   0  0  0  0  0  2  0  0  0  0  0  0
    4.2227   45.9631   52.9113 C   0  0  0  0  0  3  0  0  0  0  0  0
    3.6544   47.2888   53.2896 C   0  0  0  0  0  2  0  0  0  0  0  0
    4.9812   45.4423   54.0928 C   0  0  0  0  0  2  0  0  0  0  0  0
    4.4861   47.7294   54.4837 C   0  0  0  0  0  2  0  0  0  0  0  0
    5.5968   46.7230   54.6460 C   0  0  0  0  0  2  0  0  0  0  0  0
  1  2  1  0
  1 17  1  0
  2  3  1  0
  4  2  1  0
  5  1  1  0
  5  6  1  0
  6  8  1  0
  7  6  2  0
  7  9  1  0
  8 10  1  0
  9 12  2  0
 10 16  2  0
 11  9  1  0
 11 13  2  0
 12 10  1  0
 12 14  1  0
 13 15  1  0
 15 14  2  0
 17 19  2  0
 18 17  1  0
 18 20  1  0
 21 20  1  0
 21 22  1  0
 21 23  1  0
 22 24  1  0
 23 25  1  0
 24 25  1  0
M  RAD  8   2   2   3   2   4   2   5   3  11   2  13   2  14   2  15   2
M  RAD  6  20   3  21   2  22   3  23   3  24   3  25   3
M  END
>  <REMARK>  (1) 
 SMILES CC(C)N(Cc1nc2ccccc2c(=O)[nH]1)C(=O)NCC1CCCC1
 SMILES IDX 4 1 2 2 1 3 3 4 5 5 6 6 7 7 16 8 8 9 14 10 9 11 13 12 10 13
 SMILES IDX 12 14 11 15 15 17 17 18 19 19 18 20 20 22 21 23 22 24 25 25
 SMILES IDX 23 26 24 27
 H PARENT 16 16 19 21

>  <TORSDO>  (1) 
F 6

$$$$
