/home/pchatterjee/Documents/git/vs_workflow/DiffDock/diffdock_run/pdbqt_scrubbed/Z1127203562.pdbqt
     RDKit          3D

 25 27  0  0  0  0  0  0  0  0999 V2000
    3.7066   44.7554   52.6957 N   0  0  0  0  0  0  0  0  0  0  0  0
    3.1099   44.4140   53.9722 C   0  0  0  0  0  3  0  0  0  0  0  0
    3.7948   43.2194   54.5942 C   0  0  0  0  0  1  0  0  0  0  0  0
    3.3898   45.5918   54.9010 C   0  0  0  0  0  1  0  0  0  0  0  0
    3.9516   46.1187   52.3062 C   0  0  0  0  0  2  0  0  0  0  0  0
    5.4220   46.3324   52.3026 C   0  0  0  0  0  0  0  0  0  0  0  0
    6.2657   45.6723   51.4987 N   0  0  0  0  0  0  0  0  0  0  0  0
    5.9161   47.2530   53.1707 N   0  0  0  0  0  0  0  0  0  0  0  0
    7.5914   45.8871   51.5179 C   0  0  0  0  0  0  0  0  0  0  0  0
    7.2458   47.5027   53.2252 C   0  0  0  0  0  0  0  0  0  0  0  0
    8.4689   45.2114   50.6930 C   0  0  0  0  0  3  0  0  0  0  0  0
    8.1276   46.8146   52.3868 C   0  0  0  0  0  0  0  0  0  0  0  0
    9.8080   45.4961   50.7818 C   0  0  0  0  0  3  0  0  0  0  0  0
    9.4524   47.1062   52.4849 C   0  0  0  0  0  3  0  0  0  0  0  0
   10.3409   46.4332   51.6609 C   0  0  0  0  0  3  0  0  0  0  0  0
    7.7089   48.3578   54.0309 O   0  0  0  0  0  0  0  0  0  0  0  0
    4.0639   43.7151   51.7943 C   0  0  0  0  0  0  0  0  0  0  0  0
    5.2099   43.7952   50.9733 N   0  0  0  0  0  0  0  0  0  0  0  0
    3.3627   42.6603   51.6874 O   0  0  0  0  0  0  0  0  0  0  0  0
    5.7937   42.6091   50.3422 C   0  0  0  0  0  2  0  0  0  0  0  0
    5.2526   42.5413   48.9498 C   0  0  0  0  0  3  0  0  0  0  0  0
    5.9714   41.6119   48.0317 C   0  0  0  0  0  2  0  0  0  0  0  0
    3.8161   42.1199   48.9864 C   0  0  0  0  0  2  0  0  0  0  0  0
    4.8711   40.9892   47.1873 C   0  0  0  0  0  2  0  0  0  0  0  0
    3.5875   41.6972   47.5392 C   0  0  0  0  0  2  0  0  0  0  0  0
  1  2  1  0
  1 17  1  0
  2  3  1  0
  4  2  1  0
  5  1  1  0
  5  6  1  0
  6  8  1  0
  7  6  2  0
  7  9  1  0
  8 10  1  0
  9 12  2  0
 10 16  2  0
 11  9  1  0
 11 13  2  0
 12 10  1  0
 12 14  1  0
 13 15  1  0
 15 14  2  0
 17 19  2  0
 18 17  1  0
 18 20  1  0
 21 20  1  0
 21 22  1  0
 21 23  1  0
 22 24  1  0
 23 25  1  0
 24 25  1  0
M  RAD  8   2   2   3   2   4   2   5   3  11   2  13   2  14   2  15   2
M  RAD  6  20   3  21   2  22   3  23   3  24   3  25   3
M  END
>  <REMARK>  (1) 
 SMILES CC(C)N(Cc1nc2ccccc2c(=O)[nH]1)C(=O)NCC1CCCC1
 SMILES IDX 4 1 2 2 1 3 3 4 5 5 6 6 7 7 16 8 8 9 14 10 9 11 13 12 10 13
 SMILES IDX 12 14 11 15 15 17 17 18 19 19 18 20 20 22 21 23 22 24 25 25
 SMILES IDX 23 26 24 27
 H PARENT 16 16 19 21

>  <TORSDO>  (1) 
F 6

$$$$
