/home/pchatterjee/Documents/git/vs_workflow/DiffDock/diffdock_run/pdbqt_scrubbed/Z1127203562.pdbqt
     RDKit          3D

 25 27  0  0  0  0  0  0  0  0999 V2000
    4.4291   41.5628   49.4893 N   0  0  0  0  0  0  0  0  0  0  0  0
    4.1839   41.0638   50.8283 C   0  0  0  0  0  3  0  0  0  0  0  0
    3.9643   42.1973   51.8029 C   0  0  0  0  0  1  0  0  0  0  0  0
    2.8637   40.3015   50.7631 C   0  0  0  0  0  1  0  0  0  0  0  0
    5.7429   41.5655   48.9028 C   0  0  0  0  0  2  0  0  0  0  0  0
    6.5019   42.6974   49.4950 C   0  0  0  0  0  0  0  0  0  0  0  0
    5.9644   43.5938   50.3323 N   0  0  0  0  0  0  0  0  0  0  0  0
    7.8121   42.8099   49.1544 N   0  0  0  0  0  0  0  0  0  0  0  0
    6.6760   44.6073   50.8523 C   0  0  0  0  0  0  0  0  0  0  0  0
    8.5687   43.8156   49.6541 C   0  0  0  0  0  0  0  0  0  0  0  0
    6.1304   45.5362   51.7163 C   0  0  0  0  0  3  0  0  0  0  0  0
    8.0089   44.7519   50.5282 C   0  0  0  0  0  0  0  0  0  0  0  0
    6.9335   46.5386   52.1984 C   0  0  0  0  0  3  0  0  0  0  0  0
    8.8159   45.7405   50.9988 C   0  0  0  0  0  3  0  0  0  0  0  0
    8.2772   46.6775   51.8666 C   0  0  0  0  0  3  0  0  0  0  0  0
    9.7870   43.9235   49.3399 O   0  0  0  0  0  0  0  0  0  0  0  0
    3.3412   42.0673   48.7249 C   0  0  0  0  0  0  0  0  0  0  0  0
    3.0305   41.5664   47.4418 N   0  0  0  0  0  0  0  0  0  0  0  0
    2.5957   42.9976   49.1660 O   0  0  0  0  0  0  0  0  0  0  0  0
    1.6971   41.7183   46.8543 C   0  0  0  0  0  2  0  0  0  0  0  0
    1.8717   42.4187   45.5446 C   0  0  0  0  0  3  0  0  0  0  0  0
    2.8036   41.7563   44.5874 C   0  0  0  0  0  2  0  0  0  0  0  0
    0.5447   42.5539   44.8638 C   0  0  0  0  0  2  0  0  0  0  0  0
    2.1570   41.9624   43.2269 C   0  0  0  0  0  2  0  0  0  0  0  0
    0.9690   42.8674   43.4331 C   0  0  0  0  0  2  0  0  0  0  0  0
  1  2  1  0
  1 17  1  0
  2  3  1  0
  4  2  1  0
  5  1  1  0
  5  6  1  0
  6  8  1  0
  7  6  2  0
  7  9  1  0
  8 10  1  0
  9 12  2  0
 10 16  2  0
 11  9  1  0
 11 13  2  0
 12 10  1  0
 12 14  1  0
 13 15  1  0
 15 14  2  0
 17 19  2  0
 18 17  1  0
 18 20  1  0
 21 20  1  0
 21 22  1  0
 21 23  1  0
 22 24  1  0
 23 25  1  0
 24 25  1  0
M  RAD  8   2   2   3   2   4   2   5   3  11   2  13   2  14   2  15   2
M  RAD  6  20   3  21   2  22   3  23   3  24   3  25   3
M  END
>  <REMARK>  (1) 
 SMILES CC(C)N(Cc1nc2ccccc2c(=O)[nH]1)C(=O)NCC1CCCC1
 SMILES IDX 4 1 2 2 1 3 3 4 5 5 6 6 7 7 16 8 8 9 14 10 9 11 13 12 10 13
 SMILES IDX 12 14 11 15 15 17 17 18 19 19 18 20 20 22 21 23 22 24 25 25
 SMILES IDX 23 26 24 27
 H PARENT 16 16 19 21

>  <TORSDO>  (1) 
F 6

$$$$
