/home/pchatterjee/Documents/git/vs_workflow/DiffDock/diffdock_run/pdbqt_scrubbed/Z1127203562.pdbqt
     RDKit          3D

 25 27  0  0  0  0  0  0  0  0999 V2000
    4.7085   41.9491   49.1435 N   0  0  0  0  0  0  0  0  0  0  0  0
    3.9948   42.1519   47.8979 C   0  0  0  0  0  3  0  0  0  0  0  0
    4.7602   41.5769   46.7289 C   0  0  0  0  0  1  0  0  0  0  0  0
    2.7111   41.3341   48.0051 C   0  0  0  0  0  1  0  0  0  0  0  0
    6.1159   41.6523   49.1790 C   0  0  0  0  0  2  0  0  0  0  0  0
    6.8138   42.8302   49.7562 C   0  0  0  0  0  0  0  0  0  0  0  0
    6.2871   43.6118   50.7079 N   0  0  0  0  0  0  0  0  0  0  0  0
    8.0535   43.1113   49.2776 N   0  0  0  0  0  0  0  0  0  0  0  0
    6.9424   44.6708   51.2109 C   0  0  0  0  0  0  0  0  0  0  0  0
    8.7515   44.1689   49.7550 C   0  0  0  0  0  0  0  0  0  0  0  0
    6.4075   45.4822   52.1920 C   0  0  0  0  0  3  0  0  0  0  0  0
    8.2031   44.9856   50.7481 C   0  0  0  0  0  0  0  0  0  0  0  0
    7.1497   46.5428   52.6465 C   0  0  0  0  0  3  0  0  0  0  0  0
    8.9493   46.0335   51.1898 C   0  0  0  0  0  3  0  0  0  0  0  0
    8.4208   46.8536   52.1745 C   0  0  0  0  0  3  0  0  0  0  0  0
    9.9043   44.4335   49.3125 O   0  0  0  0  0  0  0  0  0  0  0  0
    4.0017   42.0451   50.3738 C   0  0  0  0  0  0  0  0  0  0  0  0
    3.1427   43.1279   50.6624 N   0  0  0  0  0  0  0  0  0  0  0  0
    4.1129   41.1544   51.2738 O   0  0  0  0  0  0  0  0  0  0  0  0
    2.7778   43.4808   52.0366 C   0  0  0  0  0  2  0  0  0  0  0  0
    3.4065   44.8051   52.3315 C   0  0  0  0  0  3  0  0  0  0  0  0
    3.1067   45.8856   51.3486 C   0  0  0  0  0  2  0  0  0  0  0  0
    2.9646   45.2847   53.6796 C   0  0  0  0  0  2  0  0  0  0  0  0
    2.9553   47.1375   52.1978 C   0  0  0  0  0  2  0  0  0  0  0  0
    3.3295   46.7636   53.6095 C   0  0  0  0  0  2  0  0  0  0  0  0
  1  2  1  0
  1 17  1  0
  2  3  1  0
  4  2  1  0
  5  1  1  0
  5  6  1  0
  6  8  1  0
  7  6  2  0
  7  9  1  0
  8 10  1  0
  9 12  2  0
 10 16  2  0
 11  9  1  0
 11 13  2  0
 12 10  1  0
 12 14  1  0
 13 15  1  0
 15 14  2  0
 17 19  2  0
 18 17  1  0
 18 20  1  0
 21 20  1  0
 21 22  1  0
 21 23  1  0
 22 24  1  0
 23 25  1  0
 24 25  1  0
M  RAD  8   2   2   3   2   4   2   5   3  11   2  13   2  14   2  15   2
M  RAD  6  20   3  21   2  22   3  23   3  24   3  25   3
M  END
>  <REMARK>  (1) 
 SMILES CC(C)N(Cc1nc2ccccc2c(=O)[nH]1)C(=O)NCC1CCCC1
 SMILES IDX 4 1 2 2 1 3 3 4 5 5 6 6 7 7 16 8 8 9 14 10 9 11 13 12 10 13
 SMILES IDX 12 14 11 15 15 17 17 18 19 19 18 20 20 22 21 23 22 24 25 25
 SMILES IDX 23 26 24 27
 H PARENT 16 16 19 21

>  <TORSDO>  (1) 
F 6

$$$$
