/home/pchatterjee/Documents/git/vs_workflow/DiffDock/diffdock_run/pdbqt_scrubbed/Z1127203562.pdbqt
     RDKit          3D

 25 27  0  0  0  0  0  0  0  0999 V2000
    4.4118   42.4657   49.9166 N   0  0  0  0  0  0  0  0  0  0  0  0
    4.3799   41.1593   50.5447 C   0  0  0  0  0  3  0  0  0  0  0  0
    2.9743   40.6067   50.5867 C   0  0  0  0  0  1  0  0  0  0  0  0
    5.1722   40.2288   49.6311 C   0  0  0  0  0  1  0  0  0  0  0  0
    5.3920   42.8123   48.9220 C   0  0  0  0  0  2  0  0  0  0  0  0
    6.4386   43.6341   49.5832 C   0  0  0  0  0  0  0  0  0  0  0  0
    6.1990   44.4448   50.6222 N   0  0  0  0  0  0  0  0  0  0  0  0
    7.7010   43.5426   49.0904 N   0  0  0  0  0  0  0  0  0  0  0  0
    7.1662   45.1761   51.1998 C   0  0  0  0  0  0  0  0  0  0  0  0
    8.7080   44.2613   49.6408 C   0  0  0  0  0  0  0  0  0  0  0  0
    6.9287   46.0145   52.2711 C   0  0  0  0  0  3  0  0  0  0  0  0
    8.4595   45.1078   50.7251 C   0  0  0  0  0  0  0  0  0  0  0  0
    7.9783   46.7239   52.7975 C   0  0  0  0  0  3  0  0  0  0  0  0
    9.5087   45.8053   51.2375 C   0  0  0  0  0  3  0  0  0  0  0  0
    9.2801   46.6494   52.3130 C   0  0  0  0  0  3  0  0  0  0  0  0
    9.8829   44.1789   49.1854 O   0  0  0  0  0  0  0  0  0  0  0  0
    3.4467   43.4410   50.2902 C   0  0  0  0  0  0  0  0  0  0  0  0
    3.1686   43.7412   51.6416 N   0  0  0  0  0  0  0  0  0  0  0  0
    2.7875   44.0898   49.4182 O   0  0  0  0  0  0  0  0  0  0  0  0
    2.6286   45.0403   52.0500 C   0  0  0  0  0  2  0  0  0  0  0  0
    3.7009   45.7377   52.8245 C   0  0  0  0  0  3  0  0  0  0  0  0
    3.3473   47.0999   53.3174 C   0  0  0  0  0  2  0  0  0  0  0  0
    4.0833   44.9115   54.0136 C   0  0  0  0  0  2  0  0  0  0  0  0
    3.9912   47.1830   54.6922 C   0  0  0  0  0  2  0  0  0  0  0  0
    4.8196   45.9361   54.8700 C   0  0  0  0  0  2  0  0  0  0  0  0
  1  2  1  0
  1 17  1  0
  2  3  1  0
  4  2  1  0
  5  1  1  0
  5  6  1  0
  6  8  1  0
  7  6  2  0
  7  9  1  0
  8 10  1  0
  9 12  2  0
 10 16  2  0
 11  9  1  0
 11 13  2  0
 12 10  1  0
 12 14  1  0
 13 15  1  0
 15 14  2  0
 17 19  2  0
 18 17  1  0
 18 20  1  0
 21 20  1  0
 21 22  1  0
 21 23  1  0
 22 24  1  0
 23 25  1  0
 24 25  1  0
M  RAD  8   2   2   3   2   4   2   5   3  11   2  13   2  14   2  15   2
M  RAD  6  20   3  21   2  22   3  23   3  24   3  25   3
M  END
>  <REMARK>  (1) 
 SMILES CC(C)N(Cc1nc2ccccc2c(=O)[nH]1)C(=O)NCC1CCCC1
 SMILES IDX 4 1 2 2 1 3 3 4 5 5 6 6 7 7 16 8 8 9 14 10 9 11 13 12 10 13
 SMILES IDX 12 14 11 15 15 17 17 18 19 19 18 20 20 22 21 23 22 24 25 25
 SMILES IDX 23 26 24 27
 H PARENT 16 16 19 21

>  <TORSDO>  (1) 
F 6

$$$$
