/home/pchatterjee/Documents/git/vs_workflow/DiffDock/diffdock_run/pdbqt_scrubbed/Z1127203562.pdbqt
     RDKit          3D

 25 27  0  0  0  0  0  0  0  0999 V2000
    4.6266   42.4574   49.7866 N   0  0  0  0  0  0  0  0  0  0  0  0
    4.5856   41.0119   49.6819 C   0  0  0  0  0  3  0  0  0  0  0  0
    5.1280   40.5442   48.3514 C   0  0  0  0  0  1  0  0  0  0  0  0
    5.5484   40.4814   50.7401 C   0  0  0  0  0  1  0  0  0  0  0  0
    5.3601   43.2712   48.8540 C   0  0  0  0  0  2  0  0  0  0  0  0
    6.4429   43.9580   49.6048 C   0  0  0  0  0  0  0  0  0  0  0  0
    6.2247   44.7549   50.6590 N   0  0  0  0  0  0  0  0  0  0  0  0
    7.7170   43.7521   49.1812 N   0  0  0  0  0  0  0  0  0  0  0  0
    7.2245   45.3627   51.3184 C   0  0  0  0  0  0  0  0  0  0  0  0
    8.7567   44.3442   49.8153 C   0  0  0  0  0  0  0  0  0  0  0  0
    7.0092   46.1859   52.4061 C   0  0  0  0  0  3  0  0  0  0  0  0
    8.5305   45.1761   50.9156 C   0  0  0  0  0  0  0  0  0  0  0  0
    8.0918   46.7650   53.0183 C   0  0  0  0  0  3  0  0  0  0  0  0
    9.6123   45.7439   51.5133 C   0  0  0  0  0  3  0  0  0  0  0  0
    9.4061   46.5717   52.6058 C   0  0  0  0  0  3  0  0  0  0  0  0
    9.9425   44.1552   49.4244 O   0  0  0  0  0  0  0  0  0  0  0  0
    3.9217   43.0987   50.8421 C   0  0  0  0  0  0  0  0  0  0  0  0
    4.2041   44.4252   51.2349 N   0  0  0  0  0  0  0  0  0  0  0  0
    3.0001   42.5019   51.4828 O   0  0  0  0  0  0  0  0  0  0  0  0
    3.2194   45.2493   51.9401 C   0  0  0  0  0  2  0  0  0  0  0  0
    3.9367   46.4652   52.4329 C   0  0  0  0  0  3  0  0  0  0  0  0
    3.0779   47.4840   53.1022 C   0  0  0  0  0  2  0  0  0  0  0  0
    5.0026   46.0632   53.4049 C   0  0  0  0  0  2  0  0  0  0  0  0
    3.9333   48.0074   54.2448 C   0  0  0  0  0  2  0  0  0  0  0  0
    5.3007   47.3906   54.0937 C   0  0  0  0  0  2  0  0  0  0  0  0
  1  2  1  0
  1 17  1  0
  2  3  1  0
  4  2  1  0
  5  1  1  0
  5  6  1  0
  6  8  1  0
  7  6  2  0
  7  9  1  0
  8 10  1  0
  9 12  2  0
 10 16  2  0
 11  9  1  0
 11 13  2  0
 12 10  1  0
 12 14  1  0
 13 15  1  0
 15 14  2  0
 17 19  2  0
 18 17  1  0
 18 20  1  0
 21 20  1  0
 21 22  1  0
 21 23  1  0
 22 24  1  0
 23 25  1  0
 24 25  1  0
M  RAD  8   2   2   3   2   4   2   5   3  11   2  13   2  14   2  15   2
M  RAD  6  20   3  21   2  22   3  23   3  24   3  25   3
M  END
>  <REMARK>  (1) 
 SMILES CC(C)N(Cc1nc2ccccc2c(=O)[nH]1)C(=O)NCC1CCCC1
 SMILES IDX 4 1 2 2 1 3 3 4 5 5 6 6 7 7 16 8 8 9 14 10 9 11 13 12 10 13
 SMILES IDX 12 14 11 15 15 17 17 18 19 19 18 20 20 22 21 23 22 24 25 25
 SMILES IDX 23 26 24 27
 H PARENT 16 16 19 21

>  <TORSDO>  (1) 
F 6

$$$$
