/home/pchatterjee/Documents/git/vs_workflow/DiffDock/diffdock_run/pdbqt_scrubbed/Z1127203562.pdbqt
     RDKit          3D

 25 27  0  0  0  0  0  0  0  0999 V2000
    4.5438   42.7273   49.8612 N   0  0  0  0  0  0  0  0  0  0  0  0
    4.5714   41.2814   49.9652 C   0  0  0  0  0  3  0  0  0  0  0  0
    3.2647   40.6751   49.5093 C   0  0  0  0  0  1  0  0  0  0  0  0
    5.6273   40.8038   48.9727 C   0  0  0  0  0  1  0  0  0  0  0  0
    5.3126   43.4379   48.8743 C   0  0  0  0  0  2  0  0  0  0  0  0
    6.4597   44.0791   49.5678 C   0  0  0  0  0  0  0  0  0  0  0  0
    6.3277   44.8928   50.6235 N   0  0  0  0  0  0  0  0  0  0  0  0
    7.7019   43.8111   49.0879 N   0  0  0  0  0  0  0  0  0  0  0  0
    7.3841   45.4583   51.2303 C   0  0  0  0  0  0  0  0  0  0  0  0
    8.7961   44.3588   49.6677 C   0  0  0  0  0  0  0  0  0  0  0  0
    7.2577   46.2984   52.3190 C   0  0  0  0  0  3  0  0  0  0  0  0
    8.6599   45.2082   50.7695 C   0  0  0  0  0  0  0  0  0  0  0  0
    8.3932   46.8311   52.8751 C   0  0  0  0  0  3  0  0  0  0  0  0
    9.7934   45.7295   51.3112 C   0  0  0  0  0  3  0  0  0  0  0  0
    9.6766   46.5738   52.4043 C   0  0  0  0  0  3  0  0  0  0  0  0
    9.9525   44.1120   49.2244 O   0  0  0  0  0  0  0  0  0  0  0  0
    3.7332   43.4741   50.7599 C   0  0  0  0  0  0  0  0  0  0  0  0
    3.9459   44.8501   50.9947 N   0  0  0  0  0  0  0  0  0  0  0  0
    2.7751   42.9321   51.3957 O   0  0  0  0  0  0  0  0  0  0  0  0
    3.0441   45.6393   51.8374 C   0  0  0  0  0  2  0  0  0  0  0  0
    3.8358   46.0944   53.0216 C   0  0  0  0  0  3  0  0  0  0  0  0
    3.1372   47.0539   53.9242 C   0  0  0  0  0  2  0  0  0  0  0  0
    4.2383   44.9100   53.8450 C   0  0  0  0  0  2  0  0  0  0  0  0
    3.5729   46.6436   55.3217 C   0  0  0  0  0  2  0  0  0  0  0  0
    4.6235   45.5741   55.1625 C   0  0  0  0  0  2  0  0  0  0  0  0
  1  2  1  0
  1 17  1  0
  2  3  1  0
  4  2  1  0
  5  1  1  0
  5  6  1  0
  6  8  1  0
  7  6  2  0
  7  9  1  0
  8 10  1  0
  9 12  2  0
 10 16  2  0
 11  9  1  0
 11 13  2  0
 12 10  1  0
 12 14  1  0
 13 15  1  0
 15 14  2  0
 17 19  2  0
 18 17  1  0
 18 20  1  0
 21 20  1  0
 21 22  1  0
 21 23  1  0
 22 24  1  0
 23 25  1  0
 24 25  1  0
M  RAD  8   2   2   3   2   4   2   5   3  11   2  13   2  14   2  15   2
M  RAD  6  20   3  21   2  22   3  23   3  24   3  25   3
M  END
>  <REMARK>  (1) 
 SMILES CC(C)N(Cc1nc2ccccc2c(=O)[nH]1)C(=O)NCC1CCCC1
 SMILES IDX 4 1 2 2 1 3 3 4 5 5 6 6 7 7 16 8 8 9 14 10 9 11 13 12 10 13
 SMILES IDX 12 14 11 15 15 17 17 18 19 19 18 20 20 22 21 23 22 24 25 25
 SMILES IDX 23 26 24 27
 H PARENT 16 16 19 21

>  <TORSDO>  (1) 
F 6

$$$$
