/home/pchatterjee/Documents/git/vs_workflow/DiffDock/diffdock_run/pdbqt_scrubbed/Z1127203562.pdbqt
     RDKit          3D

 25 27  0  0  0  0  0  0  0  0999 V2000
    4.9260   42.1149   49.8469 N   0  0  0  0  0  0  0  0  0  0  0  0
    3.8000   41.4211   49.2527 C   0  0  0  0  0  3  0  0  0  0  0  0
    3.4855   41.9652   47.8786 C   0  0  0  0  0  1  0  0  0  0  0  0
    4.2520   39.9790   49.0423 C   0  0  0  0  0  1  0  0  0  0  0  0
    6.2079   42.1885   49.1978 C   0  0  0  0  0  2  0  0  0  0  0  0
    6.9898   43.2658   49.8581 C   0  0  0  0  0  0  0  0  0  0  0  0
    6.4629   44.1401   50.7253 N   0  0  0  0  0  0  0  0  0  0  0  0
    8.3102   43.3501   49.5507 N   0  0  0  0  0  0  0  0  0  0  0  0
    7.1952   45.1041   51.3069 C   0  0  0  0  0  0  0  0  0  0  0  0
    9.0876   44.3059   50.1126 C   0  0  0  0  0  0  0  0  0  0  0  0
    6.6608   46.0097   52.2021 C   0  0  0  0  0  3  0  0  0  0  0  0
    8.5390   45.2189   51.0179 C   0  0  0  0  0  0  0  0  0  0  0  0
    7.4849   46.9614   52.7473 C   0  0  0  0  0  3  0  0  0  0  0  0
    9.3669   46.1571   51.5511 C   0  0  0  0  0  3  0  0  0  0  0  0
    8.8395   47.0705   52.4505 C   0  0  0  0  0  3  0  0  0  0  0  0
   10.3154   44.3874   49.8293 O   0  0  0  0  0  0  0  0  0  0  0  0
    4.7660   42.7452   51.1116 C   0  0  0  0  0  0  0  0  0  0  0  0
    3.6416   42.5061   51.9315 N   0  0  0  0  0  0  0  0  0  0  0  0
    5.6340   43.5570   51.5626 O   0  0  0  0  0  0  0  0  0  0  0  0
    3.4085   43.2623   53.1644 C   0  0  0  0  0  2  0  0  0  0  0  0
    2.4631   44.3707   52.8275 C   0  0  0  0  0  3  0  0  0  0  0  0
    2.0068   45.1926   53.9850 C   0  0  0  0  0  2  0  0  0  0  0  0
    3.1026   45.2967   51.8394 C   0  0  0  0  0  2  0  0  0  0  0  0
    1.9457   46.6108   53.4406 C   0  0  0  0  0  2  0  0  0  0  0  0
    2.2121   46.5289   51.9590 C   0  0  0  0  0  2  0  0  0  0  0  0
  1  2  1  0
  1 17  1  0
  2  3  1  0
  4  2  1  0
  5  1  1  0
  5  6  1  0
  6  8  1  0
  7  6  2  0
  7  9  1  0
  8 10  1  0
  9 12  2  0
 10 16  2  0
 11  9  1  0
 11 13  2  0
 12 10  1  0
 12 14  1  0
 13 15  1  0
 15 14  2  0
 17 19  2  0
 18 17  1  0
 18 20  1  0
 21 20  1  0
 21 22  1  0
 21 23  1  0
 22 24  1  0
 23 25  1  0
 24 25  1  0
M  RAD  8   2   2   3   2   4   2   5   3  11   2  13   2  14   2  15   2
M  RAD  6  20   3  21   2  22   3  23   3  24   3  25   3
M  END
>  <REMARK>  (1) 
 SMILES CC(C)N(Cc1nc2ccccc2c(=O)[nH]1)C(=O)NCC1CCCC1
 SMILES IDX 4 1 2 2 1 3 3 4 5 5 6 6 7 7 16 8 8 9 14 10 9 11 13 12 10 13
 SMILES IDX 12 14 11 15 15 17 17 18 19 19 18 20 20 22 21 23 22 24 25 25
 SMILES IDX 23 26 24 27
 H PARENT 16 16 19 21

>  <TORSDO>  (1) 
F 6

$$$$
