/home/pchatterjee/Documents/git/vs_workflow/DiffDock/diffdock_run/pdbqt_scrubbed/Z1127203562.pdbqt
     RDKit          3D

 25 27  0  0  0  0  0  0  0  0999 V2000
    4.6027   42.5224   49.8328 N   0  0  0  0  0  0  0  0  0  0  0  0
    4.6692   41.0755   49.8986 C   0  0  0  0  0  3  0  0  0  0  0  0
    3.2879   40.4668   49.9650 C   0  0  0  0  0  1  0  0  0  0  0  0
    5.2694   40.6167   48.5729 C   0  0  0  0  0  1  0  0  0  0  0  0
    5.3478   43.2788   48.8618 C   0  0  0  0  0  2  0  0  0  0  0  0
    6.4567   43.9646   49.5745 C   0  0  0  0  0  0  0  0  0  0  0  0
    6.2775   44.7497   50.6448 N   0  0  0  0  0  0  0  0  0  0  0  0
    7.7134   43.7705   49.0970 N   0  0  0  0  0  0  0  0  0  0  0  0
    7.3002   45.3569   51.2687 C   0  0  0  0  0  0  0  0  0  0  0  0
    8.7750   44.3624   49.6938 C   0  0  0  0  0  0  0  0  0  0  0  0
    7.1252   46.1680   52.3726 C   0  0  0  0  0  3  0  0  0  0  0  0
    8.5895   45.1820   50.8109 C   0  0  0  0  0  0  0  0  0  0  0  0
    8.2287   46.7475   52.9457 C   0  0  0  0  0  3  0  0  0  0  0  0
    9.6918   45.7503   51.3694 C   0  0  0  0  0  3  0  0  0  0  0  0
    9.5261   46.5660   52.4778 C   0  0  0  0  0  3  0  0  0  0  0  0
    9.9448   44.1843   49.2528 O   0  0  0  0  0  0  0  0  0  0  0  0
    3.7767   43.2234   50.7540 C   0  0  0  0  0  0  0  0  0  0  0  0
    4.2230   44.3785   51.4324 N   0  0  0  0  0  0  0  0  0  0  0  0
    2.5923   42.8384   51.0089 O   0  0  0  0  0  0  0  0  0  0  0  0
    3.3774   45.5662   51.5763 C   0  0  0  0  0  2  0  0  0  0  0  0
    3.2369   45.8301   53.0415 C   0  0  0  0  0  3  0  0  0  0  0  0
    4.1122   45.0064   53.9239 C   0  0  0  0  0  2  0  0  0  0  0  0
    3.5347   47.2700   53.3258 C   0  0  0  0  0  2  0  0  0  0  0  0
    4.5362   45.9588   55.0306 C   0  0  0  0  0  2  0  0  0  0  0  0
    3.7659   47.2395   54.8327 C   0  0  0  0  0  2  0  0  0  0  0  0
  1  2  1  0
  1 17  1  0
  2  3  1  0
  4  2  1  0
  5  1  1  0
  5  6  1  0
  6  8  1  0
  7  6  2  0
  7  9  1  0
  8 10  1  0
  9 12  2  0
 10 16  2  0
 11  9  1  0
 11 13  2  0
 12 10  1  0
 12 14  1  0
 13 15  1  0
 15 14  2  0
 17 19  2  0
 18 17  1  0
 18 20  1  0
 21 20  1  0
 21 22  1  0
 21 23  1  0
 22 24  1  0
 23 25  1  0
 24 25  1  0
M  RAD  8   2   2   3   2   4   2   5   3  11   2  13   2  14   2  15   2
M  RAD  6  20   3  21   2  22   3  23   3  24   3  25   3
M  END
>  <REMARK>  (1) 
 SMILES CC(C)N(Cc1nc2ccccc2c(=O)[nH]1)C(=O)NCC1CCCC1
 SMILES IDX 4 1 2 2 1 3 3 4 5 5 6 6 7 7 16 8 8 9 14 10 9 11 13 12 10 13
 SMILES IDX 12 14 11 15 15 17 17 18 19 19 18 20 20 22 21 23 22 24 25 25
 SMILES IDX 23 26 24 27
 H PARENT 16 16 19 21

>  <TORSDO>  (1) 
F 6

$$$$
