/home/pchatterjee/Documents/git/vs_workflow/DiffDock/diffdock_run/pdbqt_scrubbed/Z1127203562.pdbqt
     RDKit          3D

 25 27  0  0  0  0  0  0  0  0999 V2000
    4.6035   41.9219   49.5411 N   0  0  0  0  0  0  0  0  0  0  0  0
    4.4756   41.3112   50.8498 C   0  0  0  0  0  3  0  0  0  0  0  0
    3.3023   40.3605   50.8977 C   0  0  0  0  0  1  0  0  0  0  0  0
    5.7225   40.4528   51.0422 C   0  0  0  0  0  1  0  0  0  0  0  0
    5.8636   41.9933   48.8503 C   0  0  0  0  0  2  0  0  0  0  0  0
    6.6654   43.0746   49.4793 C   0  0  0  0  0  0  0  0  0  0  0  0
    6.1646   43.9568   50.3539 N   0  0  0  0  0  0  0  0  0  0  0  0
    7.9766   43.1543   49.1337 N   0  0  0  0  0  0  0  0  0  0  0  0
    6.9145   44.9243   50.9065 C   0  0  0  0  0  0  0  0  0  0  0  0
    8.7710   44.1133   49.6655 C   0  0  0  0  0  0  0  0  0  0  0  0
    6.4069   45.8381   51.8090 C   0  0  0  0  0  3  0  0  0  0  0  0
    8.2497   45.0346   50.5784 C   0  0  0  0  0  0  0  0  0  0  0  0
    7.2475   46.7928   52.3228 C   0  0  0  0  0  3  0  0  0  0  0  0
    9.0936   45.9758   51.0802 C   0  0  0  0  0  3  0  0  0  0  0  0
    8.5933   46.8974   51.9868 C   0  0  0  0  0  3  0  0  0  0  0  0
    9.9904   44.1906   49.3468 O   0  0  0  0  0  0  0  0  0  0  0  0
    3.4511   42.4701   48.9137 C   0  0  0  0  0  0  0  0  0  0  0  0
    3.5134   43.1035   47.6532 N   0  0  0  0  0  0  0  0  0  0  0  0
    2.3064   42.4137   49.4636 O   0  0  0  0  0  0  0  0  0  0  0  0
    2.3114   43.3595   46.8559 C   0  0  0  0  0  2  0  0  0  0  0  0
    2.4660   42.6053   45.5740 C   0  0  0  0  0  3  0  0  0  0  0  0
    2.5248   41.1216   45.7110 C   0  0  0  0  0  2  0  0  0  0  0  0
    1.3276   42.9301   44.6568 C   0  0  0  0  0  2  0  0  0  0  0  0
    1.7519   40.6005   44.5099 C   0  0  0  0  0  2  0  0  0  0  0  0
    1.4176   41.7908   43.6473 C   0  0  0  0  0  2  0  0  0  0  0  0
  1  2  1  0
  1 17  1  0
  2  3  1  0
  4  2  1  0
  5  1  1  0
  5  6  1  0
  6  8  1  0
  7  6  2  0
  7  9  1  0
  8 10  1  0
  9 12  2  0
 10 16  2  0
 11  9  1  0
 11 13  2  0
 12 10  1  0
 12 14  1  0
 13 15  1  0
 15 14  2  0
 17 19  2  0
 18 17  1  0
 18 20  1  0
 21 20  1  0
 21 22  1  0
 21 23  1  0
 22 24  1  0
 23 25  1  0
 24 25  1  0
M  RAD  8   2   2   3   2   4   2   5   3  11   2  13   2  14   2  15   2
M  RAD  6  20   3  21   2  22   3  23   3  24   3  25   3
M  END
>  <REMARK>  (1) 
 SMILES CC(C)N(Cc1nc2ccccc2c(=O)[nH]1)C(=O)NCC1CCCC1
 SMILES IDX 4 1 2 2 1 3 3 4 5 5 6 6 7 7 16 8 8 9 14 10 9 11 13 12 10 13
 SMILES IDX 12 14 11 15 15 17 17 18 19 19 18 20 20 22 21 23 22 24 25 25
 SMILES IDX 23 26 24 27
 H PARENT 16 16 19 21

>  <TORSDO>  (1) 
F 6

$$$$
