REMARK SMILES C=CS(=O)(=O)c1ccc(Nc2nc(OCC3CCCCC3)c3[nH]cnc3n2)cc1
REMARK SMILES IDX 10 1 9 3 6 4 7 5 29 6 8 7 28 8 3 9 4 10 5 11 2 12 1 13 11 14
REMARK SMILES IDX 12 15 27 16 13 17 26 18 22 19 25 20 23 21 24 22 14 24 15 25
REMARK SMILES IDX 16 26 17 27 21 28 18 29 20 30 19 31
REMARK H PARENT 10 2 23 23
ROOT
ATOM      1  N   UNL     1       1.147  -1.112  -2.195  1.00  0.00    -0.324 N 
ATOM      2  H   UNL     1       1.790  -1.626  -2.781  1.00  0.00     0.170 HD
ENDROOT
BRANCH   1   3
ATOM      3  C   UNL     1       0.898   0.221  -2.538  1.00  0.00     0.041 A 
ATOM      4  C   UNL     1       0.480   2.888  -3.346  1.00  0.00     0.071 A 
ATOM      5  C   UNL     1       1.286   2.052  -4.117  1.00  0.00     0.023 A 
ATOM      6  C   UNL     1      -0.139   2.404  -2.194  1.00  0.00     0.023 A 
ATOM      7  C   UNL     1       1.492   0.731  -3.707  1.00  0.00     0.027 A 
ATOM      8  C   UNL     1       0.077   1.079  -1.798  1.00  0.00     0.027 A 
BRANCH   4   9
ATOM      9  S   UNL     1       0.196   4.569  -3.862  1.00  0.00     0.199 S 
ATOM     10  O   UNL     1      -1.089   4.972  -3.320  1.00  0.00    -0.219 OA
ATOM     11  O   UNL     1       0.439   4.620  -5.292  1.00  0.00    -0.219 OA
BRANCH   9  12
ATOM     12  C   UNL     1       1.485   5.412  -3.056  1.00  0.00     0.103 C 
ATOM     13  C   UNL     1       1.302   5.956  -1.846  1.00  0.00     0.022 C 
ENDBRANCH   9  12
ENDBRANCH   4   9
ENDBRANCH   1   3
BRANCH   1  14
ATOM     14  C   UNL     1       0.722  -1.955  -1.166  1.00  0.00     0.232 A 
ATOM     15  N   UNL     1      -0.161  -1.528  -0.239  1.00  0.00    -0.175 NA
ATOM     16  N   UNL     1       1.265  -3.179  -1.210  1.00  0.00    -0.191 NA
ATOM     17  C   UNL     1      -0.557  -2.366   0.737  1.00  0.00     0.245 A 
ATOM     18  C   UNL     1       0.863  -4.000  -0.229  1.00  0.00     0.186 A 
ATOM     19  C   UNL     1      -0.034  -3.630   0.747  1.00  0.00     0.148 A 
ATOM     20  N   UNL     1       1.271  -5.295  -0.049  1.00  0.00    -0.217 NA
ATOM     21  N   UNL     1      -0.177  -4.731   1.540  1.00  0.00    -0.339 N 
ATOM     22  C   UNL     1       0.628  -5.709   1.022  1.00  0.00     0.199 A 
ATOM     23  H   UNL     1      -0.769  -4.805   2.356  1.00  0.00     0.168 HD
BRANCH  17  24
ATOM     24  O   UNL     1      -1.457  -1.976   1.704  1.00  0.00    -0.476 OA
BRANCH  24  25
ATOM     25  C   UNL     1      -1.928  -0.636   1.520  1.00  0.00     0.235 C 
BRANCH  25  26
ATOM     26  C   UNL     1      -2.925  -0.301   2.645  1.00  0.00     0.027 C 
ATOM     27  C   UNL     1      -2.279  -0.359   4.041  1.00  0.00     0.007 C 
ATOM     28  C   UNL     1      -3.585   1.067   2.418  1.00  0.00     0.007 C 
ATOM     29  C   UNL     1      -1.331   0.809   4.308  1.00  0.00     0.000 C 
ATOM     30  C   UNL     1      -2.638   2.237   2.679  1.00  0.00     0.000 C 
ATOM     31  C   UNL     1      -2.011   2.153   4.067  1.00  0.00     0.000 C 
ENDBRANCH  25  26
ENDBRANCH  24  25
ENDBRANCH  17  24
ENDBRANCH   1  14
TORSDOF 7
