REMARK SMILES NC(=O)c1cccc(Nc2nc(OCC3CCCCC3)c3[nH]cnc3n2)c1
REMARK SMILES IDX 10 1 11 2 12 3 21 4 22 5 23 6 24 7 25 8 26 9 9 11 8 13 4 14
REMARK SMILES IDX 5 15 27 16 6 17 7 18 2 19 1 20 3 23 13 24 14 25 15 26 16 27
REMARK SMILES IDX 20 28 17 29 19 30 18 31
REMARK H PARENT 22 10 9 12 1 21 1 22
ROOT
ATOM      1  C   UNL     1       1.327  -0.857  -0.431  1.00  0.00     0.232 A 
ATOM      2  N   UNL     1       0.553   0.247  -0.537  1.00  0.00    -0.175 NA
ATOM      3  C   UNL     1       0.234   0.720  -1.757  1.00  0.00     0.245 A 
ATOM      4  C   UNL     1       0.709   0.043  -2.848  1.00  0.00     0.148 A 
ATOM      5  N   UNL     1       0.603   0.191  -4.200  1.00  0.00    -0.339 N 
ATOM      6  C   UNL     1       1.319  -0.825  -4.776  1.00  0.00     0.199 A 
ATOM      7  N   UNL     1       1.871  -1.605  -3.871  1.00  0.00    -0.217 NA
ATOM      8  C   UNL     1       1.495  -1.072  -2.667  1.00  0.00     0.186 A 
ATOM      9  N   UNL     1       1.828  -1.549  -1.460  1.00  0.00    -0.191 NA
ATOM     10  H   UNL     1       0.092   0.917  -4.683  1.00  0.00     0.168 HD
ENDROOT
BRANCH   1  11
ATOM     11  N   UNL     1       1.600  -1.232   0.885  1.00  0.00    -0.324 N 
ATOM     12  H   UNL     1       1.169  -0.572   1.516  1.00  0.00     0.170 HD
BRANCH  11  13
ATOM     13  C   UNL     1       2.273  -2.317   1.460  1.00  0.00     0.042 A 
ATOM     14  C   UNL     1       3.449  -4.457   1.342  1.00  0.00     0.041 A 
ATOM     15  C   UNL     1       3.700  -4.401   2.717  1.00  0.00     0.014 A 
ATOM     16  C   UNL     1       2.729  -3.421   0.728  1.00  0.00     0.040 A 
ATOM     17  C   UNL     1       3.255  -3.313   3.462  1.00  0.00     0.003 A 
ATOM     18  C   UNL     1       2.555  -2.280   2.835  1.00  0.00     0.026 A 
BRANCH  14  19
ATOM     19  C   UNL     1       3.956  -5.636   0.584  1.00  0.00     0.248 C 
ATOM     20  N   UNL     1       4.003  -5.553  -0.780  1.00  0.00    -0.366 N 
ATOM     21  H   UNL     1       4.433  -6.328  -1.268  1.00  0.00     0.159 HD
ATOM     22  H   UNL     1       3.867  -4.695  -1.296  1.00  0.00     0.159 HD
ATOM     23  O   UNL     1       4.350  -6.645   1.158  1.00  0.00    -0.270 OA
ENDBRANCH  14  19
ENDBRANCH  11  13
ENDBRANCH   1  11
BRANCH   3  24
ATOM     24  O   UNL     1      -0.565   1.826  -1.927  1.00  0.00    -0.476 OA
BRANCH  24  25
ATOM     25  C   UNL     1      -0.968   2.497  -0.729  1.00  0.00     0.235 C 
BRANCH  25  26
ATOM     26  C   UNL     1      -2.482   2.342  -0.517  1.00  0.00     0.027 C 
ATOM     27  C   UNL     1      -2.958   3.260   0.624  1.00  0.00     0.007 C 
ATOM     28  C   UNL     1      -2.896   0.889  -0.255  1.00  0.00     0.007 C 
ATOM     29  C   UNL     1      -4.265   2.808   1.280  1.00  0.00     0.000 C 
ATOM     30  C   UNL     1      -4.416   0.733  -0.144  1.00  0.00     0.000 C 
ATOM     31  C   UNL     1      -5.131   1.999   0.327  1.00  0.00     0.000 C 
ENDBRANCH  25  26
ENDBRANCH  24  25
ENDBRANCH   3  24
TORSDOF 6
