REMARK SMILES Fc1ccc(Nc2nc3nc[nH]c3c(OCC3CCCCC3)[nH+]2)cc1Cl
REMARK SMILES IDX 7 1 8 2 9 3 10 4 11 5 12 6 13 7 14 8 23 9 6 12 5 14 2 15
REMARK SMILES IDX 3 16 25 17 4 18 24 19 1 20 26 21 15 22 16 23 17 24 18 25
REMARK SMILES IDX 22 26 19 27 21 28 20 29
REMARK H PARENT 12 10 23 11 6 13
ROOT
ATOM      1  C   UNL     1       2.726   0.081   1.059  1.00  0.00     0.399 A 
ATOM      2  N   UNL     1       3.476   1.187   1.034  1.00  0.00    -0.048 NA
ATOM      3  C   UNL     1       2.818   2.279   0.609  1.00  0.00     0.264 A 
ATOM      4  N   UNL     1       3.351   3.520   0.468  1.00  0.00    -0.202 NA
ATOM      5  C   UNL     1       2.367   4.276   0.033  1.00  0.00     0.201 A 
ATOM      6  N   UNL     1       1.208   3.560  -0.112  1.00  0.00    -0.336 N 
ATOM      7  C   UNL     1       1.482   2.268   0.256  1.00  0.00     0.180 A 
ATOM      8  C   UNL     1       0.746   1.104   0.336  1.00  0.00     0.284 A 
ATOM      9  N   UNL     1       1.427   0.034   0.745  1.00  0.00    -0.209 N 
ATOM     10  H   UNL     1       0.320   3.931  -0.429  1.00  0.00     0.168 HD
ATOM     11  H   UNL     1       0.983  -0.866   0.862  1.00  0.00     0.270 HD
ENDROOT
BRANCH   1  12
ATOM     12  N   UNL     1       3.323  -1.099   1.505  1.00  0.00    -0.242 N 
ATOM     13  H   UNL     1       4.291  -0.892   1.767  1.00  0.00     0.267 HD
BRANCH  12  14
ATOM     14  C   UNL     1       3.177  -2.414   1.022  1.00  0.00     0.101 A 
ATOM     15  C   UNL     1       2.916  -5.075   0.171  1.00  0.00     0.142 A 
ATOM     16  C   UNL     1       2.568  -4.035  -0.686  1.00  0.00     0.044 A 
ATOM     17  C   UNL     1       3.405  -4.802   1.443  1.00  0.00     0.080 A 
ATOM     18  C   UNL     1       2.699  -2.708  -0.265  1.00  0.00     0.046 A 
ATOM     19  C   UNL     1       3.541  -3.476   1.864  1.00  0.00     0.066 A 
ATOM     20  F   UNL     1       2.772  -6.336  -0.257  1.00  0.00    -0.205 F 
ATOM     21  Cl  UNL     1       3.839  -6.076   2.512  1.00  0.00    -0.081 Cl
ENDBRANCH  12  14
ENDBRANCH   1  12
BRANCH   8  22
ATOM     22  O   UNL     1      -0.582   1.130  -0.017  1.00  0.00    -0.466 OA
BRANCH  22  23
ATOM     23  C   UNL     1      -1.344  -0.031   0.298  1.00  0.00     0.236 C 
BRANCH  23  24
ATOM     24  C   UNL     1      -2.838   0.167  -0.027  1.00  0.00     0.027 C 
ATOM     25  C   UNL     1      -3.496   1.266   0.825  1.00  0.00     0.007 C 
ATOM     26  C   UNL     1      -3.102   0.391  -1.526  1.00  0.00     0.007 C 
ATOM     27  C   UNL     1      -3.240   2.688   0.331  1.00  0.00     0.000 C 
ATOM     28  C   UNL     1      -2.850   1.818  -2.007  1.00  0.00     0.000 C 
ATOM     29  C   UNL     1      -3.578   2.843  -1.147  1.00  0.00     0.000 C 
ENDBRANCH  23  24
ENDBRANCH  22  23
ENDBRANCH   8  22
TORSDOF 5
