REMARK SMILES Fc1cccc(Nc2nc3nc[nH]c3c(OCC3CCCCC3)[nH+]2)c1
REMARK SMILES IDX 8 1 9 2 10 3 11 4 12 5 13 6 14 7 15 8 24 9 7 12 6 14 2 15
REMARK SMILES IDX 3 16 25 17 4 18 5 19 1 20 16 21 17 22 18 23 19 24 23 25
REMARK SMILES IDX 20 26 22 27 21 28
REMARK H PARENT 13 10 24 11 7 13
ROOT
ATOM      1  C   UNL     1       1.668  -2.002   0.126  1.00  0.00     0.399 A 
ATOM      2  N   UNL     1       2.994  -1.928   0.294  1.00  0.00    -0.048 NA
ATOM      3  C   UNL     1       3.516  -0.720   0.007  1.00  0.00     0.264 A 
ATOM      4  N   UNL     1       4.834  -0.396   0.076  1.00  0.00    -0.202 NA
ATOM      5  C   UNL     1       4.908   0.852  -0.322  1.00  0.00     0.201 A 
ATOM      6  N   UNL     1       3.675   1.358  -0.637  1.00  0.00    -0.336 N 
ATOM      7  C   UNL     1       2.758   0.360  -0.415  1.00  0.00     0.180 A 
ATOM      8  C   UNL     1       1.391   0.222  -0.545  1.00  0.00     0.284 A 
ATOM      9  N   UNL     1       0.911  -0.990  -0.297  1.00  0.00    -0.209 N 
ATOM     10  H   UNL     1       3.501   2.293  -0.994  1.00  0.00     0.168 HD
ATOM     11  H   UNL     1      -0.070  -1.174  -0.477  1.00  0.00     0.270 HD
ENDROOT
BRANCH   1  12
ATOM     12  N   UNL     1       1.059  -3.236   0.327  1.00  0.00    -0.242 N 
ATOM     13  H   UNL     1       1.761  -3.950   0.521  1.00  0.00     0.267 HD
BRANCH  12  14
ATOM     14  C   UNL     1      -0.237  -3.578   0.740  1.00  0.00     0.102 A 
ATOM     15  C   UNL     1      -2.391  -3.076   1.722  1.00  0.00     0.126 A 
ATOM     16  C   UNL     1      -2.871  -4.336   1.392  1.00  0.00     0.039 A 
ATOM     17  C   UNL     1      -1.091  -2.691   1.405  1.00  0.00     0.082 A 
ATOM     18  C   UNL     1      -2.030  -5.235   0.745  1.00  0.00     0.007 A 
ATOM     19  C   UNL     1      -0.725  -4.855   0.421  1.00  0.00     0.043 A 
ATOM     20  F   UNL     1      -3.188  -2.200   2.349  1.00  0.00    -0.207 F 
ENDBRANCH  12  14
ENDBRANCH   1  12
BRANCH   8  21
ATOM     21  O   UNL     1       0.538   1.196  -1.003  1.00  0.00    -0.466 OA
BRANCH  21  22
ATOM     22  C   UNL     1       0.515   2.353  -0.152  1.00  0.00     0.236 C 
BRANCH  22  23
ATOM     23  C   UNL     1      -0.936   2.854  -0.048  1.00  0.00     0.027 C 
ATOM     24  C   UNL     1      -1.000   4.252   0.579  1.00  0.00     0.007 C 
ATOM     25  C   UNL     1      -1.833   1.874   0.726  1.00  0.00     0.007 C 
ATOM     26  C   UNL     1      -0.703   4.243   2.077  1.00  0.00     0.000 C 
ATOM     27  C   UNL     1      -1.560   1.869   2.230  1.00  0.00     0.000 C 
ATOM     28  C   UNL     1      -1.614   3.274   2.820  1.00  0.00     0.000 C 
ENDBRANCH  22  23
ENDBRANCH  21  22
ENDBRANCH   8  21
TORSDOF 5
