REMARK SMILES Fc1ccc(Nc2nc3nc[nH]c3c(OCC3CCCCC3)[nH+]2)cc1
REMARK SMILES IDX 7 1 8 2 9 3 10 4 11 5 12 6 13 7 14 8 23 9 6 12 5 14 2 15
REMARK SMILES IDX 3 16 25 17 4 18 24 19 1 20 15 21 16 22 17 23 18 24 22 25
REMARK SMILES IDX 19 26 21 27 20 28
REMARK H PARENT 12 10 23 11 6 13
ROOT
ATOM      1  C   UNL     1       1.377   2.094   1.791  1.00  0.00     0.399 A 
ATOM      2  N   UNL     1       0.627   2.753   2.684  1.00  0.00    -0.048 NA
ATOM      3  C   UNL     1      -0.545   2.155   2.964  1.00  0.00     0.264 A 
ATOM      4  N   UNL     1      -1.471   2.602   3.853  1.00  0.00    -0.202 NA
ATOM      5  C   UNL     1      -2.450   1.720   3.810  1.00  0.00     0.201 A 
ATOM      6  N   UNL     1      -2.182   0.708   2.925  1.00  0.00    -0.336 N 
ATOM      7  C   UNL     1      -0.965   0.984   2.355  1.00  0.00     0.180 A 
ATOM      8  C   UNL     1      -0.173   0.388   1.398  1.00  0.00     0.284 A 
ATOM      9  N   UNL     1       1.000   0.972   1.172  1.00  0.00    -0.209 N 
ATOM     10  H   UNL     1      -2.792  -0.076   2.722  1.00  0.00     0.168 HD
ATOM     11  H   UNL     1       1.640   0.577   0.494  1.00  0.00     0.270 HD
ENDROOT
BRANCH   1  12
ATOM     12  N   UNL     1       2.601   2.660   1.423  1.00  0.00    -0.242 N 
ATOM     13  H   UNL     1       2.737   3.535   1.938  1.00  0.00     0.267 HD
BRANCH  12  14
ATOM     14  C   UNL     1       3.821   2.031   1.121  1.00  0.00     0.099 A 
ATOM     15  C   UNL     1       6.289   0.888   0.470  1.00  0.00     0.123 A 
ATOM     16  C   UNL     1       5.983   2.162   0.011  1.00  0.00     0.043 A 
ATOM     17  C   UNL     1       5.388   0.177   1.254  1.00  0.00     0.043 A 
ATOM     18  C   UNL     1       4.755   2.734   0.344  1.00  0.00     0.046 A 
ATOM     19  C   UNL     1       4.155   0.747   1.583  1.00  0.00     0.046 A 
ATOM     20  F   UNL     1       7.466   0.337   0.157  1.00  0.00    -0.207 F 
ENDBRANCH  12  14
ENDBRANCH   1  12
BRANCH   8  21
ATOM     21  O   UNL     1      -0.513  -0.790   0.788  1.00  0.00    -0.466 OA
BRANCH  21  22
ATOM     22  C   UNL     1      -1.277  -0.537  -0.406  1.00  0.00     0.236 C 
BRANCH  22  23
ATOM     23  C   UNL     1      -2.001  -1.833  -0.808  1.00  0.00     0.027 C 
ATOM     24  C   UNL     1      -2.948  -1.585  -1.990  1.00  0.00     0.007 C 
ATOM     25  C   UNL     1      -1.008  -2.961  -1.132  1.00  0.00     0.007 C 
ATOM     26  C   UNL     1      -3.664  -2.866  -2.410  1.00  0.00     0.000 C 
ATOM     27  C   UNL     1      -1.724  -4.238  -1.566  1.00  0.00     0.000 C 
ATOM     28  C   UNL     1      -2.676  -3.983  -2.731  1.00  0.00     0.000 C 
ENDBRANCH  22  23
ENDBRANCH  21  22
ENDBRANCH   8  21
TORSDOF 5
