REMARK SMILES CCCCc1ccc(Nc2nc(OC)c3[nH]cnc3n2)cc1
REMARK SMILES IDX 5 1 6 2 7 3 8 4 21 5 22 6 4 7 3 8 2 9 1 10 9 11 10 13 11 14
REMARK SMILES IDX 20 15 12 16 19 17 15 18 18 19 16 20 17 21 13 23 14 24
REMARK H PARENT 9 12 16 22
ROOT
ATOM      1  C   UNL     1      -1.948   2.321  -2.285  1.00  0.00    -0.048 A 
ATOM      2  C   UNL     1      -1.243   1.165  -2.631  1.00  0.00     0.006 A 
ATOM      3  C   UNL     1      -0.543   0.436  -1.661  1.00  0.00     0.026 A 
ATOM      4  C   UNL     1      -0.524   0.838  -0.323  1.00  0.00     0.041 A 
ATOM      5  C   UNL     1      -1.234   2.002   0.012  1.00  0.00     0.026 A 
ATOM      6  C   UNL     1      -1.937   2.735  -0.951  1.00  0.00     0.006 A 
ENDROOT
BRANCH   1   7
ATOM      7  C   UNL     1      -2.708   3.101  -3.329  1.00  0.00     0.035 C 
BRANCH   7   8
ATOM      8  C   UNL     1      -4.230   2.963  -3.218  1.00  0.00     0.004 C 
BRANCH   8   9
ATOM      9  C   UNL     1      -4.730   1.554  -3.548  1.00  0.00    -0.003 C 
ATOM     10  C   UNL     1      -6.248   1.482  -3.513  1.00  0.00     0.004 C 
ENDBRANCH   8   9
ENDBRANCH   7   8
ENDBRANCH   1   7
BRANCH   4  11
ATOM     11  N   UNL     1       0.155   0.156   0.692  1.00  0.00    -0.324 N 
ATOM     12  H   UNL     1       0.095   0.546   1.621  1.00  0.00     0.170 HD
BRANCH  11  13
ATOM     13  C   UNL     1       0.938  -0.998   0.734  1.00  0.00     0.232 A 
ATOM     14  N   UNL     1       1.403  -1.290   1.971  1.00  0.00    -0.175 NA
ATOM     15  N   UNL     1       1.178  -1.715  -0.368  1.00  0.00    -0.191 NA
ATOM     16  C   UNL     1       2.173  -2.381   2.149  1.00  0.00     0.244 A 
ATOM     17  C   UNL     1       1.945  -2.797  -0.175  1.00  0.00     0.186 A 
ATOM     18  C   UNL     1       2.452  -3.154   1.054  1.00  0.00     0.148 A 
ATOM     19  N   UNL     1       2.334  -3.690  -1.138  1.00  0.00    -0.217 NA
ATOM     20  N   UNL     1       3.167  -4.294   0.831  1.00  0.00    -0.339 N 
ATOM     21  C   UNL     1       3.068  -4.579  -0.504  1.00  0.00     0.199 A 
ATOM     22  H   UNL     1       3.675  -4.825   1.526  1.00  0.00     0.168 HD
BRANCH  16  23
ATOM     23  O   UNL     1       2.670  -2.722   3.388  1.00  0.00    -0.479 OA
ATOM     24  C   UNL     1       2.280  -1.807   4.408  1.00  0.00     0.280 C 
ENDBRANCH  16  23
ENDBRANCH  11  13
ENDBRANCH   4  11
TORSDOF 6
