REMARK SMILES NS(=O)(=O)c1cccc(Nc2nc(OCC3CCCCC3)c3[nH]cnc3n2)c1
REMARK SMILES IDX 10 1 9 3 5 4 6 5 28 6 7 7 8 8 2 9 3 10 4 11 1 12 11 15 12 16
REMARK SMILES IDX 27 17 13 18 26 19 22 20 25 21 23 22 24 23 14 25 15 26 16 27
REMARK SMILES IDX 17 28 21 29 18 30 20 31 19 32
REMARK H PARENT 10 2 1 13 1 14 23 24
ROOT
ATOM      1  N   UNL     1       2.083  -0.718   0.074  1.00  0.00    -0.324 N 
ATOM      2  H   UNL     1       2.887  -1.330   0.031  1.00  0.00     0.170 HD
ENDROOT
BRANCH   1   3
ATOM      3  C   UNL     1       2.318   0.655  -0.042  1.00  0.00     0.042 A 
ATOM      4  C   UNL     1       3.894   2.448  -0.529  1.00  0.00     0.084 A 
ATOM      5  C   UNL     1       2.902   3.411  -0.352  1.00  0.00     0.022 A 
ATOM      6  C   UNL     1       3.613   1.086  -0.368  1.00  0.00     0.047 A 
ATOM      7  C   UNL     1       1.614   2.997  -0.033  1.00  0.00     0.004 A 
ATOM      8  C   UNL     1       1.329   1.634   0.113  1.00  0.00     0.026 A 
BRANCH   4   9
ATOM      9  S   UNL     1       5.538   2.962  -0.942  1.00  0.00     0.238 S 
ATOM     10  O   UNL     1       5.747   4.292  -0.423  1.00  0.00    -0.207 OA
ATOM     11  O   UNL     1       6.444   1.869  -0.671  1.00  0.00    -0.207 OA
BRANCH   9  12
ATOM     12  N   UNL     1       5.444   3.067  -2.620  1.00  0.00    -0.225 NA
ATOM     13  H   UNL     1       6.071   2.372  -3.029  1.00  0.00     0.137 HD
ATOM     14  H   UNL     1       4.493   2.978  -2.977  1.00  0.00     0.137 HD
ENDBRANCH   9  12
ENDBRANCH   4   9
ENDBRANCH   1   3
BRANCH   1  15
ATOM     15  C   UNL     1       0.950  -1.505   0.289  1.00  0.00     0.232 A 
ATOM     16  N   UNL     1      -0.274  -0.947   0.404  1.00  0.00    -0.175 NA
ATOM     17  N   UNL     1       1.208  -2.818   0.344  1.00  0.00    -0.191 NA
ATOM     18  C   UNL     1      -1.349  -1.735   0.588  1.00  0.00     0.245 A 
ATOM     19  C   UNL     1       0.126  -3.590   0.523  1.00  0.00     0.186 A 
ATOM     20  C   UNL     1      -1.150  -3.088   0.643  1.00  0.00     0.148 A 
ATOM     21  N   UNL     1       0.120  -4.957   0.605  1.00  0.00    -0.217 NA
ATOM     22  N   UNL     1      -1.952  -4.179   0.802  1.00  0.00    -0.339 N 
ATOM     23  C   UNL     1      -1.144  -5.283   0.773  1.00  0.00     0.199 A 
ATOM     24  H   UNL     1      -2.956  -4.168   0.919  1.00  0.00     0.168 HD
BRANCH  18  25
ATOM     25  O   UNL     1      -2.622  -1.218   0.691  1.00  0.00    -0.476 OA
BRANCH  25  26
ATOM     26  C   UNL     1      -2.680   0.210   0.763  1.00  0.00     0.235 C 
BRANCH  26  27
ATOM     27  C   UNL     1      -2.703   0.855  -0.632  1.00  0.00     0.027 C 
ATOM     28  C   UNL     1      -3.864   0.310  -1.488  1.00  0.00     0.007 C 
ATOM     29  C   UNL     1      -2.768   2.381  -0.532  1.00  0.00     0.007 C 
ATOM     30  C   UNL     1      -4.310   1.269  -2.596  1.00  0.00     0.000 C 
ATOM     31  C   UNL     1      -2.651   3.046  -1.906  1.00  0.00     0.000 C 
ATOM     32  C   UNL     1      -3.181   2.183  -3.052  1.00  0.00     0.000 C 
ENDBRANCH  26  27
ENDBRANCH  25  26
ENDBRANCH  18  25
ENDBRANCH   1  15
TORSDOF 7
