REMARK SMILES Clc1cccc(Nc2nc(OCC3CCCCC3)c3[nH]cnc3n2)c1
REMARK SMILES IDX 8 1 9 2 10 3 19 4 20 5 21 6 22 7 23 8 24 9 7 11 6 13 2 14
REMARK SMILES IDX 3 15 25 16 4 17 5 18 1 19 11 20 12 21 13 22 14 23 18 24
REMARK SMILES IDX 15 25 17 26 16 27
REMARK H PARENT 20 10 7 12
ROOT
ATOM      1  C   UNL     1      -0.823  -1.312  -2.094  1.00  0.00     0.232 A 
ATOM      2  N   UNL     1      -0.500  -0.795  -0.890  1.00  0.00    -0.175 NA
ATOM      3  C   UNL     1       0.047   0.433  -0.822  1.00  0.00     0.245 A 
ATOM      4  C   UNL     1       0.254   1.110  -1.993  1.00  0.00     0.148 A 
ATOM      5  N   UNL     1       0.766   2.328  -2.329  1.00  0.00    -0.339 N 
ATOM      6  C   UNL     1       0.705   2.431  -3.692  1.00  0.00     0.199 A 
ATOM      7  N   UNL     1       0.186   1.352  -4.239  1.00  0.00    -0.217 NA
ATOM      8  C   UNL     1      -0.098   0.522  -3.186  1.00  0.00     0.186 A 
ATOM      9  N   UNL     1      -0.644  -0.699  -3.273  1.00  0.00    -0.191 NA
ATOM     10  H   UNL     1       1.122   3.022  -1.686  1.00  0.00     0.168 HD
ENDROOT
BRANCH   1  11
ATOM     11  N   UNL     1      -1.394  -2.582  -2.203  1.00  0.00    -0.324 N 
ATOM     12  H   UNL     1      -1.555  -2.773  -3.183  1.00  0.00     0.170 HD
BRANCH  11  13
ATOM     13  C   UNL     1      -1.753  -3.580  -1.292  1.00  0.00     0.042 A 
ATOM     14  C   UNL     1      -2.716  -5.791  -0.927  1.00  0.00     0.043 A 
ATOM     15  C   UNL     1      -2.531  -5.672   0.446  1.00  0.00     0.020 A 
ATOM     16  C   UNL     1      -2.333  -4.760  -1.787  1.00  0.00     0.046 A 
ATOM     17  C   UNL     1      -1.959  -4.511   0.956  1.00  0.00     0.004 A 
ATOM     18  C   UNL     1      -1.576  -3.478   0.092  1.00  0.00     0.026 A 
ATOM     19  Cl  UNL     1      -3.423  -7.223  -1.571  1.00  0.00    -0.084 Cl
ENDBRANCH  11  13
ENDBRANCH   1  11
BRANCH   3  20
ATOM     20  O   UNL     1       0.394   1.007   0.379  1.00  0.00    -0.476 OA
BRANCH  20  21
ATOM     21  C   UNL     1       0.089   0.188   1.507  1.00  0.00     0.235 C 
BRANCH  21  22
ATOM     22  C   UNL     1       0.488   0.906   2.812  1.00  0.00     0.027 C 
ATOM     23  C   UNL     1      -0.361   2.161   3.070  1.00  0.00     0.007 C 
ATOM     24  C   UNL     1       2.003   1.199   2.862  1.00  0.00     0.007 C 
ATOM     25  C   UNL     1       0.051   3.389   2.260  1.00  0.00     0.000 C 
ATOM     26  C   UNL     1       2.345   2.671   3.079  1.00  0.00     0.000 C 
ATOM     27  C   UNL     1       1.563   3.561   2.123  1.00  0.00     0.000 C 
ENDBRANCH  21  22
ENDBRANCH  20  21
ENDBRANCH   3  20
TORSDOF 5
