REMARK SMILES NS(=O)(=O)Cc1cccc(Nc2nc(OCC3CCCCC3)c3[nH]cnc3n2)c1
REMARK SMILES IDX 6 1 7 2 8 3 9 4 10 5 29 6 5 7 2 8 3 9 4 10 1 11 11 14 12 16
REMARK SMILES IDX 13 17 28 18 14 19 27 20 23 21 26 22 24 23 25 24 15 26 16 27
REMARK SMILES IDX 17 28 18 29 22 30 19 31 21 32 20 33
REMARK H PARENT 1 12 1 13 11 15 24 25
ROOT
ATOM      1  C   UNL     1       0.578   1.946   1.838  1.00  0.00    -0.030 A 
ATOM      2  C   UNL     1       0.205   3.034   2.635  1.00  0.00     0.005 A 
ATOM      3  C   UNL     1      -1.137   3.384   2.756  1.00  0.00     0.002 A 
ATOM      4  C   UNL     1      -2.116   2.648   2.084  1.00  0.00     0.026 A 
ATOM      5  C   UNL     1      -1.778   1.544   1.289  1.00  0.00     0.041 A 
ATOM      6  C   UNL     1      -0.422   1.222   1.164  1.00  0.00     0.031 A 
ENDROOT
BRANCH   1   7
ATOM      7  C   UNL     1       2.023   1.549   1.697  1.00  0.00     0.189 C 
BRANCH   7   8
ATOM      8  S   UNL     1       2.570   0.592   3.121  1.00  0.00     0.213 S 
ATOM      9  O   UNL     1       3.846  -0.015   2.811  1.00  0.00    -0.212 OA
ATOM     10  O   UNL     1       2.377   1.341   4.342  1.00  0.00    -0.212 OA
BRANCH   8  11
ATOM     11  N   UNL     1       1.490  -0.685   3.189  1.00  0.00    -0.228 NA
ATOM     12  H   UNL     1       1.984  -1.577   3.167  1.00  0.00     0.137 HD
ATOM     13  H   UNL     1       0.853  -0.576   3.980  1.00  0.00     0.137 HD
ENDBRANCH   8  11
ENDBRANCH   7   8
ENDBRANCH   1   7
BRANCH   5  14
ATOM     14  N   UNL     1      -2.800   0.869   0.610  1.00  0.00    -0.324 N 
ATOM     15  H   UNL     1      -3.698   0.853   1.076  1.00  0.00     0.170 HD
BRANCH  14  16
ATOM     16  C   UNL     1      -2.784  -0.132  -0.363  1.00  0.00     0.232 A 
ATOM     17  N   UNL     1      -1.720  -0.265  -1.188  1.00  0.00    -0.175 NA
ATOM     18  N   UNL     1      -3.899  -0.872  -0.409  1.00  0.00    -0.191 NA
ATOM     19  C   UNL     1      -1.741  -1.217  -2.138  1.00  0.00     0.245 A 
ATOM     20  C   UNL     1      -3.880  -1.844  -1.333  1.00  0.00     0.186 A 
ATOM     21  C   UNL     1      -2.827  -2.046  -2.197  1.00  0.00     0.148 A 
ATOM     22  N   UNL     1      -4.877  -2.756  -1.560  1.00  0.00    -0.217 NA
ATOM     23  N   UNL     1      -3.192  -3.112  -2.965  1.00  0.00    -0.339 N 
ATOM     24  C   UNL     1      -4.433  -3.507  -2.545  1.00  0.00     0.199 A 
ATOM     25  H   UNL     1      -2.644  -3.529  -3.706  1.00  0.00     0.168 HD
BRANCH  19  26
ATOM     26  O   UNL     1      -0.678  -1.390  -2.993  1.00  0.00    -0.476 OA
BRANCH  26  27
ATOM     27  C   UNL     1      -0.045  -0.159  -3.357  1.00  0.00     0.235 C 
BRANCH  27  28
ATOM     28  C   UNL     1       1.255   0.068  -2.568  1.00  0.00     0.027 C 
ATOM     29  C   UNL     1       1.913   1.384  -3.009  1.00  0.00     0.007 C 
ATOM     30  C   UNL     1       2.227  -1.112  -2.724  1.00  0.00     0.007 C 
ATOM     31  C   UNL     1       3.242   1.631  -2.300  1.00  0.00     0.000 C 
ATOM     32  C   UNL     1       3.546  -0.855  -1.998  1.00  0.00     0.000 C 
ATOM     33  C   UNL     1       4.193   0.449  -2.451  1.00  0.00     0.000 C 
ENDBRANCH  27  28
ENDBRANCH  26  27
ENDBRANCH  19  26
ENDBRANCH  14  16
ENDBRANCH   5  14
TORSDOF 8
