REMARK SMILES Cc1cc(N2CCOCC2)ccc1Nc1nc(OC2CCCCC2)c2[nH]cnc2n1
REMARK SMILES IDX 15 1 16 2 17 3 25 4 26 5 27 6 28 7 29 8 30 9 14 11 13 13
REMARK SMILES IDX 2 14 3 15 4 16 12 17 11 18 1 19 5 20 6 21 10 22 7 23 9 24
REMARK SMILES IDX 8 25 18 26 19 27 20 28 24 29 21 30 23 31 22 32
REMARK H PARENT 26 10 14 12
ROOT
ATOM      1  C   UNL     1       1.962  -2.227   0.735  1.00  0.00     0.232 A 
ATOM      2  N   UNL     1       1.002  -2.136  -0.210  1.00  0.00    -0.175 NA
ATOM      3  C   UNL     1       0.841  -3.140  -1.092  1.00  0.00     0.245 A 
ATOM      4  C   UNL     1       1.670  -4.224  -0.986  1.00  0.00     0.148 A 
ATOM      5  N   UNL     1       1.822  -5.395  -1.668  1.00  0.00    -0.339 N 
ATOM      6  C   UNL     1       2.844  -6.082  -1.069  1.00  0.00     0.199 A 
ATOM      7  N   UNL     1       3.351  -5.415  -0.054  1.00  0.00    -0.217 NA
ATOM      8  C   UNL     1       2.626  -4.252   0.003  1.00  0.00     0.186 A 
ATOM      9  N   UNL     1       2.804  -3.259   0.885  1.00  0.00    -0.191 NA
ATOM     10  H   UNL     1       1.279  -5.695  -2.466  1.00  0.00     0.168 HD
ENDROOT
BRANCH   1  11
ATOM     11  N   UNL     1       2.184  -1.184   1.635  1.00  0.00    -0.324 N 
ATOM     12  H   UNL     1       2.957  -1.442   2.231  1.00  0.00     0.170 HD
BRANCH  11  13
ATOM     13  C   UNL     1       1.479  -0.025   1.987  1.00  0.00     0.044 A 
ATOM     14  C   UNL     1       2.102   0.965   2.775  1.00  0.00    -0.025 A 
ATOM     15  C   UNL     1       1.403   2.145   3.107  1.00  0.00     0.031 A 
ATOM     16  C   UNL     1       0.096   2.397   2.666  1.00  0.00     0.037 A 
ATOM     17  C   UNL     1       0.185   0.239   1.529  1.00  0.00     0.028 A 
ATOM     18  C   UNL     1      -0.497   1.418   1.867  1.00  0.00     0.028 A 
ATOM     19  C   UNL     1       3.504   0.795   3.298  1.00  0.00     0.046 C 
BRANCH  16  20
ATOM     20  N   UNL     1      -0.531   3.594   3.031  1.00  0.00    -0.367 N 
ATOM     21  C   UNL     1      -2.006   3.688   3.016  1.00  0.00     0.145 C 
ATOM     22  C   UNL     1       0.151   4.792   2.477  1.00  0.00     0.145 C 
ATOM     23  C   UNL     1      -2.483   4.517   1.816  1.00  0.00     0.181 C 
ATOM     24  C   UNL     1      -0.766   6.024   2.554  1.00  0.00     0.181 C 
ATOM     25  O   UNL     1      -1.990   5.869   1.818  1.00  0.00    -0.378 OA
ENDBRANCH  16  20
ENDBRANCH  11  13
ENDBRANCH   1  11
BRANCH   3  26
ATOM     26  O   UNL     1      -0.105  -3.090  -2.092  1.00  0.00    -0.473 OA
BRANCH  26  27
ATOM     27  C   UNL     1      -0.894  -1.888  -2.121  1.00  0.00     0.175 C 
ATOM     28  C   UNL     1      -0.133  -0.745  -2.823  1.00  0.00     0.045 C 
ATOM     29  C   UNL     1      -2.201  -2.252  -2.848  1.00  0.00     0.045 C 
ATOM     30  C   UNL     1      -0.466  -0.657  -4.309  1.00  0.00     0.004 C 
ATOM     31  C   UNL     1      -2.856  -1.032  -3.479  1.00  0.00     0.004 C 
ATOM     32  C   UNL     1      -1.957  -0.402  -4.543  1.00  0.00     0.000 C 
ENDBRANCH  26  27
ENDBRANCH   3  26
TORSDOF 5
