REMARK SMILES c1cncc(-c2nc3ncnc(OCC4CCCCC4)c3[nH]2)c1
REMARK SMILES IDX 13 1 12 2 6 3 7 4 22 5 8 6 21 7 9 8 10 9 11 10 5 12 1 13
REMARK SMILES IDX 2 14 23 15 3 16 4 17 14 18 15 19 16 20 20 21 17 22 19 23
REMARK SMILES IDX 18 24
REMARK H PARENT 22 11
ROOT
ATOM      1  O   UNL     1       1.220  -1.404   0.529  1.00  0.00    -0.476 OA
ENDROOT
BRANCH   1   2
ATOM      2  C   UNL     1      -0.044  -1.630   1.025  1.00  0.00     0.243 A 
ATOM      3  C   UNL     1      -2.394   0.997   0.360  1.00  0.00     0.142 A 
ATOM      4  N   UNL     1      -3.128   0.123   1.035  1.00  0.00    -0.208 NA
ATOM      5  N   UNL     1      -1.106   0.518   0.224  1.00  0.00    -0.332 N 
ATOM      6  C   UNL     1      -2.299  -0.923   1.331  1.00  0.00     0.185 A 
ATOM      7  C   UNL     1      -1.035  -0.698   0.836  1.00  0.00     0.148 A 
ATOM      8  N   UNL     1      -2.640  -2.032   2.011  1.00  0.00    -0.215 NA
ATOM      9  C   UNL     1      -1.616  -2.887   2.150  1.00  0.00     0.228 A 
ATOM     10  N   UNL     1      -0.350  -2.753   1.701  1.00  0.00    -0.200 NA
ATOM     11  H   UNL     1      -0.337   0.976  -0.244  1.00  0.00     0.168 HD
BRANCH   3  12
ATOM     12  C   UNL     1      -2.870   2.279  -0.164  1.00  0.00     0.036 A 
ATOM     13  C   UNL     1      -4.662   3.882  -0.464  1.00  0.00     0.021 A 
ATOM     14  C   UNL     1      -3.772   4.690  -1.149  1.00  0.00     0.111 A 
ATOM     15  C   UNL     1      -4.201   2.664   0.032  1.00  0.00     0.015 A 
ATOM     16  N   UNL     1      -2.480   4.363  -1.364  1.00  0.00    -0.264 NA
ATOM     17  C   UNL     1      -2.064   3.171  -0.868  1.00  0.00     0.122 A 
ENDBRANCH   3  12
ENDBRANCH   1   2
BRANCH   1  18
ATOM     18  C   UNL     1       2.136  -2.462   0.820  1.00  0.00     0.235 C 
BRANCH  18  19
ATOM     19  C   UNL     1       3.520  -2.123   0.237  1.00  0.00     0.027 C 
ATOM     20  C   UNL     1       3.477  -2.099  -1.304  1.00  0.00     0.007 C 
ATOM     21  C   UNL     1       4.094  -0.817   0.827  1.00  0.00     0.007 C 
ATOM     22  C   UNL     1       4.674  -1.354  -1.880  1.00  0.00     0.000 C 
ATOM     23  C   UNL     1       3.974   0.369  -0.124  1.00  0.00     0.000 C 
ATOM     24  C   UNL     1       4.689   0.114  -1.451  1.00  0.00     0.000 C 
ENDBRANCH  18  19
ENDBRANCH   1  18
TORSDOF 4
