REMARK SMILES c1ccc(-c2nc3ncnc(OC4CCCC4)c3[nH]2)cc1
REMARK SMILES IDX 5 1 6 2 7 3 8 4 9 5 10 6 11 7 18 8 19 9 4 11 1 12 2 13 21 14
REMARK SMILES IDX 3 15 20 16 12 17 13 18 14 19 17 20 15 21 16 22
REMARK H PARENT 19 10
ROOT
ATOM      1  C   UNL     1      -0.469   0.062   2.133  1.00  0.00     0.140 A 
ATOM      2  N   UNL     1       0.581  -0.572   2.634  1.00  0.00    -0.208 NA
ATOM      3  C   UNL     1       1.258  -1.090   1.565  1.00  0.00     0.185 A 
ATOM      4  N   UNL     1       2.389  -1.815   1.623  1.00  0.00    -0.215 NA
ATOM      5  C   UNL     1       2.824  -2.190   0.412  1.00  0.00     0.228 A 
ATOM      6  N   UNL     1       2.273  -1.927  -0.792  1.00  0.00    -0.200 NA
ATOM      7  C   UNL     1       1.142  -1.196  -0.814  1.00  0.00     0.243 A 
ATOM      8  C   UNL     1       0.625  -0.771   0.386  1.00  0.00     0.148 A 
ATOM      9  N   UNL     1      -0.464  -0.040   0.758  1.00  0.00    -0.332 N 
ATOM     10  H   UNL     1      -1.141   0.359   0.125  1.00  0.00     0.168 HD
ENDROOT
BRANCH   1  11
ATOM     11  C   UNL     1      -1.488   0.779   2.911  1.00  0.00     0.017 A 
ATOM     12  C   UNL     1      -3.390   2.137   4.484  1.00  0.00     0.000 A 
ATOM     13  C   UNL     1      -3.574   2.019   3.109  1.00  0.00     0.001 A 
ATOM     14  C   UNL     1      -2.263   1.579   5.081  1.00  0.00     0.001 A 
ATOM     15  C   UNL     1      -2.631   1.345   2.326  1.00  0.00     0.012 A 
ATOM     16  C   UNL     1      -1.321   0.905   4.299  1.00  0.00     0.012 A 
ENDBRANCH   1  11
BRANCH   7  17
ATOM     17  O   UNL     1       0.503  -0.880  -1.992  1.00  0.00    -0.473 OA
BRANCH  17  18
ATOM     18  C   UNL     1       1.123  -1.423  -3.164  1.00  0.00     0.175 C 
ATOM     19  C   UNL     1       0.661  -2.856  -3.421  1.00  0.00     0.045 C 
ATOM     20  C   UNL     1       0.551  -0.688  -4.376  1.00  0.00     0.045 C 
ATOM     21  C   UNL     1      -0.754  -2.710  -3.977  1.00  0.00     0.004 C 
ATOM     22  C   UNL     1      -0.825  -1.313  -4.593  1.00  0.00     0.004 C 
ENDBRANCH  17  18
ENDBRANCH   7  17
TORSDOF 3
