REMARK SMILES COc1cccc(Nc2nc(OCC3CCCCC3)c3[nH]cnc3n2)c1
REMARK SMILES IDX 9 1 10 2 11 3 20 4 21 5 22 6 23 7 24 8 25 9 8 11 7 13 3 14
REMARK SMILES IDX 4 15 26 16 5 17 6 18 2 19 1 20 12 21 13 22 14 23 15 24 19 25
REMARK SMILES IDX 16 26 18 27 17 28
REMARK H PARENT 21 10 8 12
ROOT
ATOM      1  C   UNL     1      -1.750  -1.191  -2.761  1.00  0.00     0.232 A 
ATOM      2  N   UNL     1      -2.080  -0.645  -1.571  1.00  0.00    -0.175 NA
ATOM      3  C   UNL     1      -3.309  -0.848  -1.063  1.00  0.00     0.245 A 
ATOM      4  C   UNL     1      -4.176  -1.627  -1.782  1.00  0.00     0.148 A 
ATOM      5  N   UNL     1      -5.455  -2.066  -1.605  1.00  0.00    -0.339 N 
ATOM      6  C   UNL     1      -5.777  -2.825  -2.698  1.00  0.00     0.199 A 
ATOM      7  N   UNL     1      -4.780  -2.894  -3.553  1.00  0.00    -0.217 NA
ATOM      8  C   UNL     1      -3.776  -2.152  -2.989  1.00  0.00     0.186 A 
ATOM      9  N   UNL     1      -2.560  -1.946  -3.515  1.00  0.00    -0.191 NA
ATOM     10  H   UNL     1      -6.050  -1.865  -0.813  1.00  0.00     0.168 HD
ENDROOT
BRANCH   1  11
ATOM     11  N   UNL     1      -0.488  -0.988  -3.322  1.00  0.00    -0.324 N 
ATOM     12  H   UNL     1      -0.450  -1.470  -4.209  1.00  0.00     0.170 HD
BRANCH  11  13
ATOM     13  C   UNL     1       0.694  -0.377  -2.890  1.00  0.00     0.045 A 
ATOM     14  C   UNL     1       2.982   0.320  -3.441  1.00  0.00     0.120 A 
ATOM     15  C   UNL     1       3.127   0.871  -2.171  1.00  0.00     0.046 A 
ATOM     16  C   UNL     1       1.772  -0.294  -3.788  1.00  0.00     0.072 A 
ATOM     17  C   UNL     1       2.068   0.808  -1.267  1.00  0.00     0.006 A 
ATOM     18  C   UNL     1       0.864   0.194  -1.628  1.00  0.00     0.026 A 
BRANCH  14  19
ATOM     19  O   UNL     1       3.930   0.312  -4.428  1.00  0.00    -0.497 OA
ATOM     20  C   UNL     1       5.175   0.929  -4.127  1.00  0.00     0.278 C 
ENDBRANCH  14  19
ENDBRANCH  11  13
ENDBRANCH   1  11
BRANCH   3  21
ATOM     21  O   UNL     1      -3.694  -0.335   0.154  1.00  0.00    -0.476 OA
BRANCH  21  22
ATOM     22  C   UNL     1      -2.804   0.623   0.732  1.00  0.00     0.235 C 
BRANCH  22  23
ATOM     23  C   UNL     1      -2.251   0.090   2.062  1.00  0.00     0.027 C 
ATOM     24  C   UNL     1      -1.401   1.150   2.768  1.00  0.00     0.007 C 
ATOM     25  C   UNL     1      -1.452  -1.215   1.877  1.00  0.00     0.007 C 
ATOM     26  C   UNL     1      -0.961   0.695   4.163  1.00  0.00     0.000 C 
ATOM     27  C   UNL     1      -0.440  -1.481   2.995  1.00  0.00     0.000 C 
ATOM     28  C   UNL     1      -0.845  -0.822   4.306  1.00  0.00     0.000 C 
ENDBRANCH  22  23
ENDBRANCH  21  22
ENDBRANCH   3  21
TORSDOF 6
