REMARK SMILES Brc1cccc(Nc2nc(OCC3CCCCC3)c3[nH]cnc3n2)c1
REMARK SMILES IDX 8 1 9 2 10 3 19 4 20 5 21 6 22 7 23 8 24 9 7 11 6 13 2 14
REMARK SMILES IDX 3 15 25 16 4 17 5 18 1 19 11 20 12 21 13 22 14 23 18 24
REMARK SMILES IDX 15 25 17 26 16 27
REMARK H PARENT 20 10 7 12
ROOT
ATOM      1  C   UNL     1      -2.310   2.175  -1.207  1.00  0.00     0.232 A 
ATOM      2  N   UNL     1      -1.157   1.640  -0.751  1.00  0.00    -0.175 NA
ATOM      3  C   UNL     1      -0.506   2.235   0.266  1.00  0.00     0.245 A 
ATOM      4  C   UNL     1      -1.054   3.369   0.801  1.00  0.00     0.148 A 
ATOM      5  N   UNL     1      -0.714   4.227   1.805  1.00  0.00    -0.339 N 
ATOM      6  C   UNL     1      -1.683   5.192   1.859  1.00  0.00     0.199 A 
ATOM      7  N   UNL     1      -2.615   4.997   0.950  1.00  0.00    -0.217 NA
ATOM      8  C   UNL     1      -2.231   3.861   0.286  1.00  0.00     0.186 A 
ATOM      9  N   UNL     1      -2.889   3.284  -0.729  1.00  0.00    -0.191 NA
ATOM     10  H   UNL     1       0.103   4.157   2.397  1.00  0.00     0.168 HD
ENDROOT
BRANCH   1  11
ATOM     11  N   UNL     1      -3.011   1.586  -2.261  1.00  0.00    -0.324 N 
ATOM     12  H   UNL     1      -3.837   2.142  -2.440  1.00  0.00     0.170 HD
BRANCH  11  13
ATOM     13  C   UNL     1      -2.848   0.427  -3.026  1.00  0.00     0.042 A 
ATOM     14  C   UNL     1      -3.652  -0.968  -4.859  1.00  0.00     0.020 A 
ATOM     15  C   UNL     1      -2.614  -1.871  -4.660  1.00  0.00     0.016 A 
ATOM     16  C   UNL     1      -3.769   0.169  -4.055  1.00  0.00     0.041 A 
ATOM     17  C   UNL     1      -1.689  -1.629  -3.649  1.00  0.00     0.003 A 
ATOM     18  C   UNL     1      -1.807  -0.490  -2.845  1.00  0.00     0.026 A 
ATOM     19  Br  UNL     1      -4.915  -1.281  -6.231  1.00  0.00    -0.051 Br
ENDBRANCH  11  13
ENDBRANCH   1  11
BRANCH   3  20
ATOM     20  O   UNL     1       0.668   1.729   0.776  1.00  0.00    -0.476 OA
BRANCH  20  21
ATOM     21  C   UNL     1       1.166   0.567   0.103  1.00  0.00     0.235 C 
BRANCH  21  22
ATOM     22  C   UNL     1       0.549  -0.728   0.669  1.00  0.00     0.027 C 
ATOM     23  C   UNL     1       1.054  -1.965  -0.090  1.00  0.00     0.007 C 
ATOM     24  C   UNL     1       0.792  -0.887   2.180  1.00  0.00     0.007 C 
ATOM     25  C   UNL     1       2.501  -2.323   0.246  1.00  0.00     0.000 C 
ATOM     26  C   UNL     1       2.239  -1.242   2.517  1.00  0.00     0.000 C 
ATOM     27  C   UNL     1       2.710  -2.473   1.749  1.00  0.00     0.000 C 
ENDBRANCH  21  22
ENDBRANCH  20  21
ENDBRANCH   3  20
TORSDOF 5
