REMARK SMILES CN(C)S(=O)(=O)c1ccc(Nc2nc(OCC3CCCCC3)c3[nH]cnc3n2)cc1
REMARK SMILES IDX 11 1 10 3 7 4 8 5 30 6 9 7 29 8 4 9 5 10 6 11 2 12 1 13 3 14
REMARK SMILES IDX 12 15 13 16 28 17 14 18 27 19 23 20 26 21 24 22 25 23 15 25
REMARK SMILES IDX 16 26 17 27 18 28 22 29 19 30 21 31 20 32
REMARK H PARENT 11 2 24 24
ROOT
ATOM      1  N   UNL     1       0.655   1.237   2.531  1.00  0.00    -0.324 N 
ATOM      2  H   UNL     1       0.944   2.003   3.124  1.00  0.00     0.170 HD
ENDROOT
BRANCH   1   3
ATOM      3  C   UNL     1       1.587   0.775   1.597  1.00  0.00     0.041 A 
ATOM      4  C   UNL     1       3.541  -0.036  -0.264  1.00  0.00     0.082 A 
ATOM      5  C   UNL     1       2.340  -0.737  -0.166  1.00  0.00     0.024 A 
ATOM      6  C   UNL     1       3.787   1.058   0.562  1.00  0.00     0.024 A 
ATOM      7  C   UNL     1       1.372  -0.322   0.756  1.00  0.00     0.027 A 
ATOM      8  C   UNL     1       2.811   1.457   1.481  1.00  0.00     0.027 A 
BRANCH   4   9
ATOM      9  S   UNL     1       4.789  -0.549  -1.416  1.00  0.00     0.242 S 
ATOM     10  O   UNL     1       6.056  -0.518  -0.717  1.00  0.00    -0.207 OA
ATOM     11  O   UNL     1       4.333  -1.751  -2.086  1.00  0.00    -0.207 OA
BRANCH   9  12
ATOM     12  N   UNL     1       4.781   0.717  -2.572  1.00  0.00    -0.204 NA
ATOM     13  C   UNL     1       3.530   0.841  -3.354  1.00  0.00     0.124 C 
ATOM     14  C   UNL     1       5.971   0.693  -3.454  1.00  0.00     0.124 C 
ENDBRANCH   9  12
ENDBRANCH   4   9
ENDBRANCH   1   3
BRANCH   1  15
ATOM     15  C   UNL     1      -0.644   0.874   2.889  1.00  0.00     0.232 A 
ATOM     16  N   UNL     1      -1.293  -0.125   2.252  1.00  0.00    -0.175 NA
ATOM     17  N   UNL     1      -1.151   1.614   3.885  1.00  0.00    -0.191 NA
ATOM     18  C   UNL     1      -2.551  -0.438   2.616  1.00  0.00     0.245 A 
ATOM     19  C   UNL     1      -2.408   1.298   4.227  1.00  0.00     0.186 A 
ATOM     20  C   UNL     1      -3.128   0.296   3.617  1.00  0.00     0.148 A 
ATOM     21  N   UNL     1      -3.152   1.907   5.202  1.00  0.00    -0.217 NA
ATOM     22  N   UNL     1      -4.344   0.301   4.234  1.00  0.00    -0.339 N 
ATOM     23  C   UNL     1      -4.312   1.286   5.184  1.00  0.00     0.199 A 
ATOM     24  H   UNL     1      -5.120  -0.314   4.027  1.00  0.00     0.168 HD
BRANCH  18  25
ATOM     25  O   UNL     1      -3.275  -1.419   1.982  1.00  0.00    -0.476 OA
BRANCH  25  26
ATOM     26  C   UNL     1      -2.532  -2.286   1.124  1.00  0.00     0.235 C 
BRANCH  26  27
ATOM     27  C   UNL     1      -2.947  -2.112  -0.348  1.00  0.00     0.027 C 
ATOM     28  C   UNL     1      -2.463  -0.767  -0.922  1.00  0.00     0.007 C 
ATOM     29  C   UNL     1      -4.462  -2.324  -0.556  1.00  0.00     0.007 C 
ATOM     30  C   UNL     1      -3.192  -0.424  -2.215  1.00  0.00     0.000 C 
ATOM     31  C   UNL     1      -5.221  -1.020  -0.775  1.00  0.00     0.000 C 
ATOM     32  C   UNL     1      -4.694  -0.249  -1.987  1.00  0.00     0.000 C 
ENDBRANCH  26  27
ENDBRANCH  25  26
ENDBRANCH  18  25
ENDBRANCH   1  15
TORSDOF 7
