REMARK SMILES Nc1nc(OCCc2ccccc2)c2[nH]cnc2n1
REMARK SMILES IDX 5 1 4 2 2 3 3 4 19 5 18 6 14 7 17 8 15 9 16 10 1 12 6 15
REMARK SMILES IDX 7 16 8 17 9 18 13 19 10 20 12 21 11 22
REMARK H PARENT 15 11 1 13 1 14
ROOT
ATOM      1  O   UNL     1       0.645  -1.345   1.422  1.00  0.00    -0.476 OA
ENDROOT
BRANCH   1   2
ATOM      2  C   UNL     1       1.590  -0.545   0.831  1.00  0.00     0.245 A 
ATOM      3  C   UNL     1       3.682  -0.269  -0.092  1.00  0.00     0.225 A 
ATOM      4  N   UNL     1       2.772  -1.077   0.479  1.00  0.00    -0.176 NA
ATOM      5  N   UNL     1       3.559   1.040  -0.327  1.00  0.00    -0.191 NA
ATOM      6  C   UNL     1       2.369   1.545   0.036  1.00  0.00     0.186 A 
ATOM      7  C   UNL     1       1.373   0.788   0.611  1.00  0.00     0.148 A 
ATOM      8  N   UNL     1       1.966   2.847  -0.107  1.00  0.00    -0.217 NA
ATOM      9  N   UNL     1       0.329   1.644   0.798  1.00  0.00    -0.339 N 
ATOM     10  C   UNL     1       0.733   2.874   0.354  1.00  0.00     0.199 A 
ATOM     11  H   UNL     1      -0.584   1.402   1.161  1.00  0.00     0.168 HD
BRANCH   3  12
ATOM     12  N   UNL     1       4.884  -0.854  -0.449  1.00  0.00    -0.368 N 
ATOM     13  H   UNL     1       5.606  -0.146  -0.481  1.00  0.00     0.159 HD
ATOM     14  H   UNL     1       5.055  -1.664   0.130  1.00  0.00     0.159 HD
ENDBRANCH   3  12
ENDBRANCH   1   2
BRANCH   1  15
ATOM     15  C   UNL     1       0.192  -2.326   0.480  1.00  0.00     0.236 C 
BRANCH  15  16
ATOM     16  C   UNL     1      -1.327  -2.469   0.623  1.00  0.00     0.077 C 
BRANCH  16  17
ATOM     17  C   UNL     1      -2.067  -1.185   0.312  1.00  0.00    -0.045 A 
ATOM     18  C   UNL     1      -2.789  -0.521   1.315  1.00  0.00     0.004 A 
ATOM     19  C   UNL     1      -2.031  -0.630  -0.976  1.00  0.00     0.004 A 
ATOM     20  C   UNL     1      -3.454   0.674   1.038  1.00  0.00     0.000 A 
ATOM     21  C   UNL     1      -2.690   0.569  -1.250  1.00  0.00     0.000 A 
ATOM     22  C   UNL     1      -3.401   1.222  -0.243  1.00  0.00     0.000 A 
ENDBRANCH  16  17
ENDBRANCH  15  16
ENDBRANCH   1  15
TORSDOF 5
