REMARK SMILES CS(=O)(=O)c1ccc(Nc2nc(OCC3CCCCC3)c3[nH]cnc3n2)cc1
REMARK SMILES IDX 10 1 11 2 12 3 21 4 22 5 23 6 24 7 25 8 26 9 9 11 8 13 5 14
REMARK SMILES IDX 6 15 28 16 7 17 27 18 2 19 1 20 3 21 4 22 13 23 14 24 15 25
REMARK SMILES IDX 16 26 20 27 17 28 19 29 18 30
REMARK H PARENT 22 10 9 12
ROOT
ATOM      1  C   UNL     1      -0.882   2.563  -0.860  1.00  0.00     0.232 A 
ATOM      2  N   UNL     1      -0.335   1.892   0.176  1.00  0.00    -0.175 NA
ATOM      3  C   UNL     1       0.152   2.580   1.225  1.00  0.00     0.245 A 
ATOM      4  C   UNL     1       0.088   3.946   1.185  1.00  0.00     0.148 A 
ATOM      5  N   UNL     1       0.486   4.959   2.005  1.00  0.00    -0.339 N 
ATOM      6  C   UNL     1       0.114   6.133   1.408  1.00  0.00     0.199 A 
ATOM      7  N   UNL     1      -0.487   5.926   0.257  1.00  0.00    -0.217 NA
ATOM      8  C   UNL     1      -0.505   4.564   0.108  1.00  0.00     0.186 A 
ATOM      9  N   UNL     1      -1.016   3.894  -0.935  1.00  0.00    -0.191 NA
ATOM     10  H   UNL     1       0.963   4.855   2.890  1.00  0.00     0.168 HD
ENDROOT
BRANCH   1  11
ATOM     11  N   UNL     1      -1.373   1.885  -1.978  1.00  0.00    -0.324 N 
ATOM     12  H   UNL     1      -1.731   2.573  -2.628  1.00  0.00     0.170 HD
BRANCH  11  13
ATOM     13  C   UNL     1      -1.297   0.566  -2.435  1.00  0.00     0.041 A 
ATOM     14  C   UNL     1      -1.253  -2.057  -3.459  1.00  0.00     0.067 A 
ATOM     15  C   UNL     1      -1.911  -1.052  -4.166  1.00  0.00     0.022 A 
ATOM     16  C   UNL     1      -0.616  -1.771  -2.254  1.00  0.00     0.022 A 
ATOM     17  C   UNL     1      -1.937   0.245  -3.647  1.00  0.00     0.027 A 
ATOM     18  C   UNL     1      -0.648  -0.466  -1.749  1.00  0.00     0.027 A 
BRANCH  14  19
ATOM     19  S   UNL     1      -1.165  -3.696  -4.142  1.00  0.00     0.175 S 
ATOM     20  C   UNL     1      -2.692  -4.435  -3.634  1.00  0.00     0.163 C 
ATOM     21  O   UNL     1      -0.083  -4.398  -3.478  1.00  0.00    -0.224 OA
ATOM     22  O   UNL     1      -1.188  -3.565  -5.584  1.00  0.00    -0.224 OA
ENDBRANCH  14  19
ENDBRANCH  11  13
ENDBRANCH   1  11
BRANCH   3  23
ATOM     23  O   UNL     1       0.783   1.939   2.267  1.00  0.00    -0.476 OA
BRANCH  23  24
ATOM     24  C   UNL     1       0.234   0.655   2.559  1.00  0.00     0.235 C 
BRANCH  24  25
ATOM     25  C   UNL     1       1.210  -0.197   3.397  1.00  0.00     0.027 C 
ATOM     26  C   UNL     1       2.498  -0.545   2.631  1.00  0.00     0.007 C 
ATOM     27  C   UNL     1       1.529   0.416   4.773  1.00  0.00     0.007 C 
ATOM     28  C   UNL     1       3.543   0.567   2.613  1.00  0.00     0.000 C 
ATOM     29  C   UNL     1       2.584   1.519   4.749  1.00  0.00     0.000 C 
ATOM     30  C   UNL     1       3.846   1.085   4.016  1.00  0.00     0.000 C 
ENDBRANCH  24  25
ENDBRANCH  23  24
ENDBRANCH   3  23
TORSDOF 6
