REMARK SMILES NC(=O)Cc1ccc(Nc2nc(OCC3CCCCC3)c3[nH]cnc3n2)cc1
REMARK SMILES IDX 9 1 8 3 5 4 6 5 28 6 7 7 27 8 4 9 2 10 1 11 3 14 10 15 11 16
REMARK SMILES IDX 26 17 12 18 25 19 21 20 24 21 22 22 23 23 13 25 14 26 15 27
REMARK SMILES IDX 16 28 20 29 17 30 19 31 18 32
REMARK H PARENT 9 2 1 12 1 13 22 24
ROOT
ATOM      1  N   UNL     1       1.213  -2.236  -0.734  1.00  0.00    -0.324 N 
ATOM      2  H   UNL     1       1.749  -2.980  -1.156  1.00  0.00     0.170 HD
ENDROOT
BRANCH   1   3
ATOM      3  C   UNL     1       1.439  -1.985   0.622  1.00  0.00     0.041 A 
ATOM      4  C   UNL     1       1.943  -1.617   3.396  1.00  0.00    -0.039 A 
ATOM      5  C   UNL     1       2.513  -2.691   2.705  1.00  0.00     0.006 A 
ATOM      6  C   UNL     1       1.121  -0.733   2.693  1.00  0.00     0.006 A 
ATOM      7  C   UNL     1       2.260  -2.870   1.340  1.00  0.00     0.026 A 
ATOM      8  C   UNL     1       0.875  -0.920   1.326  1.00  0.00     0.026 A 
BRANCH   4   9
ATOM      9  C   UNL     1       2.216  -1.410   4.864  1.00  0.00     0.135 C 
BRANCH   9  10
ATOM     10  C   UNL     1       1.624  -2.495   5.745  1.00  0.00     0.221 C 
ATOM     11  N   UNL     1       2.505  -3.101   6.598  1.00  0.00    -0.369 N 
ATOM     12  H   UNL     1       2.144  -3.878   7.138  1.00  0.00     0.159 HD
ATOM     13  H   UNL     1       3.505  -3.012   6.499  1.00  0.00     0.159 HD
ATOM     14  O   UNL     1       0.443  -2.824   5.742  1.00  0.00    -0.275 OA
ENDBRANCH   9  10
ENDBRANCH   4   9
ENDBRANCH   1   3
BRANCH   1  15
ATOM     15  C   UNL     1       0.407  -1.658  -1.717  1.00  0.00     0.232 A 
ATOM     16  N   UNL     1      -0.446  -0.655  -1.418  1.00  0.00    -0.175 NA
ATOM     17  N   UNL     1       0.565  -2.199  -2.933  1.00  0.00    -0.191 NA
ATOM     18  C   UNL     1      -1.220  -0.127  -2.384  1.00  0.00     0.245 A 
ATOM     19  C   UNL     1      -0.205  -1.656  -3.887  1.00  0.00     0.186 A 
ATOM     20  C   UNL     1      -1.093  -0.633  -3.650  1.00  0.00     0.148 A 
ATOM     21  N   UNL     1      -0.226  -2.022  -5.207  1.00  0.00    -0.217 NA
ATOM     22  N   UNL     1      -1.668  -0.368  -4.858  1.00  0.00    -0.339 N 
ATOM     23  C   UNL     1      -1.117  -1.231  -5.766  1.00  0.00     0.199 A 
ATOM     24  H   UNL     1      -2.372   0.333  -5.041  1.00  0.00     0.168 HD
BRANCH  18  25
ATOM     25  O   UNL     1      -2.089   0.912  -2.142  1.00  0.00    -0.476 OA
BRANCH  25  26
ATOM     26  C   UNL     1      -2.262   1.275  -0.771  1.00  0.00     0.235 C 
BRANCH  26  27
ATOM     27  C   UNL     1      -1.716   2.689  -0.489  1.00  0.00     0.027 C 
ATOM     28  C   UNL     1      -0.193   2.803  -0.714  1.00  0.00     0.007 C 
ATOM     29  C   UNL     1      -2.501   3.752  -1.284  1.00  0.00     0.007 C 
ATOM     30  C   UNL     1       0.160   3.466  -2.041  1.00  0.00     0.000 C 
ATOM     31  C   UNL     1      -1.726   5.061  -1.380  1.00  0.00     0.000 C 
ATOM     32  C   UNL     1      -0.407   4.883  -2.135  1.00  0.00     0.000 C 
ENDBRANCH  26  27
ENDBRANCH  25  26
ENDBRANCH  18  25
ENDBRANCH   1  15
TORSDOF 7
