REMARK SMILES CS(=O)c1ccc(Nc2nc(OCC3CCCCC3)c3[nH]cnc3n2)cc1
REMARK SMILES IDX 9 1 10 2 11 3 20 4 21 5 22 6 23 7 24 8 25 9 8 11 7 13 4 14
REMARK SMILES IDX 5 15 27 16 6 17 26 18 2 19 1 20 3 21 12 22 13 23 14 24 15 25
REMARK SMILES IDX 19 26 16 27 18 28 17 29
REMARK H PARENT 21 10 8 12
ROOT
ATOM      1  C   UNL     1       0.771  -0.956   2.410  1.00  0.00     0.232 A 
ATOM      2  N   UNL     1       1.267  -0.164   1.433  1.00  0.00    -0.175 NA
ATOM      3  C   UNL     1       2.495  -0.412   0.940  1.00  0.00     0.245 A 
ATOM      4  C   UNL     1       3.188  -1.475   1.451  1.00  0.00     0.148 A 
ATOM      5  N   UNL     1       4.410  -2.036   1.218  1.00  0.00    -0.339 N 
ATOM      6  C   UNL     1       4.537  -3.100   2.070  1.00  0.00     0.199 A 
ATOM      7  N   UNL     1       3.471  -3.246   2.828  1.00  0.00    -0.217 NA
ATOM      8  C   UNL     1       2.624  -2.238   2.447  1.00  0.00     0.186 A 
ATOM      9  N   UNL     1       1.407  -1.999   2.959  1.00  0.00    -0.191 NA
ATOM     10  H   UNL     1       5.091  -1.719   0.541  1.00  0.00     0.168 HD
ENDROOT
BRANCH   1  11
ATOM     11  N   UNL     1      -0.484  -0.703   2.966  1.00  0.00    -0.324 N 
ATOM     12  H   UNL     1      -0.654  -1.377   3.699  1.00  0.00     0.170 HD
BRANCH  11  13
ATOM     13  C   UNL     1      -1.549   0.134   2.618  1.00  0.00     0.041 A 
ATOM     14  C   UNL     1      -3.719   1.871   2.072  1.00  0.00     0.039 A 
ATOM     15  C   UNL     1      -2.677   1.729   1.156  1.00  0.00     0.020 A 
ATOM     16  C   UNL     1      -3.679   1.147   3.265  1.00  0.00     0.020 A 
ATOM     17  C   UNL     1      -1.602   0.876   1.435  1.00  0.00     0.027 A 
ATOM     18  C   UNL     1      -2.602   0.294   3.533  1.00  0.00     0.027 A 
BRANCH  14  19
ATOM     19  S   UNL     1      -5.114   2.972   1.736  1.00  0.00     0.050 S 
ATOM     20  C   UNL     1      -4.524   4.372   2.720  1.00  0.00     0.129 C 
ATOM     21  O   UNL     1      -4.995   3.358   0.291  1.00  0.00    -0.255 OA
ENDBRANCH  14  19
ENDBRANCH  11  13
ENDBRANCH   1  11
BRANCH   3  22
ATOM     22  O   UNL     1       3.055   0.368  -0.047  1.00  0.00    -0.476 OA
BRANCH  22  23
ATOM     23  C   UNL     1       2.245   1.469  -0.474  1.00  0.00     0.235 C 
BRANCH  23  24
ATOM     24  C   UNL     1       1.279   1.057  -1.599  1.00  0.00     0.027 C 
ATOM     25  C   UNL     1       0.392   2.242  -2.002  1.00  0.00     0.007 C 
ATOM     26  C   UNL     1       2.040   0.510  -2.816  1.00  0.00     0.007 C 
ATOM     27  C   UNL     1      -0.555   1.876  -3.142  1.00  0.00     0.000 C 
ATOM     28  C   UNL     1       1.093   0.148  -3.958  1.00  0.00     0.000 C 
ATOM     29  C   UNL     1       0.200   1.321  -4.345  1.00  0.00     0.000 C 
ENDBRANCH  23  24
ENDBRANCH  22  23
ENDBRANCH   3  22
TORSDOF 6
