REMARK SMILES C=C(COc1nc(N)nc2nc[nH]c12)c1ccccc1
REMARK SMILES IDX 4 1 3 2 2 3 1 4 15 5 16 6 20 7 17 8 19 9 18 10 5 11 6 12
REMARK SMILES IDX 14 13 7 14 13 15 10 16 9 17 12 18 11 19 8 21
REMARK H PARENT 13 20 8 22 8 23
ROOT
ATOM      1  O   UNL     1       0.312  -1.927  -0.070  1.00  0.00    -0.471 OA
ENDROOT
BRANCH   1   2
ATOM      2  C   UNL     1       1.735  -1.919   0.099  1.00  0.00     0.267 C 
BRANCH   2   3
ATOM      3  C   UNL     1       2.246  -0.555   0.533  1.00  0.00    -0.011 C 
ATOM      4  C   UNL     1       3.354  -0.023  -0.013  1.00  0.00     0.017 C 
BRANCH   3   5
ATOM      5  C   UNL     1       1.496   0.183   1.578  1.00  0.00    -0.020 A 
ATOM      6  C   UNL     1       1.223   1.554   1.434  1.00  0.00     0.008 A 
ATOM      7  C   UNL     1       0.984  -0.479   2.704  1.00  0.00     0.008 A 
ATOM      8  C   UNL     1       0.469   2.242   2.388  1.00  0.00     0.001 A 
ATOM      9  C   UNL     1       0.230   0.210   3.659  1.00  0.00     0.001 A 
ATOM     10  C   UNL     1      -0.027   1.569   3.501  1.00  0.00     0.000 A 
ENDBRANCH   3   5
ENDBRANCH   2   3
ENDBRANCH   1   2
BRANCH   1  11
ATOM     11  C   UNL     1      -0.064  -1.281  -1.223  1.00  0.00     0.245 A 
ATOM     12  N   UNL     1       0.435  -1.669  -2.409  1.00  0.00    -0.176 NA
ATOM     13  C   UNL     1      -0.997  -0.280  -1.199  1.00  0.00     0.148 A 
ATOM     14  C   UNL     1      -0.011  -1.047  -3.516  1.00  0.00     0.225 A 
ATOM     15  N   UNL     1      -1.696   0.365  -0.222  1.00  0.00    -0.339 N 
ATOM     16  C   UNL     1      -1.379   0.318  -2.379  1.00  0.00     0.186 A 
ATOM     17  N   UNL     1      -0.890  -0.044  -3.576  1.00  0.00    -0.191 NA
ATOM     18  C   UNL     1      -2.461   1.319  -0.838  1.00  0.00     0.199 A 
ATOM     19  N   UNL     1      -2.291   1.313  -2.144  1.00  0.00    -0.217 NA
ATOM     20  H   UNL     1      -1.623   0.196   0.773  1.00  0.00     0.168 HD
BRANCH  14  21
ATOM     21  N   UNL     1       0.538  -1.466  -4.714  1.00  0.00    -0.368 N 
ATOM     22  H   UNL     1       0.469  -0.725  -5.398  1.00  0.00     0.159 HD
ATOM     23  H   UNL     1       1.444  -1.881  -4.557  1.00  0.00     0.159 HD
ENDBRANCH  14  21
ENDBRANCH   1  11
TORSDOF 5
