REMARK SMILES Fc1ccc(Nc2nc(OCC3CCCCC3)c3[nH]cnc3n2)cc1
REMARK SMILES IDX 7 1 8 2 9 3 18 4 19 5 20 6 21 7 22 8 23 9 6 11 5 13 2 14
REMARK SMILES IDX 3 15 25 16 4 17 24 18 1 19 10 20 11 21 12 22 13 23 17 24
REMARK SMILES IDX 14 25 16 26 15 27
REMARK H PARENT 19 10 6 12
ROOT
ATOM      1  C   UNL     1       1.956  -0.259   0.785  1.00  0.00     0.232 A 
ATOM      2  N   UNL     1       1.165   0.837   0.724  1.00  0.00    -0.175 NA
ATOM      3  C   UNL     1       0.690   1.377   1.862  1.00  0.00     0.245 A 
ATOM      4  C   UNL     1       1.023   0.772   3.044  1.00  0.00     0.148 A 
ATOM      5  N   UNL     1       0.739   0.995   4.359  1.00  0.00    -0.339 N 
ATOM      6  C   UNL     1       1.382   0.027   5.083  1.00  0.00     0.199 A 
ATOM      7  N   UNL     1       2.053  -0.796   4.306  1.00  0.00    -0.217 NA
ATOM      8  C   UNL     1       1.833  -0.341   3.032  1.00  0.00     0.186 A 
ATOM      9  N   UNL     1       2.322  -0.883   1.909  1.00  0.00    -0.191 NA
ATOM     10  H   UNL     1       0.161   1.739   4.726  1.00  0.00     0.168 HD
ENDROOT
BRANCH   1  11
ATOM     11  N   UNL     1       2.377  -0.711  -0.466  1.00  0.00    -0.324 N 
ATOM     12  H   UNL     1       1.984  -0.112  -1.177  1.00  0.00     0.170 HD
BRANCH  11  13
ATOM     13  C   UNL     1       3.169  -1.779  -0.901  1.00  0.00     0.041 A 
ATOM     14  C   UNL     1       4.745  -3.877  -1.910  1.00  0.00     0.123 A 
ATOM     15  C   UNL     1       4.164  -2.975  -2.788  1.00  0.00     0.041 A 
ATOM     16  C   UNL     1       4.556  -3.753  -0.542  1.00  0.00     0.041 A 
ATOM     17  C   UNL     1       3.382  -1.933  -2.284  1.00  0.00     0.029 A 
ATOM     18  C   UNL     1       3.772  -2.707  -0.042  1.00  0.00     0.029 A 
ATOM     19  F   UNL     1       5.496  -4.878  -2.389  1.00  0.00    -0.207 F 
ENDBRANCH  11  13
ENDBRANCH   1  11
BRANCH   3  20
ATOM     20  O   UNL     1      -0.142   2.473   1.857  1.00  0.00    -0.476 OA
BRANCH  20  21
ATOM     21  C   UNL     1      -0.294   3.127   0.595  1.00  0.00     0.235 C 
BRANCH  21  22
ATOM     22  C   UNL     1      -1.713   2.911   0.041  1.00  0.00     0.027 C 
ATOM     23  C   UNL     1      -1.937   3.794  -1.196  1.00  0.00     0.007 C 
ATOM     24  C   UNL     1      -1.988   1.435  -0.290  1.00  0.00     0.007 C 
ATOM     25  C   UNL     1      -3.325   3.590  -1.799  1.00  0.00     0.000 C 
ATOM     26  C   UNL     1      -3.374   1.237  -0.900  1.00  0.00     0.000 C 
ATOM     27  C   UNL     1      -3.585   2.123  -2.123  1.00  0.00     0.000 C 
ENDBRANCH  21  22
ENDBRANCH  20  21
ENDBRANCH   3  20
TORSDOF 5
