REMARK SMILES Fc1ccc(Nc2nc(OCC3CCCCC3)c3[nH]cnc3n2)cc1Cl
REMARK SMILES IDX 7 1 8 2 9 3 18 4 19 5 20 6 21 7 22 8 23 9 6 11 5 13 2 14
REMARK SMILES IDX 3 15 25 16 4 17 24 18 1 19 26 20 10 21 11 22 12 23 13 24
REMARK SMILES IDX 17 25 14 26 16 27 15 28
REMARK H PARENT 19 10 6 12
ROOT
ATOM      1  C   UNL     1       0.709   0.041   2.362  1.00  0.00     0.232 A 
ATOM      2  N   UNL     1      -0.213   0.031   1.376  1.00  0.00    -0.175 NA
ATOM      3  C   UNL     1      -1.013  -1.042   1.227  1.00  0.00     0.245 A 
ATOM      4  C   UNL     1      -0.841  -2.093   2.087  1.00  0.00     0.148 A 
ATOM      5  N   UNL     1      -1.418  -3.319   2.246  1.00  0.00    -0.339 N 
ATOM      6  C   UNL     1      -0.800  -3.923   3.307  1.00  0.00     0.199 A 
ATOM      7  N   UNL     1       0.134  -3.156   3.828  1.00  0.00    -0.217 NA
ATOM      8  C   UNL     1       0.117  -2.014   3.072  1.00  0.00     0.186 A 
ATOM      9  N   UNL     1       0.914  -0.950   3.240  1.00  0.00    -0.191 NA
ATOM     10  H   UNL     1      -2.163  -3.704   1.681  1.00  0.00     0.168 HD
ENDROOT
BRANCH   1  11
ATOM     11  N   UNL     1       1.562   1.132   2.544  1.00  0.00    -0.324 N 
ATOM     12  H   UNL     1       2.175   0.921   3.321  1.00  0.00     0.170 HD
BRANCH  11  13
ATOM     13  C   UNL     1       1.744   2.361   1.902  1.00  0.00     0.043 A 
ATOM     14  C   UNL     1       2.220   4.855   0.683  1.00  0.00     0.141 A 
ATOM     15  C   UNL     1       1.195   4.042   0.220  1.00  0.00     0.043 A 
ATOM     16  C   UNL     1       3.012   4.443   1.747  1.00  0.00     0.078 A 
ATOM     17  C   UNL     1       0.961   2.804   0.829  1.00  0.00     0.029 A 
ATOM     18  C   UNL     1       2.775   3.205   2.352  1.00  0.00     0.049 A 
ATOM     19  F   UNL     1       2.428   6.038   0.086  1.00  0.00    -0.205 F 
ATOM     20  Cl  UNL     1       4.287   5.441   2.332  1.00  0.00    -0.081 Cl
ENDBRANCH  11  13
ENDBRANCH   1  11
BRANCH   3  21
ATOM     21  O   UNL     1      -1.948  -1.125   0.221  1.00  0.00    -0.476 OA
BRANCH  21  22
ATOM     22  C   UNL     1      -2.191   0.086  -0.498  1.00  0.00     0.235 C 
BRANCH  22  23
ATOM     23  C   UNL     1      -1.660  -0.016  -1.937  1.00  0.00     0.027 C 
ATOM     24  C   UNL     1      -2.059   1.235  -2.735  1.00  0.00     0.007 C 
ATOM     25  C   UNL     1      -0.138  -0.230  -1.989  1.00  0.00     0.007 C 
ATOM     26  C   UNL     1      -1.532   1.192  -4.166  1.00  0.00     0.000 C 
ATOM     27  C   UNL     1       0.384  -0.265  -3.424  1.00  0.00     0.000 C 
ATOM     28  C   UNL     1      -0.022   0.981  -4.202  1.00  0.00     0.000 C 
ENDBRANCH  22  23
ENDBRANCH  21  22
ENDBRANCH   3  21
TORSDOF 5
