REMARK SMILES CSc1ccc(Nc2nc(OCC3CCCCC3)c3[nH]cnc3n2)cc1
REMARK SMILES IDX 8 1 9 2 10 3 19 4 20 5 21 6 22 7 23 8 24 9 7 11 6 13 3 14
REMARK SMILES IDX 4 15 26 16 5 17 25 18 2 19 1 20 11 21 12 22 13 23 14 24
REMARK SMILES IDX 18 25 15 26 17 27 16 28
REMARK H PARENT 20 10 7 12
ROOT
ATOM      1  C   UNL     1       2.323   0.220  -2.580  1.00  0.00     0.232 A 
ATOM      2  N   UNL     1       1.834  -0.005  -1.342  1.00  0.00    -0.175 NA
ATOM      3  C   UNL     1       2.254   0.754  -0.313  1.00  0.00     0.245 A 
ATOM      4  C   UNL     1       3.174   1.733  -0.572  1.00  0.00     0.148 A 
ATOM      5  N   UNL     1       3.822   2.674   0.172  1.00  0.00    -0.339 N 
ATOM      6  C   UNL     1       4.636   3.372  -0.679  1.00  0.00     0.199 A 
ATOM      7  N   UNL     1       4.542   2.930  -1.915  1.00  0.00    -0.217 NA
ATOM      8  C   UNL     1       3.632   1.908  -1.858  1.00  0.00     0.186 A 
ATOM      9  N   UNL     1       3.224   1.161  -2.894  1.00  0.00    -0.191 NA
ATOM     10  H   UNL     1       3.717   2.823   1.166  1.00  0.00     0.168 HD
ENDROOT
BRANCH   1  11
ATOM     11  N   UNL     1       1.910  -0.553  -3.666  1.00  0.00    -0.324 N 
ATOM     12  H   UNL     1       2.394  -0.227  -4.492  1.00  0.00     0.170 HD
BRANCH  11  13
ATOM     13  C   UNL     1       0.996  -1.596  -3.838  1.00  0.00     0.041 A 
ATOM     14  C   UNL     1      -0.790  -3.750  -4.314  1.00  0.00     0.007 A 
ATOM     15  C   UNL     1      -0.699  -3.166  -3.050  1.00  0.00     0.017 A 
ATOM     16  C   UNL     1      -0.002  -3.244  -5.346  1.00  0.00     0.017 A 
ATOM     17  C   UNL     1       0.189  -2.107  -2.818  1.00  0.00     0.027 A 
ATOM     18  C   UNL     1       0.883  -2.185  -5.107  1.00  0.00     0.027 A 
BRANCH  14  19
ATOM     19  S   UNL     1      -1.913  -5.092  -4.652  1.00  0.00    -0.130 SA
ATOM     20  C   UNL     1      -1.352  -6.288  -3.411  1.00  0.00     0.091 C 
ENDBRANCH  14  19
ENDBRANCH  11  13
ENDBRANCH   1  11
BRANCH   3  21
ATOM     21  O   UNL     1       1.782   0.562   0.967  1.00  0.00    -0.476 OA
BRANCH  21  22
ATOM     22  C   UNL     1       0.807  -0.484   1.051  1.00  0.00     0.235 C 
BRANCH  22  23
ATOM     23  C   UNL     1       0.329  -0.602   2.510  1.00  0.00     0.027 C 
ATOM     24  C   UNL     1      -0.347   0.686   3.014  1.00  0.00     0.007 C 
ATOM     25  C   UNL     1      -0.608  -1.805   2.695  1.00  0.00     0.007 C 
ATOM     26  C   UNL     1      -1.729   0.912   2.404  1.00  0.00     0.000 C 
ATOM     27  C   UNL     1      -1.990  -1.584   2.082  1.00  0.00     0.000 C 
ATOM     28  C   UNL     1      -2.635  -0.300   2.595  1.00  0.00     0.000 C 
ENDBRANCH  22  23
ENDBRANCH  21  22
ENDBRANCH   3  21
TORSDOF 6
