REMARK SMILES CSc1cccc(Nc2nc(OCC3CCCCC3)c3[nH]cnc3n2)c1
REMARK SMILES IDX 9 1 10 2 11 3 20 4 21 5 22 6 23 7 24 8 25 9 8 11 7 13 3 14
REMARK SMILES IDX 4 15 26 16 5 17 6 18 2 19 1 20 12 21 13 22 14 23 15 24 19 25
REMARK SMILES IDX 16 26 18 27 17 28
REMARK H PARENT 21 10 8 12
ROOT
ATOM      1  C   UNL     1      -0.924  -2.575  -0.690  1.00  0.00     0.232 A 
ATOM      2  N   UNL     1      -0.276  -1.543  -1.269  1.00  0.00    -0.175 NA
ATOM      3  C   UNL     1      -0.196  -1.477  -2.611  1.00  0.00     0.245 A 
ATOM      4  C   UNL     1      -0.787  -2.474  -3.339  1.00  0.00     0.148 A 
ATOM      5  N   UNL     1      -0.920  -2.755  -4.666  1.00  0.00    -0.339 N 
ATOM      6  C   UNL     1      -1.633  -3.919  -4.763  1.00  0.00     0.199 A 
ATOM      7  N   UNL     1      -1.959  -4.391  -3.579  1.00  0.00    -0.217 NA
ATOM      8  C   UNL     1      -1.435  -3.496  -2.684  1.00  0.00     0.186 A 
ATOM      9  N   UNL     1      -1.524  -3.577  -1.348  1.00  0.00    -0.191 NA
ATOM     10  H   UNL     1      -0.557  -2.203  -5.432  1.00  0.00     0.168 HD
ENDROOT
BRANCH   1  11
ATOM     11  N   UNL     1      -1.027  -2.670   0.698  1.00  0.00    -0.324 N 
ATOM     12  H   UNL     1      -1.542  -3.510   0.924  1.00  0.00     0.170 HD
BRANCH  11  13
ATOM     13  C   UNL     1      -0.529  -1.926   1.774  1.00  0.00     0.042 A 
ATOM     14  C   UNL     1      -0.452  -1.599   4.203  1.00  0.00     0.009 A 
ATOM     15  C   UNL     1       0.381  -0.495   4.032  1.00  0.00     0.015 A 
ATOM     16  C   UNL     1      -0.891  -2.309   3.077  1.00  0.00     0.041 A 
ATOM     17  C   UNL     1       0.748  -0.094   2.750  1.00  0.00     0.003 A 
ATOM     18  C   UNL     1       0.290  -0.802   1.634  1.00  0.00     0.026 A 
BRANCH  14  19
ATOM     19  S   UNL     1      -0.942  -2.154   5.827  1.00  0.00    -0.130 SA
ATOM     20  C   UNL     1      -1.789  -0.664   6.418  1.00  0.00     0.091 C 
ENDBRANCH  14  19
ENDBRANCH  11  13
ENDBRANCH   1  11
BRANCH   3  21
ATOM     21  O   UNL     1       0.456  -0.443  -3.247  1.00  0.00    -0.476 OA
BRANCH  21  22
ATOM     22  C   UNL     1       1.012   0.509  -2.332  1.00  0.00     0.235 C 
BRANCH  22  23
ATOM     23  C   UNL     1       1.728   1.610  -3.138  1.00  0.00     0.027 C 
ATOM     24  C   UNL     1       2.135   2.779  -2.234  1.00  0.00     0.007 C 
ATOM     25  C   UNL     1       2.936   1.053  -3.923  1.00  0.00     0.007 C 
ATOM     26  C   UNL     1       3.251   2.420  -1.252  1.00  0.00     0.000 C 
ATOM     27  C   UNL     1       4.295   1.479  -3.361  1.00  0.00     0.000 C 
ATOM     28  C   UNL     1       4.303   1.478  -1.839  1.00  0.00     0.000 C 
ENDBRANCH  22  23
ENDBRANCH  21  22
ENDBRANCH   3  21
TORSDOF 6
