REMARK SMILES COc1ccc(Nc2nc(OCC3CCCCC3)c3[nH]cnc3n2)cc1
REMARK SMILES IDX 8 1 9 2 10 3 19 4 20 5 21 6 22 7 23 8 24 9 7 11 6 13 3 14
REMARK SMILES IDX 4 15 26 16 5 17 25 18 2 19 1 20 11 21 12 22 13 23 14 24
REMARK SMILES IDX 18 25 15 26 17 27 16 28
REMARK H PARENT 20 10 7 12
ROOT
ATOM      1  C   UNL     1       1.151  -0.413  -0.200  1.00  0.00     0.232 A 
ATOM      2  N   UNL     1       0.967  -0.398   1.140  1.00  0.00    -0.175 NA
ATOM      3  C   UNL     1       1.870   0.212   1.929  1.00  0.00     0.245 A 
ATOM      4  C   UNL     1       2.947   0.805   1.325  1.00  0.00     0.148 A 
ATOM      5  N   UNL     1       4.034   1.505   1.759  1.00  0.00    -0.339 N 
ATOM      6  C   UNL     1       4.768   1.840   0.653  1.00  0.00     0.199 A 
ATOM      7  N   UNL     1       4.210   1.396  -0.454  1.00  0.00    -0.217 NA
ATOM      8  C   UNL     1       3.073   0.750  -0.044  1.00  0.00     0.186 A 
ATOM      9  N   UNL     1       2.185   0.142  -0.841  1.00  0.00    -0.191 NA
ATOM     10  H   UNL     1       4.253   1.732   2.719  1.00  0.00     0.168 HD
ENDROOT
BRANCH   1  11
ATOM     11  N   UNL     1       0.140  -1.078  -0.893  1.00  0.00    -0.324 N 
ATOM     12  H   UNL     1      -0.543  -1.415  -0.232  1.00  0.00     0.170 HD
BRANCH  11  13
ATOM     13  C   UNL     1      -0.107  -1.340  -2.245  1.00  0.00     0.041 A 
ATOM     14  C   UNL     1      -0.722  -1.940  -4.950  1.00  0.00     0.119 A 
ATOM     15  C   UNL     1       0.430  -1.229  -4.627  1.00  0.00     0.048 A 
ATOM     16  C   UNL     1      -1.566  -2.353  -3.922  1.00  0.00     0.048 A 
ATOM     17  C   UNL     1       0.730  -0.934  -3.288  1.00  0.00     0.030 A 
ATOM     18  C   UNL     1      -1.263  -2.057  -2.588  1.00  0.00     0.030 A 
BRANCH  14  19
ATOM     19  O   UNL     1      -1.129  -2.291  -6.206  1.00  0.00    -0.497 OA
ATOM     20  C   UNL     1      -0.294  -1.889  -7.285  1.00  0.00     0.278 C 
ENDBRANCH  14  19
ENDBRANCH  11  13
ENDBRANCH   1  11
BRANCH   3  21
ATOM     21  O   UNL     1       1.724   0.277   3.295  1.00  0.00    -0.476 OA
BRANCH  21  22
ATOM     22  C   UNL     1       0.613  -0.438   3.841  1.00  0.00     0.235 C 
BRANCH  22  23
ATOM     23  C   UNL     1      -0.391   0.546   4.467  1.00  0.00     0.027 C 
ATOM     24  C   UNL     1      -0.964   1.511   3.410  1.00  0.00     0.007 C 
ATOM     25  C   UNL     1      -1.495  -0.199   5.242  1.00  0.00     0.007 C 
ATOM     26  C   UNL     1      -2.293   2.107   3.858  1.00  0.00     0.000 C 
ATOM     27  C   UNL     1      -2.779  -0.337   4.433  1.00  0.00     0.000 C 
ATOM     28  C   UNL     1      -3.358   1.026   4.050  1.00  0.00     0.000 C 
ENDBRANCH  22  23
ENDBRANCH  21  22
ENDBRANCH   3  21
TORSDOF 6
