REMARK SMILES CCc1cccc(Nc2nc(OCC3CCCCC3)c3[nH]cnc3n2)c1
REMARK SMILES IDX 9 1 10 2 11 3 20 4 21 5 22 6 23 7 24 8 25 9 8 11 7 13 3 14
REMARK SMILES IDX 4 15 26 16 5 17 6 18 2 19 1 20 12 21 13 22 14 23 15 24 19 25
REMARK SMILES IDX 16 26 18 27 17 28
REMARK H PARENT 21 10 8 12
ROOT
ATOM      1  C   UNL     1      -3.049  -0.355  -0.535  1.00  0.00     0.232 A 
ATOM      2  N   UNL     1      -1.710  -0.208  -0.456  1.00  0.00    -0.175 NA
ATOM      3  C   UNL     1      -0.969  -0.248  -1.577  1.00  0.00     0.245 A 
ATOM      4  C   UNL     1      -1.617  -0.433  -2.767  1.00  0.00     0.148 A 
ATOM      5  N   UNL     1      -1.234  -0.520  -4.073  1.00  0.00    -0.339 N 
ATOM      6  C   UNL     1      -2.367  -0.722  -4.813  1.00  0.00     0.199 A 
ATOM      7  N   UNL     1      -3.443  -0.764  -4.055  1.00  0.00    -0.217 NA
ATOM      8  C   UNL     1      -2.984  -0.582  -2.777  1.00  0.00     0.186 A 
ATOM      9  N   UNL     1      -3.738  -0.551  -1.668  1.00  0.00    -0.191 NA
ATOM     10  H   UNL     1      -0.288  -0.451  -4.422  1.00  0.00     0.168 HD
ENDROOT
BRANCH   1  11
ATOM     11  N   UNL     1      -3.839  -0.334   0.614  1.00  0.00    -0.324 N 
ATOM     12  H   UNL     1      -4.802  -0.494   0.351  1.00  0.00     0.170 HD
BRANCH  11  13
ATOM     13  C   UNL     1      -3.589  -0.077   1.966  1.00  0.00     0.041 A 
ATOM     14  C   UNL     1      -2.140   0.573   3.837  1.00  0.00    -0.046 A 
ATOM     15  C   UNL     1      -3.183   0.329   4.734  1.00  0.00     0.004 A 
ATOM     16  C   UNL     1      -2.355   0.360   2.463  1.00  0.00     0.029 A 
ATOM     17  C   UNL     1      -4.417  -0.112   4.264  1.00  0.00     0.002 A 
ATOM     18  C   UNL     1      -4.614  -0.313   2.895  1.00  0.00     0.026 A 
BRANCH  14  19
ATOM     19  C   UNL     1      -0.793   1.038   4.330  1.00  0.00     0.032 C 
ATOM     20  C   UNL     1       0.215  -0.101   4.398  1.00  0.00     0.009 C 
ENDBRANCH  14  19
ENDBRANCH  11  13
ENDBRANCH   1  11
BRANCH   3  21
ATOM     21  O   UNL     1       0.400  -0.106  -1.544  1.00  0.00    -0.476 OA
BRANCH  21  22
ATOM     22  C   UNL     1       0.925  -0.027  -0.221  1.00  0.00     0.235 C 
BRANCH  22  23
ATOM     23  C   UNL     1       2.466   0.044  -0.230  1.00  0.00     0.027 C 
ATOM     24  C   UNL     1       3.001   1.340  -0.864  1.00  0.00     0.007 C 
ATOM     25  C   UNL     1       3.119  -1.200  -0.860  1.00  0.00     0.007 C 
ATOM     26  C   UNL     1       3.036   1.329  -2.390  1.00  0.00     0.000 C 
ATOM     27  C   UNL     1       3.166  -1.191  -2.387  1.00  0.00     0.000 C 
ATOM     28  C   UNL     1       3.762   0.103  -2.929  1.00  0.00     0.000 C 
ENDBRANCH  22  23
ENDBRANCH  21  22
ENDBRANCH   3  21
TORSDOF 6
