REMARK SMILES Fc1cccc(Nc2nc(OCC3CCCCC3)c3[nH]cnc3n2)c1
REMARK SMILES IDX 8 1 9 2 10 3 19 4 20 5 21 6 22 7 23 8 24 9 7 11 6 13 2 14
REMARK SMILES IDX 3 15 25 16 4 17 5 18 1 19 11 20 12 21 13 22 14 23 18 24
REMARK SMILES IDX 15 25 17 26 16 27
REMARK H PARENT 20 10 7 12
ROOT
ATOM      1  C   UNL     1       1.353  -1.830   0.658  1.00  0.00     0.232 A 
ATOM      2  N   UNL     1       1.095  -0.579   0.208  1.00  0.00    -0.175 NA
ATOM      3  C   UNL     1       0.402  -0.421  -0.938  1.00  0.00     0.245 A 
ATOM      4  C   UNL     1       0.001  -1.544  -1.607  1.00  0.00     0.148 A 
ATOM      5  N   UNL     1      -0.682  -1.789  -2.762  1.00  0.00    -0.339 N 
ATOM      6  C   UNL     1      -0.768  -3.148  -2.900  1.00  0.00     0.199 A 
ATOM      7  N   UNL     1      -0.187  -3.778  -1.899  1.00  0.00    -0.217 NA
ATOM      8  C   UNL     1       0.301  -2.785  -1.090  1.00  0.00     0.186 A 
ATOM      9  N   UNL     1       0.979  -2.961   0.052  1.00  0.00    -0.191 NA
ATOM     10  H   UNL     1      -1.051  -1.092  -3.397  1.00  0.00     0.168 HD
ENDROOT
BRANCH   1  11
ATOM     11  N   UNL     1       2.071  -1.858   1.856  1.00  0.00    -0.324 N 
ATOM     12  H   UNL     1       2.235  -0.908   2.156  1.00  0.00     0.170 HD
BRANCH  11  13
ATOM     13  C   UNL     1       2.471  -2.880   2.724  1.00  0.00     0.044 A 
ATOM     14  C   UNL     1       2.635  -5.194   3.428  1.00  0.00     0.125 A 
ATOM     15  C   UNL     1       3.332  -4.836   4.574  1.00  0.00     0.039 A 
ATOM     16  C   UNL     1       2.211  -4.236   2.509  1.00  0.00     0.065 A 
ATOM     17  C   UNL     1       3.622  -3.495   4.799  1.00  0.00     0.005 A 
ATOM     18  C   UNL     1       3.200  -2.530   3.877  1.00  0.00     0.026 A 
ATOM     19  F   UNL     1       2.363  -6.487   3.206  1.00  0.00    -0.207 F 
ENDBRANCH  11  13
ENDBRANCH   1  11
BRANCH   3  20
ATOM     20  O   UNL     1       0.089   0.823  -1.432  1.00  0.00    -0.476 OA
BRANCH  20  21
ATOM     21  C   UNL     1       0.569   1.899  -0.629  1.00  0.00     0.235 C 
BRANCH  21  22
ATOM     22  C   UNL     1       0.054   3.247  -1.178  1.00  0.00     0.027 C 
ATOM     23  C   UNL     1       0.541   3.539  -2.607  1.00  0.00     0.007 C 
ATOM     24  C   UNL     1      -1.480   3.361  -1.054  1.00  0.00     0.007 C 
ATOM     25  C   UNL     1      -0.191   2.772  -3.708  1.00  0.00     0.000 C 
ATOM     26  C   UNL     1      -2.222   3.507  -2.383  1.00  0.00     0.000 C 
ATOM     27  C   UNL     1      -1.678   2.551  -3.433  1.00  0.00     0.000 C 
ENDBRANCH  21  22
ENDBRANCH  20  21
ENDBRANCH   3  20
TORSDOF 5
