REMARK SMILES N#CCc1ccc(Nc2nc(OCC3CCCCC3)c3[nH]cnc3n2)cc1
REMARK SMILES IDX 8 1 7 3 4 4 5 5 27 6 6 7 26 8 3 9 2 10 1 11 9 12 10 13 25 14
REMARK SMILES IDX 11 15 24 16 20 17 23 18 21 19 22 20 12 22 13 23 14 24 15 25
REMARK SMILES IDX 19 26 16 27 18 28 17 29
REMARK H PARENT 8 2 21 21
ROOT
ATOM      1  N   UNL     1      -2.261  -0.610   1.549  1.00  0.00    -0.324 N 
ATOM      2  H   UNL     1      -1.380  -0.981   1.872  1.00  0.00     0.170 HD
ENDROOT
BRANCH   1   3
ATOM      3  C   UNL     1      -3.343  -1.497   1.522  1.00  0.00     0.041 A 
ATOM      4  C   UNL     1      -5.494  -3.353   1.621  1.00  0.00    -0.034 A 
ATOM      5  C   UNL     1      -4.275  -3.642   2.243  1.00  0.00     0.007 A 
ATOM      6  C   UNL     1      -5.628  -2.135   0.947  1.00  0.00     0.007 A 
ATOM      7  C   UNL     1      -3.221  -2.722   2.195  1.00  0.00     0.026 A 
ATOM      8  C   UNL     1      -4.568  -1.218   0.911  1.00  0.00     0.026 A 
BRANCH   4   9
ATOM      9  C   UNL     1      -6.635  -4.340   1.664  1.00  0.00     0.155 C 
BRANCH   9  10
ATOM     10  C   UNL     1      -6.516  -5.399   0.651  1.00  0.00     0.067 C 
ATOM     11  N   UNL     1      -6.447  -6.254  -0.131  1.00  0.00    -0.198 NA
ENDBRANCH   9  10
ENDBRANCH   4   9
ENDBRANCH   1   3
BRANCH   1  12
ATOM     12  C   UNL     1      -2.052   0.678   1.055  1.00  0.00     0.232 A 
ATOM     13  N   UNL     1      -0.773   1.102   1.174  1.00  0.00    -0.175 NA
ATOM     14  N   UNL     1      -3.054   1.392   0.534  1.00  0.00    -0.191 NA
ATOM     15  C   UNL     1      -0.435   2.329   0.735  1.00  0.00     0.245 A 
ATOM     16  C   UNL     1      -2.704   2.611   0.100  1.00  0.00     0.186 A 
ATOM     17  C   UNL     1      -1.420   3.101   0.180  1.00  0.00     0.148 A 
ATOM     18  N   UNL     1      -3.539   3.528  -0.482  1.00  0.00    -0.217 NA
ATOM     19  N   UNL     1      -1.477   4.348  -0.371  1.00  0.00    -0.339 N 
ATOM     20  C   UNL     1      -2.773   4.562  -0.755  1.00  0.00     0.199 A 
ATOM     21  H   UNL     1      -0.701   4.987  -0.478  1.00  0.00     0.168 HD
BRANCH  15  22
ATOM     22  O   UNL     1       0.854   2.801   0.803  1.00  0.00    -0.476 OA
BRANCH  22  23
ATOM     23  C   UNL     1       1.795   1.948   1.459  1.00  0.00     0.235 C 
BRANCH  23  24
ATOM     24  C   UNL     1       2.748   1.268   0.459  1.00  0.00     0.027 C 
ATOM     25  C   UNL     1       2.026   0.246  -0.432  1.00  0.00     0.007 C 
ATOM     26  C   UNL     1       3.486   2.300  -0.411  1.00  0.00     0.007 C 
ATOM     27  C   UNL     1       2.992  -0.432  -1.402  1.00  0.00     0.000 C 
ATOM     28  C   UNL     1       4.451   1.626  -1.384  1.00  0.00     0.000 C 
ATOM     29  C   UNL     1       3.743   0.589  -2.250  1.00  0.00     0.000 C 
ENDBRANCH  23  24
ENDBRANCH  22  23
ENDBRANCH  15  22
ENDBRANCH   1  12
TORSDOF 7
