REMARK SMILES Nc1nc(OCC2CCCCC2)c2[nH]c(-c3ccccc3)nc2n1
REMARK SMILES IDX 2 1 3 2 4 3 13 4 14 5 15 6 22 7 23 8 24 9 1 11 5 14 6 15
REMARK SMILES IDX 7 16 8 17 12 18 9 19 11 20 10 21 16 22 17 23 21 24 18 25
REMARK SMILES IDX 20 26 19 27
REMARK H PARENT 14 10 1 12 1 13
ROOT
ATOM      1  C   UNL     1      -2.704  -0.137   2.728  1.00  0.00     0.225 A 
ATOM      2  N   UNL     1      -2.425   0.768   1.774  1.00  0.00    -0.176 NA
ATOM      3  C   UNL     1      -1.877   0.343   0.622  1.00  0.00     0.245 A 
ATOM      4  C   UNL     1      -1.602  -0.995   0.499  1.00  0.00     0.148 A 
ATOM      5  N   UNL     1      -1.053  -1.783  -0.467  1.00  0.00    -0.332 N 
ATOM      6  C   UNL     1      -1.029  -3.083  -0.004  1.00  0.00     0.140 A 
ATOM      7  N   UNL     1      -1.544  -3.132   1.217  1.00  0.00    -0.208 NA
ATOM      8  C   UNL     1      -1.902  -1.851   1.532  1.00  0.00     0.187 A 
ATOM      9  N   UNL     1      -2.460  -1.447   2.684  1.00  0.00    -0.191 NA
ATOM     10  H   UNL     1      -0.725  -1.461  -1.365  1.00  0.00     0.168 HD
ENDROOT
BRANCH   1  11
ATOM     11  N   UNL     1      -3.260   0.356   3.895  1.00  0.00    -0.368 N 
ATOM     12  H   UNL     1      -3.003   1.325   4.018  1.00  0.00     0.159 HD
ATOM     13  H   UNL     1      -3.065  -0.279   4.657  1.00  0.00     0.159 HD
ENDBRANCH   1  11
BRANCH   3  14
ATOM     14  O   UNL     1      -1.554   1.208  -0.397  1.00  0.00    -0.476 OA
BRANCH  14  15
ATOM     15  C   UNL     1      -1.989   2.559  -0.225  1.00  0.00     0.235 C 
BRANCH  15  16
ATOM     16  C   UNL     1      -0.812   3.501   0.081  1.00  0.00     0.027 C 
ATOM     17  C   UNL     1       0.229   3.497  -1.058  1.00  0.00     0.007 C 
ATOM     18  C   UNL     1      -0.138   3.194   1.422  1.00  0.00     0.007 C 
ATOM     19  C   UNL     1       1.622   3.958  -0.621  1.00  0.00     0.000 C 
ATOM     20  C   UNL     1       0.912   4.248   1.785  1.00  0.00     0.000 C 
ATOM     21  C   UNL     1       1.567   4.905   0.569  1.00  0.00     0.000 C 
ENDBRANCH  15  16
ENDBRANCH  14  15
ENDBRANCH   3  14
BRANCH   6  22
ATOM     22  C   UNL     1      -0.508  -4.228  -0.761  1.00  0.00     0.017 A 
ATOM     23  C   UNL     1      -0.579  -5.509  -0.192  1.00  0.00     0.012 A 
ATOM     24  C   UNL     1       0.062  -4.100  -2.037  1.00  0.00     0.012 A 
ATOM     25  C   UNL     1      -0.098  -6.630  -0.874  1.00  0.00     0.001 A 
ATOM     26  C   UNL     1       0.544  -5.222  -2.720  1.00  0.00     0.001 A 
ATOM     27  C   UNL     1       0.464  -6.485  -2.139  1.00  0.00     0.000 A 
ENDBRANCH   6  22
TORSDOF 5
