REMARK SMILES CC1CCCCC1COc1nc(Nc2ccc(S(N)(=O)=O)cc2)nc2nc[nH]c12
REMARK SMILES IDX 10 1 11 2 12 3 24 4 25 5 26 6 27 7 28 8 29 9 9 11 8 12 7 13
REMARK SMILES IDX 2 14 3 15 4 16 6 17 5 18 1 19 13 20 14 22 15 23 23 24 16 25
REMARK SMILES IDX 22 26 17 27 18 28 20 29 21 30 19 31
REMARK H PARENT 28 10 13 21 19 32 19 33
ROOT
ATOM      1  C   UNL     1      -1.787   1.545  -0.448  1.00  0.00     0.245 A 
ATOM      2  N   UNL     1      -1.501   0.238  -0.554  1.00  0.00    -0.175 NA
ATOM      3  C   UNL     1      -2.366  -0.578  -1.184  1.00  0.00     0.232 A 
ATOM      4  N   UNL     1      -3.520  -0.193  -1.747  1.00  0.00    -0.191 NA
ATOM      5  C   UNL     1      -3.804   1.110  -1.600  1.00  0.00     0.186 A 
ATOM      6  N   UNL     1      -4.939   1.740  -2.044  1.00  0.00    -0.217 NA
ATOM      7  C   UNL     1      -4.803   2.994  -1.665  1.00  0.00     0.199 A 
ATOM      8  N   UNL     1      -3.629   3.195  -0.987  1.00  0.00    -0.339 N 
ATOM      9  C   UNL     1      -2.974   1.999  -0.956  1.00  0.00     0.148 A 
ATOM     10  H   UNL     1      -3.305   4.065  -0.590  1.00  0.00     0.168 HD
ENDROOT
BRANCH   1  11
ATOM     11  O   UNL     1      -0.937   2.348   0.269  1.00  0.00    -0.476 OA
BRANCH  11  12
ATOM     12  C   UNL     1       0.178   2.719  -0.549  1.00  0.00     0.235 C 
BRANCH  12  13
ATOM     13  C   UNL     1       1.336   3.216   0.338  1.00  0.00     0.030 C 
ATOM     14  C   UNL     1       1.908   2.142   1.295  1.00  0.00    -0.008 C 
ATOM     15  C   UNL     1       3.143   2.678   2.052  1.00  0.00     0.004 C 
ATOM     16  C   UNL     1       3.127   4.187   2.293  1.00  0.00     0.000 C 
ATOM     17  C   UNL     1       0.907   4.476   1.129  1.00  0.00     0.007 C 
ATOM     18  C   UNL     1       1.711   4.722   2.406  1.00  0.00     0.000 C 
ATOM     19  C   UNL     1       2.290   0.835   0.588  1.00  0.00     0.008 C 
ENDBRANCH  12  13
ENDBRANCH  11  12
ENDBRANCH   1  11
BRANCH   3  20
ATOM     20  N   UNL     1      -2.105  -1.944  -1.304  1.00  0.00    -0.324 N 
ATOM     21  H   UNL     1      -2.859  -2.369  -1.827  1.00  0.00     0.170 HD
BRANCH  20  22
ATOM     22  C   UNL     1      -1.193  -2.813  -0.693  1.00  0.00     0.041 A 
ATOM     23  C   UNL     1      -1.157  -4.154  -1.121  1.00  0.00     0.027 A 
ATOM     24  C   UNL     1      -0.274  -2.418   0.284  1.00  0.00     0.027 A 
ATOM     25  C   UNL     1      -0.257  -5.073  -0.569  1.00  0.00     0.024 A 
ATOM     26  C   UNL     1       0.633  -3.324   0.843  1.00  0.00     0.024 A 
ATOM     27  C   UNL     1       0.625  -4.653   0.421  1.00  0.00     0.082 A 
BRANCH  27  28
ATOM     28  S   UNL     1       1.763  -5.799   1.151  1.00  0.00     0.238 S 
ATOM     29  O   UNL     1       1.726  -7.032   0.397  1.00  0.00    -0.207 OA
ATOM     30  O   UNL     1       2.992  -5.104   1.440  1.00  0.00    -0.207 OA
BRANCH  28  31
ATOM     31  N   UNL     1       1.001  -6.144   2.615  1.00  0.00    -0.225 NA
ATOM     32  H   UNL     1       0.200  -5.540   2.804  1.00  0.00     0.137 HD
ATOM     33  H   UNL     1       0.736  -7.131   2.624  1.00  0.00     0.137 HD
ENDBRANCH  28  31
ENDBRANCH  27  28
ENDBRANCH  20  22
ENDBRANCH   3  20
TORSDOF 7
