REMARK SMILES Fc1ccc(Nc2nc(N3CCCCC3)c3nccnc3n2)cc1
REMARK SMILES IDX 6 1 5 3 2 4 3 5 24 6 4 7 23 8 1 9 7 10 8 11 22 12 9 13 21 14
REMARK SMILES IDX 16 15 20 16 17 17 19 18 18 19 10 20 11 21 15 22 12 23 14 24
REMARK SMILES IDX 13 25
REMARK H PARENT 6 2
ROOT
ATOM      1  N   UNL     1       0.440   1.774  -1.715  1.00  0.00    -0.324 N 
ATOM      2  H   UNL     1      -0.271   2.391  -2.084  1.00  0.00     0.170 HD
ENDROOT
BRANCH   1   3
ATOM      3  C   UNL     1       1.754   2.253  -1.712  1.00  0.00     0.041 A 
ATOM      4  C   UNL     1       4.351   3.325  -1.780  1.00  0.00     0.123 A 
ATOM      5  C   UNL     1       3.296   4.056  -2.304  1.00  0.00     0.041 A 
ATOM      6  C   UNL     1       4.137   2.072  -1.225  1.00  0.00     0.041 A 
ATOM      7  C   UNL     1       2.006   3.520  -2.270  1.00  0.00     0.029 A 
ATOM      8  C   UNL     1       2.843   1.541  -1.195  1.00  0.00     0.029 A 
ATOM      9  F   UNL     1       5.589   3.834  -1.809  1.00  0.00    -0.207 F 
ENDBRANCH   1   3
BRANCH   1  10
ATOM     10  C   UNL     1      -0.169   0.599  -1.284  1.00  0.00     0.231 A 
ATOM     11  N   UNL     1       0.523  -0.406  -0.752  1.00  0.00    -0.193 NA
ATOM     12  N   UNL     1      -1.489   0.566  -1.444  1.00  0.00    -0.191 NA
ATOM     13  C   UNL     1      -0.137  -1.513  -0.347  1.00  0.00     0.162 A 
ATOM     14  C   UNL     1      -2.142  -0.522  -1.064  1.00  0.00     0.185 A 
ATOM     15  C   UNL     1      -1.528  -1.643  -0.487  1.00  0.00     0.150 A 
ATOM     16  N   UNL     1      -3.466  -0.507  -1.262  1.00  0.00    -0.233 NA
ATOM     17  N   UNL     1      -2.261  -2.748  -0.124  1.00  0.00    -0.247 NA
ATOM     18  C   UNL     1      -4.177  -1.598  -0.904  1.00  0.00     0.133 A 
ATOM     19  C   UNL     1      -3.586  -2.703  -0.345  1.00  0.00     0.132 A 
BRANCH  13  20
ATOM     20  N   UNL     1       0.626  -2.562   0.223  1.00  0.00    -0.355 N 
ATOM     21  C   UNL     1       0.312  -2.830   1.632  1.00  0.00     0.118 C 
ATOM     22  C   UNL     1       2.061  -2.586  -0.103  1.00  0.00     0.118 C 
ATOM     23  C   UNL     1       0.931  -1.762   2.541  1.00  0.00     0.022 C 
ATOM     24  C   UNL     1       2.950  -2.299   1.112  1.00  0.00     0.022 C 
ATOM     25  C   UNL     1       2.317  -1.306   2.077  1.00  0.00     0.004 C 
ENDBRANCH  13  20
ENDBRANCH   1  10
TORSDOF 3
