REMARK SMILES c1nc(N2CCC(C[NH+]3CCCCC3)CC2)c2cc[nH]c2n1
REMARK SMILES IDX 4 1 5 2 6 3 7 4 15 5 16 6 3 7 1 8 2 9 22 10 21 11 17 12
REMARK SMILES IDX 20 13 18 14 19 15 8 17 9 18 10 19 14 20 11 21 13 22 12 23
REMARK H PARENT 20 16 9 24
ROOT
ATOM      1  N   UNL     1       0.452   0.082  -2.804  1.00  0.00    -0.356 N 
ATOM      2  C   UNL     1      -0.924   0.560  -2.689  1.00  0.00     0.118 C 
ATOM      3  C   UNL     1      -1.403   0.386  -1.248  1.00  0.00     0.031 C 
ATOM      4  C   UNL     1      -1.233  -1.066  -0.754  1.00  0.00     0.048 C 
ATOM      5  C   UNL     1       0.147  -1.668  -1.084  1.00  0.00     0.031 C 
ATOM      6  C   UNL     1       0.628  -1.336  -2.497  1.00  0.00     0.118 C 
ENDROOT
BRANCH   1   7
ATOM      7  C   UNL     1       1.422   0.962  -2.315  1.00  0.00     0.141 A 
ATOM      8  C   UNL     1       3.099   1.495  -0.776  1.00  0.00     0.226 A 
ATOM      9  N   UNL     1       2.146   0.639  -1.205  1.00  0.00    -0.219 NA
ATOM     10  N   UNL     1       3.411   2.702  -1.263  1.00  0.00    -0.218 NA
ATOM     11  C   UNL     1       2.680   2.992  -2.347  1.00  0.00     0.142 A 
ATOM     12  C   UNL     1       1.698   2.204  -2.927  1.00  0.00     0.061 A 
ATOM     13  N   UNL     1       2.804   4.140  -3.083  1.00  0.00    -0.346 N 
ATOM     14  C   UNL     1       1.239   2.916  -4.074  1.00  0.00     0.033 A 
ATOM     15  C   UNL     1       1.929   4.108  -4.138  1.00  0.00     0.085 A 
ATOM     16  H   UNL     1       3.466   4.875  -2.875  1.00  0.00     0.167 HD
ENDBRANCH   1   7
BRANCH   4  17
ATOM     17  C   UNL     1      -1.576  -1.189   0.741  1.00  0.00     0.265 C 
BRANCH  17  18
ATOM     18  N   UNL     1      -0.575  -0.448   1.622  1.00  0.00    -0.335 N 
ATOM     19  C   UNL     1       0.384  -1.351   2.376  1.00  0.00     0.262 C 
ATOM     20  C   UNL     1      -1.206   0.591   2.512  1.00  0.00     0.262 C 
ATOM     21  C   UNL     1      -0.001  -1.504   3.845  1.00  0.00     0.062 C 
ATOM     22  C   UNL     1      -2.055  -0.068   3.594  1.00  0.00     0.062 C 
ATOM     23  C   UNL     1      -1.501  -1.407   4.076  1.00  0.00     0.012 C 
ATOM     24  H   UNL     1       0.032   0.088   0.983  1.00  0.00     0.348 HD
ENDBRANCH  17  18
ENDBRANCH   4  17
TORSDOF 3
