REMARK SMILES c1ccc(Nc2nc(N3CCN(c4ccccc4)CC3)nc3nccnc23)cc1
REMARK SMILES IDX 6 1 7 2 8 3 21 4 22 5 23 6 24 7 25 8 26 9 27 10 5 11 4 13
REMARK SMILES IDX 1 14 2 15 29 16 3 17 28 18 9 19 10 20 20 21 11 22 19 23
REMARK SMILES IDX 12 24 13 25 14 26 18 27 15 28 17 29 16 30
REMARK H PARENT 5 12
ROOT
ATOM      1  C   UNL     1       0.076   3.567   0.929  1.00  0.00     0.164 A 
ATOM      2  N   UNL     1      -0.490   2.345   0.891  1.00  0.00    -0.193 NA
ATOM      3  C   UNL     1       0.281   1.272   1.077  1.00  0.00     0.229 A 
ATOM      4  N   UNL     1       1.589   1.369   1.316  1.00  0.00    -0.191 NA
ATOM      5  C   UNL     1       2.149   2.571   1.352  1.00  0.00     0.185 A 
ATOM      6  N   UNL     1       3.468   2.628   1.578  1.00  0.00    -0.233 NA
ATOM      7  C   UNL     1       4.057   3.845   1.608  1.00  0.00     0.133 A 
ATOM      8  C   UNL     1       3.351   5.009   1.409  1.00  0.00     0.132 A 
ATOM      9  N   UNL     1       2.026   4.993   1.174  1.00  0.00    -0.247 NA
ATOM     10  C   UNL     1       1.434   3.756   1.158  1.00  0.00     0.150 A 
ENDROOT
BRANCH   1  11
ATOM     11  N   UNL     1      -0.718   4.739   0.769  1.00  0.00    -0.338 N 
ATOM     12  H   UNL     1      -0.138   5.505   0.434  1.00  0.00     0.168 HD
BRANCH  11  13
ATOM     13  C   UNL     1      -2.098   4.914   0.579  1.00  0.00     0.040 A 
ATOM     14  C   UNL     1      -4.854   5.399   0.205  1.00  0.00     0.000 A 
ATOM     15  C   UNL     1      -3.921   6.371  -0.143  1.00  0.00     0.002 A 
ATOM     16  C   UNL     1      -4.420   4.195   0.752  1.00  0.00     0.002 A 
ATOM     17  C   UNL     1      -2.557   6.130   0.049  1.00  0.00     0.026 A 
ATOM     18  C   UNL     1      -3.054   3.960   0.941  1.00  0.00     0.026 A 
ENDBRANCH  11  13
ENDBRANCH   1  11
BRANCH   3  19
ATOM     19  N   UNL     1      -0.298   0.016   1.056  1.00  0.00    -0.337 N 
ATOM     20  C   UNL     1      -1.620  -0.145   0.428  1.00  0.00     0.141 C 
ATOM     21  C   UNL     1       0.634  -1.119   0.923  1.00  0.00     0.141 C 
ATOM     22  C   UNL     1      -1.532  -0.986  -0.866  1.00  0.00     0.138 C 
ATOM     23  C   UNL     1      -0.123  -2.427   0.616  1.00  0.00     0.138 C 
ATOM     24  N   UNL     1      -0.914  -2.322  -0.632  1.00  0.00    -0.368 N 
BRANCH  24  25
ATOM     25  C   UNL     1      -0.457  -2.932  -1.808  1.00  0.00     0.037 A 
ATOM     26  C   UNL     1      -1.367  -3.193  -2.849  1.00  0.00     0.026 A 
ATOM     27  C   UNL     1       0.876  -3.310  -2.021  1.00  0.00     0.026 A 
ATOM     28  C   UNL     1      -0.967  -3.797  -4.045  1.00  0.00     0.002 A 
ATOM     29  C   UNL     1       1.285  -3.914  -3.217  1.00  0.00     0.002 A 
ATOM     30  C   UNL     1       0.363  -4.158  -4.229  1.00  0.00     0.000 A 
ENDBRANCH  24  25
ENDBRANCH   3  19
TORSDOF 4
