REMARK SMILES Cc1ccc(Nc2nc(Nc3cccc(F)c3)nc3nccnc23)cc1C
REMARK SMILES IDX 7 1 8 2 9 3 18 4 19 5 20 6 21 7 22 8 23 9 24 10 6 11 5 13
REMARK SMILES IDX 2 14 3 15 26 16 4 17 25 18 1 19 27 20 10 21 11 23 12 24
REMARK SMILES IDX 17 25 13 26 15 27 14 28 16 29
REMARK H PARENT 6 12 10 22
ROOT
ATOM      1  C   UNL     1       0.661   1.792   0.398  1.00  0.00     0.164 A 
ATOM      2  N   UNL     1       0.595   1.490  -0.913  1.00  0.00    -0.193 NA
ATOM      3  C   UNL     1       1.266   2.254  -1.774  1.00  0.00     0.231 A 
ATOM      4  N   UNL     1       2.014   3.291  -1.398  1.00  0.00    -0.191 NA
ATOM      5  C   UNL     1       2.072   3.591  -0.107  1.00  0.00     0.185 A 
ATOM      6  N   UNL     1       2.817   4.648   0.240  1.00  0.00    -0.233 NA
ATOM      7  C   UNL     1       2.883   4.977   1.550  1.00  0.00     0.133 A 
ATOM      8  C   UNL     1       2.211   4.270   2.521  1.00  0.00     0.132 A 
ATOM      9  N   UNL     1       1.450   3.205   2.212  1.00  0.00    -0.247 NA
ATOM     10  C   UNL     1       1.398   2.868   0.883  1.00  0.00     0.150 A 
ENDROOT
BRANCH   1  11
ATOM     11  N   UNL     1      -0.004   0.981   1.362  1.00  0.00    -0.338 N 
ATOM     12  H   UNL     1      -0.234   1.537   2.182  1.00  0.00     0.168 HD
BRANCH  11  13
ATOM     13  C   UNL     1      -0.761  -0.193   1.217  1.00  0.00     0.040 A 
ATOM     14  C   UNL     1      -2.326  -2.556   1.035  1.00  0.00    -0.048 A 
ATOM     15  C   UNL     1      -1.374  -2.242   0.057  1.00  0.00     0.006 A 
ATOM     16  C   UNL     1      -2.483  -1.692   2.133  1.00  0.00    -0.046 A 
ATOM     17  C   UNL     1      -0.599  -1.082   0.155  1.00  0.00     0.026 A 
ATOM     18  C   UNL     1      -1.697  -0.526   2.209  1.00  0.00     0.029 A 
ATOM     19  C   UNL     1      -3.141  -3.811   0.896  1.00  0.00     0.044 C 
ATOM     20  C   UNL     1      -3.480  -1.980   3.222  1.00  0.00     0.044 C 
ENDBRANCH  11  13
ENDBRANCH   1  11
BRANCH   3  21
ATOM     21  N   UNL     1       1.257   2.000  -3.142  1.00  0.00    -0.324 N 
ATOM     22  H   UNL     1       1.858   2.665  -3.608  1.00  0.00     0.170 HD
BRANCH  21  23
ATOM     23  C   UNL     1       0.509   1.145  -3.960  1.00  0.00     0.044 A 
ATOM     24  C   UNL     1       0.903   0.990  -5.303  1.00  0.00     0.026 A 
ATOM     25  C   UNL     1      -0.573   0.384  -3.510  1.00  0.00     0.065 A 
ATOM     26  C   UNL     1       0.230   0.121  -6.168  1.00  0.00     0.005 A 
ATOM     27  C   UNL     1      -1.239  -0.482  -4.375  1.00  0.00     0.125 A 
ATOM     28  C   UNL     1      -0.849  -0.620  -5.700  1.00  0.00     0.039 A 
ATOM     29  F   UNL     1      -2.277  -1.198  -3.920  1.00  0.00    -0.207 F 
ENDBRANCH  21  23
ENDBRANCH   3  21
TORSDOF 4
