REMARK SMILES COc1ccccc1N1CCN(c2nc(Nc3ccccc3)c3nccnc3n2)CC1
REMARK SMILES IDX 9 1 10 2 11 3 12 4 30 5 31 6 8 7 3 8 4 9 5 10 7 11 6 12 2 13
REMARK SMILES IDX 1 14 13 15 14 16 29 17 15 18 28 19 23 20 27 21 24 22 26 23
REMARK SMILES IDX 25 24 16 25 17 27 18 28 22 29 19 30 21 31 20 32
REMARK H PARENT 16 26
ROOT
ATOM      1  N   UNL     1       1.925  -2.247   0.021  1.00  0.00    -0.365 N 
ATOM      2  C   UNL     1       0.562  -2.583   0.486  1.00  0.00     0.138 C 
ATOM      3  C   UNL     1      -0.443  -1.461   0.146  1.00  0.00     0.141 C 
ATOM      4  N   UNL     1      -0.408  -1.135  -1.293  1.00  0.00    -0.337 N 
ATOM      5  C   UNL     1       0.944  -0.810  -1.801  1.00  0.00     0.141 C 
ATOM      6  C   UNL     1       1.977  -1.891  -1.409  1.00  0.00     0.138 C 
ENDROOT
BRANCH   1   7
ATOM      7  C   UNL     1       2.839  -1.768   0.956  1.00  0.00     0.079 A 
ATOM      8  C   UNL     1       3.586  -0.573   0.852  1.00  0.00     0.142 A 
ATOM      9  C   UNL     1       4.532  -0.223   1.833  1.00  0.00     0.048 A 
ATOM     10  C   UNL     1       4.728  -1.025   2.954  1.00  0.00     0.004 A 
ATOM     11  C   UNL     1       3.076  -2.556   2.104  1.00  0.00     0.030 A 
ATOM     12  C   UNL     1       3.996  -2.193   3.092  1.00  0.00     0.002 A 
BRANCH   8  13
ATOM     13  O   UNL     1       3.407   0.241  -0.243  1.00  0.00    -0.495 OA
ATOM     14  C   UNL     1       3.264   1.622   0.083  1.00  0.00     0.278 C 
ENDBRANCH   8  13
ENDBRANCH   1   7
BRANCH   4  15
ATOM     15  C   UNL     1      -1.393  -0.226  -1.686  1.00  0.00     0.229 A 
ATOM     16  N   UNL     1      -2.549  -0.199  -1.016  1.00  0.00    -0.193 NA
ATOM     17  N   UNL     1      -1.166   0.562  -2.739  1.00  0.00    -0.191 NA
ATOM     18  C   UNL     1      -3.511   0.654  -1.412  1.00  0.00     0.164 A 
ATOM     19  C   UNL     1      -2.109   1.410  -3.125  1.00  0.00     0.185 A 
ATOM     20  C   UNL     1      -3.348   1.519  -2.488  1.00  0.00     0.150 A 
ATOM     21  N   UNL     1      -1.839   2.197  -4.175  1.00  0.00    -0.233 NA
ATOM     22  N   UNL     1      -4.316   2.405  -2.887  1.00  0.00    -0.247 NA
ATOM     23  C   UNL     1      -2.790   3.069  -4.579  1.00  0.00     0.133 A 
ATOM     24  C   UNL     1      -4.008   3.174  -3.947  1.00  0.00     0.132 A 
BRANCH  18  25
ATOM     25  N   UNL     1      -4.755   0.719  -0.728  1.00  0.00    -0.338 N 
ATOM     26  H   UNL     1      -5.334   1.468  -1.100  1.00  0.00     0.168 HD
BRANCH  25  27
ATOM     27  C   UNL     1      -5.343  -0.062   0.275  1.00  0.00     0.040 A 
ATOM     28  C   UNL     1      -4.804  -1.263   0.745  1.00  0.00     0.026 A 
ATOM     29  C   UNL     1      -6.524   0.402   0.879  1.00  0.00     0.026 A 
ATOM     30  C   UNL     1      -5.427  -1.987   1.768  1.00  0.00     0.002 A 
ATOM     31  C   UNL     1      -7.150  -0.315   1.904  1.00  0.00     0.002 A 
ATOM     32  C   UNL     1      -6.600  -1.512   2.348  1.00  0.00     0.000 A 
ENDBRANCH  25  27
ENDBRANCH  18  25
ENDBRANCH   4  15
TORSDOF 5
