REMARK SMILES CC[NH+](Cc1nc2ccccc2c(=O)[nH]1)CC1CCCCC1
REMARK SMILES IDX 3 1 2 3 1 4 4 5 5 6 6 7 15 8 7 9 13 10 8 11 12 12 9 13 11 14
REMARK SMILES IDX 10 15 14 17 16 18 17 19 18 20 22 21 19 22 21 23 20 24
REMARK H PARENT 3 2 15 16
ROOT
ATOM      1  N   UNL     1      -0.217   1.277  -1.529  1.00  0.00    -0.329 N 
ATOM      2  H   UNL     1      -0.515   2.106  -2.056  1.00  0.00     0.348 HD
ENDROOT
BRANCH   1   3
ATOM      3  C   UNL     1       0.466   0.376  -2.550  1.00  0.00     0.259 C 
ATOM      4  C   UNL     1       1.401   1.190  -3.427  1.00  0.00     0.071 C 
ENDBRANCH   1   3
BRANCH   1   5
ATOM      5  C   UNL     1      -1.524   0.662  -1.007  1.00  0.00     0.338 C 
BRANCH   5   6
ATOM      6  C   UNL     1      -1.338  -0.616  -0.193  1.00  0.00     0.165 C 
ATOM      7  N   UNL     1      -0.794  -1.656  -0.738  1.00  0.00    -0.229 NA
ATOM      8  N   UNL     1      -1.750  -0.582   1.113  1.00  0.00    -0.305 N 
ATOM      9  C   UNL     1      -0.634  -2.811   0.052  1.00  0.00     0.078 A 
ATOM     10  C   UNL     1      -1.625  -1.649   1.968  1.00  0.00     0.258 C 
ATOM     11  C   UNL     1      -0.064  -3.949  -0.520  1.00  0.00     0.029 A 
ATOM     12  C   UNL     1      -1.022  -2.862   1.395  1.00  0.00     0.065 A 
ATOM     13  C   UNL     1       0.115  -5.110   0.239  1.00  0.00     0.002 A 
ATOM     14  C   UNL     1      -0.849  -4.016   2.164  1.00  0.00     0.016 A 
ATOM     15  C   UNL     1      -0.277  -5.144   1.578  1.00  0.00     0.001 A 
ATOM     16  H   UNL     1      -2.199   0.221   1.534  1.00  0.00     0.171 HD
ATOM     17  O   UNL     1      -1.990  -1.571   3.132  1.00  0.00    -0.269 OA
ENDBRANCH   5   6
ENDBRANCH   1   5
BRANCH   1  18
ATOM     18  C   UNL     1       0.710   1.730  -0.411  1.00  0.00     0.266 C 
BRANCH  18  19
ATOM     19  C   UNL     1       1.006   3.234  -0.522  1.00  0.00     0.044 C 
ATOM     20  C   UNL     1      -0.260   4.094  -0.323  1.00  0.00     0.009 C 
ATOM     21  C   UNL     1       2.088   3.636   0.488  1.00  0.00     0.009 C 
ATOM     22  C   UNL     1       0.026   5.506   0.197  1.00  0.00     0.001 C 
ATOM     23  C   UNL     1       2.513   5.098   0.321  1.00  0.00     0.001 C 
ATOM     24  C   UNL     1       1.403   5.999  -0.220  1.00  0.00     0.000 C 
ENDBRANCH  18  19
ENDBRANCH   1  18
TORSDOF 5
