REMARK SMILES Cc1nn(Cc2nc(N)nc(Nc3ccccc3)n2)c(C)c1S(=O)(=O)N1CCCCC1
REMARK SMILES IDX 5 1 4 2 2 3 3 4 22 5 20 6 1 7 21 8 23 9 24 10 25 11 26 12
REMARK SMILES IDX 27 13 31 14 28 15 30 16 29 17 6 18 7 19 19 20 8 21 11 22
REMARK SMILES IDX 10 23 9 24 12 27 13 29 14 30 18 31 15 32 17 33 16 34
REMARK H PARENT 9 25 9 26 12 28
ROOT
ATOM      1  C   UNL     1       3.643  -1.848  -0.020  1.00  0.00     0.222 C 
ENDROOT
BRANCH   1   2
ATOM      2  N   UNL     1       3.225  -0.683  -0.788  1.00  0.00    -0.261 N 
ATOM      3  C   UNL     1       3.256   0.685  -2.422  1.00  0.00     0.080 A 
ATOM      4  N   UNL     1       3.858  -0.415  -1.952  1.00  0.00    -0.176 NA
ATOM      5  C   UNL     1       2.238   1.120  -1.549  1.00  0.00     0.126 A 
ATOM      6  C   UNL     1       2.275   0.258  -0.464  1.00  0.00     0.056 A 
ATOM      7  C   UNL     1       3.699   1.272  -3.711  1.00  0.00     0.070 C 
ATOM      8  C   UNL     1       1.483   0.256   0.793  1.00  0.00     0.068 C 
BRANCH   5   9
ATOM      9  S   UNL     1       1.202   2.473  -1.784  1.00  0.00     0.246 S 
ATOM     10  O   UNL     1       1.804   3.512  -0.978  1.00  0.00    -0.207 OA
ATOM     11  O   UNL     1       1.053   2.606  -3.217  1.00  0.00    -0.207 OA
BRANCH   9  12
ATOM     12  N   UNL     1      -0.341   2.104  -1.137  1.00  0.00    -0.198 NA
ATOM     13  C   UNL     1      -1.049   0.998  -1.842  1.00  0.00     0.102 C 
ATOM     14  C   UNL     1      -1.212   3.303  -0.992  1.00  0.00     0.102 C 
ATOM     15  C   UNL     1      -2.271   0.581  -1.026  1.00  0.00     0.017 C 
ATOM     16  C   UNL     1      -2.447   2.936  -0.171  1.00  0.00     0.017 C 
ATOM     17  C   UNL     1      -3.204   1.766  -0.794  1.00  0.00     0.003 C 
ENDBRANCH   9  12
ENDBRANCH   5   9
ENDBRANCH   1   2
BRANCH   1  18
ATOM     18  C   UNL     1       2.693  -2.992  -0.237  1.00  0.00     0.157 A 
ATOM     19  N   UNL     1       3.015  -3.915  -1.143  1.00  0.00    -0.196 NA
ATOM     20  N   UNL     1       1.579  -3.027   0.500  1.00  0.00    -0.195 NA
ATOM     21  C   UNL     1       2.131  -4.885  -1.298  1.00  0.00     0.225 A 
ATOM     22  C   UNL     1       0.749  -4.037   0.262  1.00  0.00     0.232 A 
ATOM     23  N   UNL     1       0.984  -4.981  -0.646  1.00  0.00    -0.177 NA
BRANCH  21  24
ATOM     24  N   UNL     1       2.416  -5.851  -2.242  1.00  0.00    -0.368 N 
ATOM     25  H   UNL     1       1.567  -6.275  -2.590  1.00  0.00     0.159 HD
ATOM     26  H   UNL     1       3.067  -5.491  -2.929  1.00  0.00     0.159 HD
ENDBRANCH  21  24
BRANCH  22  27
ATOM     27  N   UNL     1      -0.466  -4.158   0.935  1.00  0.00    -0.324 N 
ATOM     28  H   UNL     1      -0.948  -4.981   0.603  1.00  0.00     0.170 HD
BRANCH  27  29
ATOM     29  C   UNL     1      -1.047  -3.491   2.020  1.00  0.00     0.041 A 
ATOM     30  C   UNL     1      -2.387  -3.771   2.337  1.00  0.00     0.026 A 
ATOM     31  C   UNL     1      -0.394  -2.513   2.776  1.00  0.00     0.026 A 
ATOM     32  C   UNL     1      -3.042  -3.112   3.382  1.00  0.00     0.002 A 
ATOM     33  C   UNL     1      -1.043  -1.850   3.823  1.00  0.00     0.002 A 
ATOM     34  C   UNL     1      -2.367  -2.150   4.126  1.00  0.00     0.000 A 
ENDBRANCH  27  29
ENDBRANCH  22  27
ENDBRANCH   1  18
TORSDOF 7
