REMARK SMILES Nc1nc(Cn2cc(S(=O)(=O)N3CCCC3)ccc2=O)nc(Nc2ccccc2)n1
REMARK SMILES IDX 5 1 4 2 2 3 3 4 30 5 22 6 21 7 1 8 23 11 24 13 25 14 29 15
REMARK SMILES IDX 26 16 28 17 27 18 6 19 7 20 19 21 8 22 18 23 17 24 20 25
REMARK SMILES IDX 9 26 10 27 11 28 12 29 13 30 16 31 14 32 15 33
REMARK H PARENT 1 9 1 10 23 12
ROOT
ATOM      1  C   UNL     1       0.898   0.926  -0.490  1.00  0.00     0.203 C 
ENDROOT
BRANCH   1   2
ATOM      2  C   UNL     1       1.278   0.200  -1.763  1.00  0.00     0.156 A 
ATOM      3  C   UNL     1       2.747  -1.009  -2.940  1.00  0.00     0.225 A 
ATOM      4  N   UNL     1       2.490  -0.354  -1.821  1.00  0.00    -0.196 NA
ATOM      5  N   UNL     1       1.901  -1.164  -3.946  1.00  0.00    -0.177 NA
ATOM      6  C   UNL     1       0.710  -0.590  -3.800  1.00  0.00     0.232 A 
ATOM      7  N   UNL     1       0.362   0.103  -2.724  1.00  0.00    -0.195 NA
BRANCH   3   8
ATOM      8  N   UNL     1       3.983  -1.613  -3.047  1.00  0.00    -0.368 N 
ATOM      9  H   UNL     1       4.363  -1.805  -2.130  1.00  0.00     0.159 HD
ATOM     10  H   UNL     1       3.941  -2.388  -3.694  1.00  0.00     0.159 HD
ENDBRANCH   3   8
BRANCH   6  11
ATOM     11  N   UNL     1      -0.165  -0.761  -4.871  1.00  0.00    -0.324 N 
ATOM     12  H   UNL     1       0.290  -1.303  -5.591  1.00  0.00     0.170 HD
BRANCH  11  13
ATOM     13  C   UNL     1      -1.510  -0.438  -5.084  1.00  0.00     0.041 A 
ATOM     14  C   UNL     1      -2.067  -0.694  -6.349  1.00  0.00     0.026 A 
ATOM     15  C   UNL     1      -2.334   0.162  -4.125  1.00  0.00     0.026 A 
ATOM     16  C   UNL     1      -3.398  -0.377  -6.639  1.00  0.00     0.002 A 
ATOM     17  C   UNL     1      -3.667   0.480  -4.410  1.00  0.00     0.002 A 
ATOM     18  C   UNL     1      -4.199   0.210  -5.666  1.00  0.00     0.000 A 
ENDBRANCH  11  13
ENDBRANCH   6  11
ENDBRANCH   1   2
BRANCH   1  19
ATOM     19  N   UNL     1       0.232   0.047   0.479  1.00  0.00    -0.307 N 
ATOM     20  C   UNL     1       0.998  -0.834   1.236  1.00  0.00     0.111 C 
ATOM     21  C   UNL     1      -1.160   0.063   0.535  1.00  0.00     0.251 C 
ATOM     22  C   UNL     1       0.426  -1.701   2.085  1.00  0.00     0.099 C 
ATOM     23  C   UNL     1      -1.781  -0.918   1.468  1.00  0.00     0.073 C 
ATOM     24  C   UNL     1      -1.017  -1.746   2.193  1.00  0.00     0.029 C 
ATOM     25  O   UNL     1      -1.884   0.819  -0.104  1.00  0.00    -0.269 OA
BRANCH  22  26
ATOM     26  S   UNL     1       1.453  -2.777   3.017  1.00  0.00     0.244 S 
ATOM     27  O   UNL     1       0.677  -3.949   3.378  1.00  0.00    -0.207 OA
ATOM     28  O   UNL     1       2.721  -2.935   2.329  1.00  0.00    -0.207 OA
BRANCH  26  29
ATOM     29  N   UNL     1       1.795  -1.976   4.463  1.00  0.00    -0.198 NA
ATOM     30  C   UNL     1       2.691  -0.802   4.461  1.00  0.00     0.102 C 
ATOM     31  C   UNL     1       0.724  -1.789   5.459  1.00  0.00     0.102 C 
ATOM     32  C   UNL     1       2.021   0.194   5.399  1.00  0.00     0.018 C 
ATOM     33  C   UNL     1       1.268  -0.697   6.370  1.00  0.00     0.018 C 
ENDBRANCH  26  29
ENDBRANCH  22  26
ENDBRANCH   1  19
TORSDOF 7
