REMARK SMILES N#CC(c1nc2ccccc2nc1NCC1CCCCC1)S(=O)(=O)c1ccc(F)cc1
REMARK SMILES IDX 4 1 5 2 6 3 7 4 8 5 9 6 10 7 11 8 12 9 13 10 3 11 2 12 1 13
REMARK SMILES IDX 22 14 23 15 24 16 25 17 26 18 31 19 27 20 30 21 28 22 29 23
REMARK SMILES IDX 14 24 15 26 16 27 17 28 21 29 18 30 20 31 19 32
REMARK H PARENT 14 25
ROOT
ATOM      1  C   UNL     1       0.791   0.150  -2.066  1.00  0.00     0.116 A 
ATOM      2  N   UNL     1       0.816   0.418  -3.401  1.00  0.00    -0.245 NA
ATOM      3  C   UNL     1      -0.334   0.806  -3.979  1.00  0.00     0.089 A 
ATOM      4  C   UNL     1      -0.364   1.084  -5.341  1.00  0.00     0.030 A 
ATOM      5  C   UNL     1      -1.539   1.495  -5.971  1.00  0.00     0.002 A 
ATOM      6  C   UNL     1      -2.703   1.632  -5.225  1.00  0.00     0.002 A 
ATOM      7  C   UNL     1      -2.681   1.355  -3.858  1.00  0.00     0.031 A 
ATOM      8  C   UNL     1      -1.515   0.943  -3.221  1.00  0.00     0.091 A 
ATOM      9  N   UNL     1      -1.532   0.683  -1.900  1.00  0.00    -0.227 NA
ATOM     10  C   UNL     1      -0.390   0.271  -1.313  1.00  0.00     0.151 A 
ENDROOT
BRANCH   1  11
ATOM     11  C   UNL     1       2.086  -0.223  -1.396  1.00  0.00     0.268 C 
BRANCH  11  12
ATOM     12  C   UNL     1       3.293   0.121  -2.141  1.00  0.00     0.089 C 
ATOM     13  N   UNL     1       4.294   0.407  -2.658  1.00  0.00    -0.196 NA
ENDBRANCH  11  12
BRANCH  11  14
ATOM     14  S   UNL     1       2.091  -1.994  -1.197  1.00  0.00     0.200 S 
ATOM     15  O   UNL     1       2.215  -2.666  -2.477  1.00  0.00    -0.222 OA
ATOM     16  O   UNL     1       1.012  -2.375  -0.294  1.00  0.00    -0.222 OA
BRANCH  14  17
ATOM     17  C   UNL     1       3.593  -2.329  -0.285  1.00  0.00     0.069 A 
ATOM     18  C   UNL     1       4.736  -2.768  -0.965  1.00  0.00     0.023 A 
ATOM     19  C   UNL     1       3.592  -2.191   1.109  1.00  0.00     0.023 A 
ATOM     20  C   UNL     1       5.897  -3.041  -0.241  1.00  0.00     0.040 A 
ATOM     21  C   UNL     1       4.759  -2.469   1.822  1.00  0.00     0.040 A 
ATOM     22  C   UNL     1       5.900  -2.887   1.142  1.00  0.00     0.123 A 
ATOM     23  F   UNL     1       7.016  -3.153   1.833  1.00  0.00    -0.207 F 
ENDBRANCH  14  17
ENDBRANCH  11  14
ENDBRANCH   1  11
BRANCH  10  24
ATOM     24  N   UNL     1      -0.383  -0.028   0.066  1.00  0.00    -0.368 N 
ATOM     25  H   UNL     1      -0.176  -1.032   0.157  1.00  0.00     0.162 HD
BRANCH  24  26
ATOM     26  C   UNL     1      -1.645   0.272   0.753  1.00  0.00     0.118 C 
BRANCH  26  27
ATOM     27  C   UNL     1      -1.483   0.061   2.271  1.00  0.00     0.008 C 
ATOM     28  C   UNL     1      -1.343  -1.418   2.655  1.00  0.00     0.005 C 
ATOM     29  C   UNL     1      -2.674   0.696   3.018  1.00  0.00     0.005 C 
ATOM     30  C   UNL     1      -1.079  -1.597   4.153  1.00  0.00     0.000 C 
ATOM     31  C   UNL     1      -2.923   0.105   4.408  1.00  0.00     0.000 C 
ATOM     32  C   UNL     1      -1.657  -0.477   5.018  1.00  0.00     0.000 C 
ENDBRANCH  26  27
ENDBRANCH  24  26
ENDBRANCH  10  24
TORSDOF 7
