REMARK SMILES O=C(c1ccccc1OCC1CC1)N1CCCC(n2ccnc2)C1
REMARK SMILES IDX 3 1 4 2 5 3 6 4 7 5 8 6 2 7 1 8 14 9 15 10 24 11 16 12 18 13
REMARK SMILES IDX 17 14 19 15 20 16 23 17 21 18 22 19 9 20 10 21 11 22 12 23
REMARK SMILES IDX 13 24
REMARK H PARENT
ROOT
ATOM      1  C   UNL     1      -1.816   0.582  -1.330  1.00  0.00     0.082 A 
ATOM      2  C   UNL     1      -3.175   0.403  -1.609  1.00  0.00     0.018 A 
ATOM      3  C   UNL     1      -4.103   1.326  -1.128  1.00  0.00     0.001 A 
ATOM      4  C   UNL     1      -3.674   2.423  -0.379  1.00  0.00     0.004 A 
ATOM      5  C   UNL     1      -2.315   2.608  -0.116  1.00  0.00     0.047 A 
ATOM      6  C   UNL     1      -1.383   1.698  -0.613  1.00  0.00     0.132 A 
ENDROOT
BRANCH   1   7
ATOM      7  C   UNL     1      -0.858  -0.399  -1.865  1.00  0.00     0.257 C 
ATOM      8  O   UNL     1      -0.526  -0.282  -3.043  1.00  0.00    -0.269 OA
BRANCH   7   9
ATOM      9  N   UNL     1      -0.420  -1.436  -1.040  1.00  0.00    -0.336 N 
ATOM     10  C   UNL     1       0.393  -2.472  -1.671  1.00  0.00     0.120 C 
ATOM     11  C   UNL     1      -0.897  -1.670   0.326  1.00  0.00     0.145 C 
ATOM     12  C   UNL     1       0.608  -3.694  -0.788  1.00  0.00     0.024 C 
ATOM     13  C   UNL     1       0.158  -2.286   1.272  1.00  0.00     0.107 C 
ATOM     14  C   UNL     1       1.119  -3.270   0.582  1.00  0.00     0.029 C 
BRANCH  13  15
ATOM     15  N   UNL     1       0.887  -1.274   2.029  1.00  0.00    -0.333 N 
ATOM     16  C   UNL     1       1.659  -0.265   1.523  1.00  0.00     0.107 A 
ATOM     17  C   UNL     1       0.915  -1.168   3.393  1.00  0.00     0.199 A 
ATOM     18  C   UNL     1       2.126   0.413   2.626  1.00  0.00     0.130 A 
ATOM     19  N   UNL     1       1.660  -0.157   3.783  1.00  0.00    -0.245 NA
ENDBRANCH  13  15
ENDBRANCH   7   9
ENDBRANCH   1   7
BRANCH   6  20
ATOM     20  O   UNL     1      -0.057   1.869  -0.326  1.00  0.00    -0.492 OA
BRANCH  20  21
ATOM     21  C   UNL     1       0.529   2.847  -1.197  1.00  0.00     0.233 C 
BRANCH  21  22
ATOM     22  C   UNL     1       2.014   2.632  -1.194  1.00  0.00     0.027 C 
ATOM     23  C   UNL     1       2.841   2.982  -2.403  1.00  0.00     0.007 C 
ATOM     24  C   UNL     1       2.619   1.538  -2.041  1.00  0.00     0.007 C 
ENDBRANCH  21  22
ENDBRANCH  20  21
ENDBRANCH   6  20
TORSDOF 6
