REMARK SMILES CC(C)N(Cc1nc2ccccc2c(=O)[nH]1)C(=O)NCC1CCCC1
REMARK SMILES IDX 4 1 2 2 1 3 3 4 5 5 6 6 7 7 16 8 8 9 14 10 9 11 13 12 10 13
REMARK SMILES IDX 12 14 11 15 15 17 17 18 19 19 18 20 20 22 21 23 22 24 25 25
REMARK SMILES IDX 23 26 24 27
REMARK H PARENT 16 16 19 21
ROOT
ATOM      1  N   UNL     1       2.467  -1.057  -1.249  1.00  0.00    -0.315 N 
ENDROOT
BRANCH   1   2
ATOM      2  C   UNL     1       3.898  -0.763  -1.021  1.00  0.00     0.081 C 
ATOM      3  C   UNL     1       4.189  -0.233   0.385  1.00  0.00     0.031 C 
ATOM      4  C   UNL     1       4.794  -1.956  -1.365  1.00  0.00     0.031 C 
ENDBRANCH   1   2
BRANCH   1   5
ATOM      5  C   UNL     1       1.728  -0.068  -2.048  1.00  0.00     0.197 C 
BRANCH   5   6
ATOM      6  C   UNL     1       1.339   1.129  -1.192  1.00  0.00     0.129 C 
ATOM      7  N   UNL     1       1.804   2.310  -1.449  1.00  0.00    -0.233 NA
ATOM      8  N   UNL     1       0.467   0.871  -0.166  1.00  0.00    -0.308 N 
ATOM      9  C   UNL     1       1.398   3.369  -0.618  1.00  0.00     0.078 A 
ATOM     10  C   UNL     1       0.008   1.831   0.698  1.00  0.00     0.258 C 
ATOM     11  C   UNL     1       1.891   4.650  -0.869  1.00  0.00     0.029 A 
ATOM     12  C   UNL     1       0.516   3.191   0.454  1.00  0.00     0.065 A 
ATOM     13  C   UNL     1       1.512   5.730  -0.065  1.00  0.00     0.002 A 
ATOM     14  C   UNL     1       0.130   4.263   1.266  1.00  0.00     0.016 A 
ATOM     15  C   UNL     1       0.632   5.536   1.002  1.00  0.00     0.001 A 
ATOM     16  H   UNL     1       0.171  -0.081   0.019  1.00  0.00     0.171 HD
ATOM     17  O   UNL     1      -0.777   1.578   1.604  1.00  0.00    -0.269 OA
ENDBRANCH   5   6
ENDBRANCH   1   5
BRANCH   1  18
ATOM     18  C   UNL     1       1.843  -2.044  -0.492  1.00  0.00     0.318 C 
ATOM     19  N   UNL     1       0.497  -2.190  -0.749  1.00  0.00    -0.338 N 
ATOM     20  O   UNL     1       2.409  -2.710   0.367  1.00  0.00    -0.249 OA
ATOM     21  H   UNL     1       0.317  -2.267  -1.740  1.00  0.00     0.165 HD
BRANCH  19  22
ATOM     22  C   UNL     1      -0.265  -3.143   0.044  1.00  0.00     0.121 C 
BRANCH  22  23
ATOM     23  C   UNL     1      -1.760  -3.034  -0.234  1.00  0.00     0.008 C 
ATOM     24  C   UNL     1      -2.377  -1.711   0.218  1.00  0.00     0.005 C 
ATOM     25  C   UNL     1      -2.581  -4.092   0.514  1.00  0.00     0.005 C 
ATOM     26  C   UNL     1      -3.862  -2.031   0.252  1.00  0.00     0.000 C 
ATOM     27  C   UNL     1      -3.924  -3.436   0.840  1.00  0.00     0.000 C 
ENDBRANCH  22  23
ENDBRANCH  19  22
ENDBRANCH   1  18
TORSDOF 6
