REMARK SMILES Cc1ccccc1-c1noc(C[NH+]2CCCC(Cn3cncn3)C2)n1
REMARK SMILES IDX 12 1 11 2 8 3 9 4 25 5 10 6 7 7 2 8 3 9 4 10 6 11 5 12 1 13
REMARK SMILES IDX 13 14 14 15 24 16 15 17 17 18 16 19 18 21 19 22 20 23 23 24
REMARK SMILES IDX 21 25 22 26
REMARK H PARENT 13 20
ROOT
ATOM      1  C   UNL     1      -1.241  -2.728  -0.208  1.00  0.00     0.364 C 
ENDROOT
BRANCH   1   2
ATOM      2  C   UNL     1       0.172  -2.519   0.195  1.00  0.00     0.282 A 
ATOM      3  C   UNL     1       2.019  -1.901   0.986  1.00  0.00     0.202 A 
ATOM      4  N   UNL     1       2.334  -2.887   0.130  1.00  0.00    -0.057 NA
ATOM      5  N   UNL     1       0.655  -1.654   1.057  1.00  0.00    -0.186 NA
ATOM      6  O   UNL     1       1.115  -3.292  -0.398  1.00  0.00    -0.333 OA
BRANCH   3   7
ATOM      7  C   UNL     1       2.980  -1.159   1.802  1.00  0.00     0.026 A 
ATOM      8  C   UNL     1       4.311  -0.905   1.403  1.00  0.00    -0.040 A 
ATOM      9  C   UNL     1       5.163  -0.197   2.273  1.00  0.00     0.004 A 
ATOM     10  C   UNL     1       4.709   0.271   3.505  1.00  0.00     0.000 A 
ATOM     11  C   UNL     1       2.539  -0.669   3.049  1.00  0.00     0.012 A 
ATOM     12  C   UNL     1       3.396   0.039   3.893  1.00  0.00     0.001 A 
ATOM     13  C   UNL     1       4.879  -1.367   0.087  1.00  0.00     0.045 C 
ENDBRANCH   3   7
ENDBRANCH   1   2
BRANCH   1  14
ATOM     14  N   UNL     1      -2.118  -1.492   0.052  1.00  0.00    -0.327 N 
ATOM     15  C   UNL     1      -3.593  -1.808   0.102  1.00  0.00     0.262 C 
ATOM     16  C   UNL     1      -1.735  -0.339  -0.873  1.00  0.00     0.268 C 
ATOM     17  C   UNL     1      -4.272  -1.402  -1.194  1.00  0.00     0.062 C 
ATOM     18  C   UNL     1      -2.855   0.704  -0.880  1.00  0.00     0.066 C 
ATOM     19  C   UNL     1      -4.143   0.099  -1.468  1.00  0.00     0.017 C 
ATOM     20  H   UNL     1      -1.838  -1.194   1.000  1.00  0.00     0.348 HD
BRANCH  18  21
ATOM     21  C   UNL     1      -2.455   2.024  -1.570  1.00  0.00     0.155 C 
BRANCH  21  22
ATOM     22  N   UNL     1      -2.062   1.903  -2.954  1.00  0.00    -0.252 N 
ATOM     23  C   UNL     1      -2.615   2.499  -4.041  1.00  0.00     0.219 A 
ATOM     24  N   UNL     1      -1.020   1.124  -3.300  1.00  0.00    -0.160 NA
ATOM     25  N   UNL     1      -1.961   2.127  -5.116  1.00  0.00    -0.224 NA
ATOM     26  C   UNL     1      -0.984   1.312  -4.624  1.00  0.00     0.246 A 
ENDBRANCH  21  22
ENDBRANCH  18  21
ENDBRANCH   1  14
TORSDOF 5
