REMARK SMILES CC(c1nc2ccccc2c(=O)[nH]1)[NH+]1CCCC(Cn2cncn2)C1
REMARK SMILES IDX 14 1 15 2 16 3 17 4 18 5 25 6 2 8 1 9 3 10 4 11 13 12 5 13
REMARK SMILES IDX 11 14 6 15 10 16 7 17 9 18 8 19 12 21 19 22 20 23 21 24
REMARK SMILES IDX 24 25 22 26 23 27
REMARK H PARENT 14 7 13 20
ROOT
ATOM      1  N   UNL     1      -0.722   0.511  -0.162  1.00  0.00    -0.326 N 
ATOM      2  C   UNL     1      -0.961  -0.960  -0.444  1.00  0.00     0.262 C 
ATOM      3  C   UNL     1      -0.553  -1.814   0.756  1.00  0.00     0.062 C 
ATOM      4  C   UNL     1       0.508  -1.145   1.618  1.00  0.00     0.017 C 
ATOM      5  C   UNL     1       0.022   0.206   2.187  1.00  0.00     0.066 C 
ATOM      6  C   UNL     1      -1.005   0.882   1.263  1.00  0.00     0.268 C 
ATOM      7  H   UNL     1       0.298   0.628  -0.319  1.00  0.00     0.348 HD
ENDROOT
BRANCH   1   8
ATOM      8  C   UNL     1      -1.285   1.496  -1.214  1.00  0.00     0.248 C 
ATOM      9  C   UNL     1      -2.744   1.202  -1.526  1.00  0.00     0.084 C 
BRANCH   8  10
ATOM     10  C   UNL     1      -0.356   1.499  -2.446  1.00  0.00     0.167 C 
ATOM     11  N   UNL     1       0.828   0.983  -2.304  1.00  0.00    -0.228 NA
ATOM     12  N   UNL     1      -0.792   2.079  -3.601  1.00  0.00    -0.305 N 
ATOM     13  C   UNL     1       1.690   1.004  -3.419  1.00  0.00     0.078 A 
ATOM     14  C   UNL     1      -0.028   2.148  -4.740  1.00  0.00     0.258 C 
ATOM     15  C   UNL     1       2.963   0.445  -3.300  1.00  0.00     0.029 A 
ATOM     16  C   UNL     1       1.319   1.564  -4.645  1.00  0.00     0.065 A 
ATOM     17  C   UNL     1       3.843   0.448  -4.388  1.00  0.00     0.002 A 
ATOM     18  C   UNL     1       2.188   1.574  -5.739  1.00  0.00     0.016 A 
ATOM     19  C   UNL     1       3.456   1.011  -5.605  1.00  0.00     0.001 A 
ATOM     20  H   UNL     1      -1.707   2.499  -3.706  1.00  0.00     0.171 HD
ATOM     21  O   UNL     1      -0.460   2.666  -5.760  1.00  0.00    -0.269 OA
ENDBRANCH   8  10
ENDBRANCH   1   8
BRANCH   5  22
ATOM     22  C   UNL     1      -0.583   0.105   3.602  1.00  0.00     0.155 C 
BRANCH  22  23
ATOM     23  N   UNL     1       0.362  -0.295   4.619  1.00  0.00    -0.252 N 
ATOM     24  C   UNL     1       1.198   0.491   5.344  1.00  0.00     0.219 A 
ATOM     25  N   UNL     1       0.482  -1.586   4.964  1.00  0.00    -0.160 NA
ATOM     26  N   UNL     1       1.897  -0.261   6.161  1.00  0.00    -0.224 NA
ATOM     27  C   UNL     1       1.425  -1.518   5.909  1.00  0.00     0.246 A 
ENDBRANCH  22  23
ENDBRANCH   5  22
TORSDOF 4
