REMARK SMILES Cc1cc(C)n(CC2CCCC[NH+]2Cc2nc3cccnc3[nH]2)n1
REMARK SMILES IDX 8 1 9 2 10 3 11 4 12 5 13 6 7 8 6 9 2 10 3 11 24 12 4 13
REMARK SMILES IDX 1 14 5 15 14 16 15 17 16 18 23 19 17 20 22 21 18 22 21 23
REMARK SMILES IDX 19 24 20 25
REMARK H PARENT 13 7 23 26
ROOT
ATOM      1  C   UNL     1       0.962  -0.096  -0.315  1.00  0.00     0.206 C 
ATOM      2  C   UNL     1       1.516  -1.154  -1.287  1.00  0.00     0.067 C 
ATOM      3  C   UNL     1       2.831  -0.702  -1.903  1.00  0.00     0.012 C 
ATOM      4  C   UNL     1       2.643   0.563  -2.736  1.00  0.00     0.062 C 
ATOM      5  C   UNL     1       1.405   1.372  -2.363  1.00  0.00     0.262 C 
ATOM      6  N   UNL     1       1.192   1.322  -0.877  1.00  0.00    -0.325 N 
ATOM      7  H   UNL     1       2.089   1.613  -0.452  1.00  0.00     0.348 HD
ENDROOT
BRANCH   1   8
ATOM      8  C   UNL     1      -0.448  -0.456   0.205  1.00  0.00     0.209 C 
BRANCH   8   9
ATOM      9  N   UNL     1      -1.485  -0.664  -0.787  1.00  0.00    -0.264 N 
ATOM     10  C   UNL     1      -2.624  -0.261  -2.530  1.00  0.00     0.060 A 
ATOM     11  C   UNL     1      -3.211  -1.386  -1.924  1.00  0.00     0.048 A 
ATOM     12  N   UNL     1      -1.582   0.197  -1.821  1.00  0.00    -0.178 NA
ATOM     13  C   UNL     1      -2.460  -1.628  -0.794  1.00  0.00     0.036 A 
ATOM     14  C   UNL     1      -3.035   0.406  -3.789  1.00  0.00     0.069 C 
ATOM     15  C   UNL     1      -2.615  -2.681   0.244  1.00  0.00     0.066 C 
ENDBRANCH   8   9
ENDBRANCH   1   8
BRANCH   6  16
ATOM     16  C   UNL     1       0.268   2.418  -0.384  1.00  0.00     0.339 C 
BRANCH  16  17
ATOM     17  C   UNL     1       0.511   2.690   1.062  1.00  0.00     0.163 A 
ATOM     18  N   UNL     1       1.586   2.314   1.733  1.00  0.00    -0.226 NA
ATOM     19  N   UNL     1      -0.384   3.350   1.868  1.00  0.00    -0.322 N 
ATOM     20  C   UNL     1       1.375   2.752   3.023  1.00  0.00     0.108 A 
ATOM     21  C   UNL     1       0.150   3.391   3.123  1.00  0.00     0.157 A 
ATOM     22  C   UNL     1       2.152   2.653   4.183  1.00  0.00     0.034 A 
ATOM     23  N   UNL     1      -0.421   3.932   4.207  1.00  0.00    -0.237 NA
ATOM     24  C   UNL     1       1.614   3.203   5.349  1.00  0.00     0.022 A 
ATOM     25  C   UNL     1       0.361   3.813   5.307  1.00  0.00     0.113 A 
ATOM     26  H   UNL     1      -1.284   3.747   1.619  1.00  0.00     0.170 HD
ENDBRANCH  16  17
ENDBRANCH   6  16
TORSDOF 4
