REMARK SMILES Fc1ccc(Oc2ccnc(Nc3ccc(NC4CCOCC4)cc3)n2)cc1
REMARK SMILES IDX 7 1 8 2 9 3 10 4 11 5 26 6 6 7 5 8 2 9 3 10 28 11 4 12 27 13
REMARK SMILES IDX 1 14 12 15 13 17 14 18 25 19 15 20 24 21 16 22 17 23 18 25
REMARK SMILES IDX 19 26 23 27 20 28 22 29 21 30
REMARK H PARENT 12 16 17 24
ROOT
ATOM      1  C   UNL     1      -2.711   2.799   1.488  1.00  0.00     0.224 A 
ATOM      2  C   UNL     1      -3.430   3.964   1.426  1.00  0.00     0.089 A 
ATOM      3  C   UNL     1      -3.185   4.731   0.319  1.00  0.00     0.121 A 
ATOM      4  N   UNL     1      -2.311   4.386  -0.646  1.00  0.00    -0.221 NA
ATOM      5  C   UNL     1      -1.650   3.225  -0.499  1.00  0.00     0.230 A 
ATOM      6  N   UNL     1      -1.826   2.417   0.550  1.00  0.00    -0.177 NA
ENDROOT
BRANCH   1   7
ATOM      7  O   UNL     1      -2.935   1.996   2.606  1.00  0.00    -0.439 OA
BRANCH   7   8
ATOM      8  C   UNL     1      -2.243   0.810   2.639  1.00  0.00     0.129 A 
ATOM      9  C   UNL     1      -0.853  -1.581   2.751  1.00  0.00     0.123 A 
ATOM     10  C   UNL     1      -2.039  -1.513   2.025  1.00  0.00     0.043 A 
ATOM     11  C   UNL     1      -0.363  -0.472   3.436  1.00  0.00     0.043 A 
ATOM     12  C   UNL     1      -2.745  -0.312   1.974  1.00  0.00     0.050 A 
ATOM     13  C   UNL     1      -1.066   0.732   3.387  1.00  0.00     0.050 A 
ATOM     14  F   UNL     1      -0.171  -2.733   2.791  1.00  0.00    -0.207 F 
ENDBRANCH   7   8
ENDBRANCH   1   7
BRANCH   5  15
ATOM     15  N   UNL     1      -0.766   2.910  -1.527  1.00  0.00    -0.324 N 
ATOM     16  H   UNL     1      -0.786   3.646  -2.216  1.00  0.00     0.170 HD
BRANCH  15  17
ATOM     17  C   UNL     1       0.106   1.842  -1.758  1.00  0.00     0.041 A 
ATOM     18  C   UNL     1       0.290   0.777  -0.876  1.00  0.00     0.028 A 
ATOM     19  C   UNL     1       0.830   1.807  -2.955  1.00  0.00     0.028 A 
ATOM     20  C   UNL     1       1.171  -0.277  -1.168  1.00  0.00     0.028 A 
ATOM     21  C   UNL     1       1.711   0.755  -3.244  1.00  0.00     0.028 A 
ATOM     22  C   UNL     1       1.922  -0.294  -2.342  1.00  0.00     0.034 A 
BRANCH  22  23
ATOM     23  N   UNL     1       2.763  -1.338  -2.726  1.00  0.00    -0.382 N 
ATOM     24  H   UNL     1       3.477  -1.026  -3.378  1.00  0.00     0.160 HD
BRANCH  23  25
ATOM     25  C   UNL     1       3.201  -2.379  -1.786  1.00  0.00     0.083 C 
ATOM     26  C   UNL     1       2.174  -3.521  -1.772  1.00  0.00     0.053 C 
ATOM     27  C   UNL     1       4.594  -2.895  -2.189  1.00  0.00     0.053 C 
ATOM     28  C   UNL     1       2.841  -4.832  -1.395  1.00  0.00     0.162 C 
ATOM     29  C   UNL     1       4.479  -4.157  -3.027  1.00  0.00     0.162 C 
ATOM     30  O   UNL     1       3.864  -5.227  -2.308  1.00  0.00    -0.381 OA
ENDBRANCH  23  25
ENDBRANCH  22  23
ENDBRANCH  15  17
ENDBRANCH   5  15
TORSDOF 6
