REMARK SMILES C[NH+](Cc1cccnc1)CC1CCCN(c2ncnc3nc[nH]c23)C1
REMARK SMILES IDX 10 1 2 2 1 3 3 5 4 6 5 7 9 8 6 9 8 10 7 11 11 12 12 13 25 14
REMARK SMILES IDX 13 15 15 16 14 17 16 18 17 19 24 20 18 21 23 22 20 23 19 24
REMARK SMILES IDX 22 25 21 26
REMARK H PARENT 2 4 23 27
ROOT
ATOM      1  C   UNL     1      -0.552  -0.230   1.988  1.00  0.00     0.267 C 
ENDROOT
BRANCH   1   2
ATOM      2  N   UNL     1       0.157  -1.535   1.671  1.00  0.00    -0.333 N 
ATOM      3  C   UNL     1       1.476  -1.611   2.393  1.00  0.00     0.333 C 
ATOM      4  H   UNL     1       0.416  -1.539   0.680  1.00  0.00     0.348 HD
BRANCH   2   5
ATOM      5  C   UNL     1      -0.675  -2.778   1.924  1.00  0.00     0.300 C 
BRANCH   5   6
ATOM      6  C   UNL     1      -1.779  -2.987   0.938  1.00  0.00     0.024 A 
ATOM      7  C   UNL     1      -3.121  -2.756   1.263  1.00  0.00     0.013 A 
ATOM      8  C   UNL     1      -1.503  -3.422  -0.354  1.00  0.00     0.120 A 
ATOM      9  C   UNL     1      -4.111  -2.953   0.301  1.00  0.00     0.021 A 
ATOM     10  N   UNL     1      -2.442  -3.606  -1.304  1.00  0.00    -0.264 NA
ATOM     11  C   UNL     1      -3.727  -3.380  -0.959  1.00  0.00     0.111 A 
ENDBRANCH   5   6
ENDBRANCH   2   5
ENDBRANCH   1   2
BRANCH   1  12
ATOM     12  C   UNL     1      -1.283   0.419   0.792  1.00  0.00     0.064 C 
ATOM     13  C   UNL     1      -1.964   1.729   1.269  1.00  0.00     0.013 C 
ATOM     14  C   UNL     1      -0.348   0.715  -0.387  1.00  0.00     0.127 C 
ATOM     15  C   UNL     1      -1.453   2.981   0.552  1.00  0.00     0.022 C 
ATOM     16  N   UNL     1       0.635   1.705   0.066  1.00  0.00    -0.354 N 
ATOM     17  C   UNL     1       0.074   3.021   0.433  1.00  0.00     0.118 C 
BRANCH  16  18
ATOM     18  C   UNL     1       1.804   1.747  -0.708  1.00  0.00     0.158 A 
ATOM     19  N   UNL     1       1.969   0.866  -1.730  1.00  0.00    -0.217 NA
ATOM     20  C   UNL     1       2.891   2.584  -0.471  1.00  0.00     0.128 A 
ATOM     21  C   UNL     1       3.094   0.907  -2.477  1.00  0.00     0.226 A 
ATOM     22  N   UNL     1       3.214   3.510   0.485  1.00  0.00    -0.340 N 
ATOM     23  C   UNL     1       4.006   2.549  -1.296  1.00  0.00     0.182 A 
ATOM     24  N   UNL     1       4.139   1.714  -2.335  1.00  0.00    -0.215 NA
ATOM     25  C   UNL     1       4.451   4.012   0.189  1.00  0.00     0.199 A 
ATOM     26  N   UNL     1       4.957   3.446  -0.884  1.00  0.00    -0.217 NA
ATOM     27  H   UNL     1       2.655   3.769   1.286  1.00  0.00     0.168 HD
ENDBRANCH  16  18
ENDBRANCH   1  12
TORSDOF 5
