REMARK SMILES O=C1Cc2cc(NC(=O)c3ccccc3OCC3CC3)ccc2N1
REMARK SMILES IDX 10 1 11 2 12 3 13 4 14 5 15 6 8 7 7 8 9 10 6 11 2 12 3 13
REMARK SMILES IDX 24 14 4 15 23 16 5 17 22 18 21 19 1 20 16 22 17 23 18 24
REMARK SMILES IDX 19 25 20 26
REMARK H PARENT 7 9 24 21
ROOT
ATOM      1  C   UNL     1       0.628   2.712  -1.467  1.00  0.00     0.082 A 
ATOM      2  C   UNL     1       0.930   3.923  -2.113  1.00  0.00     0.018 A 
ATOM      3  C   UNL     1       2.107   4.617  -1.828  1.00  0.00     0.001 A 
ATOM      4  C   UNL     1       3.004   4.107  -0.895  1.00  0.00     0.004 A 
ATOM      5  C   UNL     1       2.720   2.910  -0.238  1.00  0.00     0.047 A 
ATOM      6  C   UNL     1       1.528   2.222  -0.502  1.00  0.00     0.132 A 
ENDROOT
BRANCH   1   7
ATOM      7  C   UNL     1      -0.664   2.040  -1.844  1.00  0.00     0.259 C 
ATOM      8  N   UNL     1      -0.815   0.733  -1.425  1.00  0.00    -0.322 N 
ATOM      9  H   UNL     1      -0.033   0.346  -0.904  1.00  0.00     0.170 HD
ATOM     10  O   UNL     1      -1.483   2.680  -2.496  1.00  0.00    -0.269 OA
BRANCH   8  11
ATOM     11  C   UNL     1      -1.916  -0.125  -1.610  1.00  0.00     0.041 A 
ATOM     12  C   UNL     1      -4.422  -4.064  -1.251  1.00  0.00     0.228 C 
ATOM     13  C   UNL     1      -3.018  -3.708  -0.747  1.00  0.00     0.138 C 
ATOM     14  N   UNL     1      -4.925  -2.948  -1.910  1.00  0.00    -0.326 N 
ATOM     15  C   UNL     1      -2.864  -2.293  -1.217  1.00  0.00    -0.013 A 
ATOM     16  C   UNL     1      -4.016  -1.904  -1.893  1.00  0.00     0.045 A 
ATOM     17  C   UNL     1      -1.804  -1.416  -1.066  1.00  0.00     0.032 A 
ATOM     18  C   UNL     1      -4.161  -0.649  -2.438  1.00  0.00     0.028 A 
ATOM     19  C   UNL     1      -3.093   0.246  -2.291  1.00  0.00     0.028 A 
ATOM     20  O   UNL     1      -4.999  -5.128  -1.104  1.00  0.00    -0.274 OA
ATOM     21  H   UNL     1      -5.840  -2.928  -2.334  1.00  0.00     0.169 HD
ENDBRANCH   8  11
ENDBRANCH   1   7
BRANCH   6  22
ATOM     22  O   UNL     1       1.264   1.033   0.132  1.00  0.00    -0.492 OA
BRANCH  22  23
ATOM     23  C   UNL     1       1.323   1.130   1.561  1.00  0.00     0.233 C 
BRANCH  23  24
ATOM     24  C   UNL     1       0.473   0.031   2.124  1.00  0.00     0.027 C 
ATOM     25  C   UNL     1       0.800  -0.581   3.462  1.00  0.00     0.007 C 
ATOM     26  C   UNL     1       0.995  -1.381   2.202  1.00  0.00     0.007 C 
ENDBRANCH  23  24
ENDBRANCH  22  23
ENDBRANCH   6  22
TORSDOF 5
