REMARK SMILES c1ccc(-c2c[nH]c(C3CCCN(c4ncnc5[nH]ccc45)C3)n2)cc1
REMARK SMILES IDX 9 1 10 2 11 3 12 4 13 5 23 6 8 7 5 8 6 9 24 10 7 11 4 13
REMARK SMILES IDX 1 14 2 15 26 16 3 17 25 18 14 19 15 20 22 21 16 22 21 23
REMARK SMILES IDX 18 24 17 25 20 26 19 27
REMARK H PARENT 7 12 19 28
ROOT
ATOM      1  C   UNL     1      -1.874  -0.543  -0.433  1.00  0.00     0.075 C 
ATOM      2  C   UNL     1      -2.394   0.739   0.243  1.00  0.00     0.015 C 
ATOM      3  C   UNL     1      -1.538   1.155   1.439  1.00  0.00     0.022 C 
ATOM      4  C   UNL     1      -1.335   0.010   2.435  1.00  0.00     0.118 C 
ATOM      5  N   UNL     1      -0.861  -1.171   1.727  1.00  0.00    -0.355 N 
ATOM      6  C   UNL     1      -1.698  -1.652   0.619  1.00  0.00     0.129 C 
ENDROOT
BRANCH   1   7
ATOM      7  C   UNL     1      -0.621  -0.274  -1.228  1.00  0.00     0.111 A 
ATOM      8  C   UNL     1       0.790   0.366  -2.723  1.00  0.00     0.088 A 
ATOM      9  C   UNL     1       1.542  -0.242  -1.741  1.00  0.00     0.113 A 
ATOM     10  N   UNL     1      -0.551   0.340  -2.393  1.00  0.00    -0.233 NA
ATOM     11  N   UNL     1       0.640  -0.632  -0.794  1.00  0.00    -0.348 N 
ATOM     12  H   UNL     1       0.838  -1.141   0.067  1.00  0.00     0.167 HD
BRANCH   8  13
ATOM     13  C   UNL     1       1.299   0.975  -3.940  1.00  0.00     0.002 A 
ATOM     14  C   UNL     1       2.237   2.174  -6.298  1.00  0.00     0.000 A 
ATOM     15  C   UNL     1       1.033   2.598  -5.733  1.00  0.00     0.001 A 
ATOM     16  C   UNL     1       2.972   1.155  -5.695  1.00  0.00     0.001 A 
ATOM     17  C   UNL     1       0.566   2.000  -4.563  1.00  0.00     0.010 A 
ATOM     18  C   UNL     1       2.508   0.557  -4.519  1.00  0.00     0.010 A 
ENDBRANCH   8  13
ENDBRANCH   1   7
BRANCH   5  19
ATOM     19  C   UNL     1       0.017  -2.077   2.309  1.00  0.00     0.141 A 
ATOM     20  N   UNL     1       0.768  -2.821   1.447  1.00  0.00    -0.219 NA
ATOM     21  C   UNL     1       0.291  -2.225   3.688  1.00  0.00     0.061 A 
ATOM     22  C   UNL     1       1.742  -3.617   1.932  1.00  0.00     0.226 A 
ATOM     23  C   UNL     1      -0.236  -1.737   4.922  1.00  0.00     0.033 A 
ATOM     24  C   UNL     1       1.342  -3.066   4.035  1.00  0.00     0.142 A 
ATOM     25  N   UNL     1       2.113  -3.784   3.210  1.00  0.00    -0.218 NA
ATOM     26  C   UNL     1       0.528  -2.256   5.956  1.00  0.00     0.085 A 
ATOM     27  N   UNL     1       1.486  -3.053   5.394  1.00  0.00    -0.346 N 
ATOM     28  H   UNL     1       2.203  -3.572   5.890  1.00  0.00     0.167 HD
ENDBRANCH   5  19
TORSDOF 3
