REMARK SMILES O=C(COCC1CCCO1)Nc1ccc2nc[nH]c(=O)c2c1
REMARK SMILES IDX 3 1 2 2 11 3 1 4 12 6 13 7 22 8 14 9 21 10 15 11 19 12 16 13
REMARK SMILES IDX 18 14 17 15 20 16 4 18 5 19 6 20 7 21 10 22 8 23 9 24
REMARK H PARENT 11 5 18 17
ROOT
ATOM      1  C   UNL     1       0.651   0.214   1.681  1.00  0.00     0.260 C 
ENDROOT
BRANCH   1   2
ATOM      2  C   UNL     1      -0.522   0.951   1.023  1.00  0.00     0.250 C 
ATOM      3  N   UNL     1      -1.034   0.253  -0.055  1.00  0.00    -0.324 N 
ATOM      4  O   UNL     1      -0.901   2.039   1.447  1.00  0.00    -0.272 OA
ATOM      5  H   UNL     1      -0.563  -0.635  -0.224  1.00  0.00     0.170 HD
BRANCH   3   6
ATOM      6  C   UNL     1      -2.094   0.609  -0.904  1.00  0.00     0.042 A 
ATOM      7  C   UNL     1      -2.824   1.795  -0.783  1.00  0.00     0.028 A 
ATOM      8  C   UNL     1      -2.422  -0.287  -1.925  1.00  0.00     0.042 A 
ATOM      9  C   UNL     1      -3.871   2.083  -1.670  1.00  0.00     0.031 A 
ATOM     10  C   UNL     1      -3.470   0.013  -2.804  1.00  0.00     0.067 A 
ATOM     11  C   UNL     1      -4.205   1.195  -2.690  1.00  0.00     0.078 A 
ATOM     12  C   UNL     1      -3.840  -0.913  -3.888  1.00  0.00     0.258 C 
ATOM     13  N   UNL     1      -5.261   1.517  -3.561  1.00  0.00    -0.238 NA
ATOM     14  N   UNL     1      -4.880  -0.507  -4.683  1.00  0.00    -0.313 N 
ATOM     15  C   UNL     1      -5.540   0.672  -4.493  1.00  0.00     0.200 C 
ATOM     16  O   UNL     1      -3.259  -1.977  -4.067  1.00  0.00    -0.269 OA
ATOM     17  H   UNL     1      -5.143  -1.133  -5.431  1.00  0.00     0.171 HD
ENDBRANCH   3   6
ENDBRANCH   1   2
BRANCH   1  18
ATOM     18  O   UNL     1       0.806  -1.097   1.148  1.00  0.00    -0.369 OA
BRANCH  18  19
ATOM     19  C   UNL     1       1.632  -1.968   1.925  1.00  0.00     0.192 C 
BRANCH  19  20
ATOM     20  C   UNL     1       3.137  -1.658   1.920  1.00  0.00     0.144 C 
ATOM     21  C   UNL     1       3.619  -0.646   2.948  1.00  0.00     0.037 C 
ATOM     22  O   UNL     1       3.585  -1.190   0.636  1.00  0.00    -0.376 OA
ATOM     23  C   UNL     1       4.903  -0.165   2.317  1.00  0.00     0.031 C 
ATOM     24  C   UNL     1       4.550  -0.150   0.844  1.00  0.00     0.160 C 
ENDBRANCH  19  20
ENDBRANCH  18  19
ENDBRANCH   1  18
TORSDOF 5
