REMARK SMILES Clc1ccc(-c2noc(CNc3ncnc4nc[nH]c34)n2)cc1
REMARK SMILES IDX 10 1 9 2 6 3 7 4 21 5 8 6 5 7 2 8 3 9 23 10 4 11 22 12 1 13
REMARK SMILES IDX 11 14 12 16 13 17 20 18 14 19 19 20 16 21 15 22 18 23 17 24
REMARK H PARENT 11 15 19 25
ROOT
ATOM      1  C   UNL     1      -1.828  -1.338  -0.778  1.00  0.00     0.215 C 
ENDROOT
BRANCH   1   2
ATOM      2  C   UNL     1      -0.880  -0.516   0.033  1.00  0.00     0.246 A 
ATOM      3  C   UNL     1       0.359   0.909   0.958  1.00  0.00     0.202 A 
ATOM      4  N   UNL     1       0.517  -0.192   1.713  1.00  0.00    -0.057 NA
ATOM      5  N   UNL     1      -0.524   0.743  -0.088  1.00  0.00    -0.190 NA
ATOM      6  O   UNL     1      -0.302  -1.136   1.102  1.00  0.00    -0.337 OA
BRANCH   3   7
ATOM      7  C   UNL     1       1.038   2.176   1.210  1.00  0.00     0.023 A 
ATOM      8  C   UNL     1       2.332   4.624   1.676  1.00  0.00     0.041 A 
ATOM      9  C   UNL     1       2.562   3.546   2.527  1.00  0.00     0.021 A 
ATOM     10  C   UNL     1       1.464   4.495   0.595  1.00  0.00     0.021 A 
ATOM     11  C   UNL     1       1.918   2.326   2.295  1.00  0.00     0.014 A 
ATOM     12  C   UNL     1       0.820   3.275   0.363  1.00  0.00     0.014 A 
ATOM     13  Cl  UNL     1       3.124   6.124   1.963  1.00  0.00    -0.084 Cl
ENDBRANCH   3   7
ENDBRANCH   1   2
BRANCH   1  14
ATOM     14  N   UNL     1      -1.425  -2.718  -1.088  1.00  0.00    -0.359 N 
ATOM     15  H   UNL     1      -1.235  -3.267  -0.258  1.00  0.00     0.162 HD
BRANCH  14  16
ATOM     16  C   UNL     1      -0.409  -2.836  -2.035  1.00  0.00     0.156 A 
ATOM     17  N   UNL     1      -0.087  -1.812  -2.852  1.00  0.00    -0.217 NA
ATOM     18  C   UNL     1       0.315  -4.003  -2.207  1.00  0.00     0.128 A 
ATOM     19  C   UNL     1       0.913  -1.974  -3.746  1.00  0.00     0.226 A 
ATOM     20  N   UNL     1       0.283  -5.248  -1.640  1.00  0.00    -0.340 N 
ATOM     21  C   UNL     1       1.323  -4.080  -3.151  1.00  0.00     0.182 A 
ATOM     22  N   UNL     1       1.665  -3.059  -3.954  1.00  0.00    -0.215 NA
ATOM     23  C   UNL     1       1.258  -6.001  -2.235  1.00  0.00     0.199 A 
ATOM     24  N   UNL     1       1.907  -5.319  -3.152  1.00  0.00    -0.217 NA
ATOM     25  H   UNL     1      -0.360  -5.564  -0.929  1.00  0.00     0.168 HD
ENDBRANCH  14  16
ENDBRANCH   1  14
TORSDOF 4
