REMARK SMILES O=C(NCc1cccc(-c2nnc[nH]2)c1)c1ccccc1OCC1CC1
REMARK SMILES IDX 1 1 2 2 3 3 16 5 17 6 21 7 18 8 20 9 19 10 22 11 23 12 24 13
REMARK SMILES IDX 25 14 26 15 4 16 5 17 6 18 15 19 7 20 9 21 8 22 10 23 11 24
REMARK SMILES IDX 14 25 12 26 13 27
REMARK H PARENT 3 4 14 28
ROOT
ATOM      1  O   UNL     1       3.037   1.284  -1.791  1.00  0.00    -0.269 OA
ATOM      2  C   UNL     1       1.949   0.713  -1.804  1.00  0.00     0.255 C 
ATOM      3  N   UNL     1       1.436   0.099  -0.687  1.00  0.00    -0.348 N 
ATOM      4  H   UNL     1       0.611  -0.481  -0.805  1.00  0.00     0.164 HD
ENDROOT
BRANCH   2   5
ATOM      5  C   UNL     1       1.125   0.679  -3.060  1.00  0.00     0.081 A 
ATOM      6  C   UNL     1       1.600   1.460  -4.131  1.00  0.00     0.018 A 
ATOM      7  C   UNL     1      -0.063  -0.065  -3.224  1.00  0.00     0.132 A 
ATOM      8  C   UNL     1       0.914   1.510  -5.343  1.00  0.00     0.001 A 
ATOM      9  C   UNL     1      -0.741  -0.007  -4.451  1.00  0.00     0.047 A 
ATOM     10  C   UNL     1      -0.256   0.778  -5.501  1.00  0.00     0.004 A 
BRANCH   7  11
ATOM     11  O   UNL     1      -0.485  -0.834  -2.169  1.00  0.00    -0.492 OA
BRANCH  11  12
ATOM     12  C   UNL     1      -1.763  -1.462  -2.255  1.00  0.00     0.233 C 
BRANCH  12  13
ATOM     13  C   UNL     1      -2.017  -2.150  -0.948  1.00  0.00     0.027 C 
ATOM     14  C   UNL     1      -3.424  -2.353  -0.449  1.00  0.00     0.007 C 
ATOM     15  C   UNL     1      -2.517  -1.373   0.243  1.00  0.00     0.007 C 
ENDBRANCH  12  13
ENDBRANCH  11  12
ENDBRANCH   7  11
ENDBRANCH   2   5
BRANCH   3  16
ATOM     16  C   UNL     1       2.219  -0.065   0.513  1.00  0.00     0.152 C 
BRANCH  16  17
ATOM     17  C   UNL     1       1.332  -0.406   1.681  1.00  0.00    -0.028 A 
ATOM     18  C   UNL     1       1.346  -1.687   2.243  1.00  0.00     0.005 A 
ATOM     19  C   UNL     1       0.454   0.562   2.202  1.00  0.00     0.017 A 
ATOM     20  C   UNL     1       0.504  -1.994   3.310  1.00  0.00     0.001 A 
ATOM     21  C   UNL     1      -0.399   0.267   3.276  1.00  0.00     0.019 A 
ATOM     22  C   UNL     1      -0.361  -1.024   3.820  1.00  0.00     0.012 A 
BRANCH  21  23
ATOM     23  C   UNL     1      -1.329   1.251   3.831  1.00  0.00     0.161 A 
ATOM     24  N   UNL     1      -2.308   1.022   4.689  1.00  0.00    -0.131 NA
ATOM     25  N   UNL     1      -1.324   2.597   3.556  1.00  0.00    -0.328 N 
ATOM     26  N   UNL     1      -2.944   2.210   4.963  1.00  0.00    -0.139 NA
ATOM     27  C   UNL     1      -2.338   3.147   4.277  1.00  0.00     0.223 A 
ATOM     28  H   UNL     1      -0.683   3.085   2.951  1.00  0.00     0.169 HD
ENDBRANCH  21  23
ENDBRANCH  16  17
ENDBRANCH   3  16
TORSDOF 7
