REMARK SMILES Cc1oc2nc[nH]c(=O)c2c1C(=O)NCc1ccccc1OC1CCC1
REMARK SMILES IDX 15 1 14 2 12 3 13 4 11 6 2 7 3 8 4 9 10 10 5 11 8 12 6 13
REMARK SMILES IDX 7 14 1 15 9 16 16 18 17 19 21 20 18 21 20 22 19 23 22 24
REMARK SMILES IDX 23 25 24 26 26 27 25 28
REMARK H PARENT 14 5 7 17
ROOT
ATOM      1  C   UNL     1      -1.146  -0.641  -0.525  1.00  0.00     0.156 C 
ENDROOT
BRANCH   1   2
ATOM      2  N   UNL     1      -0.725   0.310   0.477  1.00  0.00    -0.348 N 
ATOM      3  C   UNL     1      -0.388  -0.098   1.743  1.00  0.00     0.256 C 
ATOM      4  O   UNL     1      -0.362  -1.285   2.057  1.00  0.00    -0.269 OA
ATOM      5  H   UNL     1      -0.882   1.296   0.285  1.00  0.00     0.164 HD
BRANCH   3   6
ATOM      6  C   UNL     1      -0.052   0.954   2.696  1.00  0.00     0.096 A 
ATOM      7  C   UNL     1       0.518   0.713   3.941  1.00  0.00     0.117 A 
ATOM      8  O   UNL     1       0.739   1.876   4.613  1.00  0.00    -0.442 OA
ATOM      9  C   UNL     1       0.309   2.893   3.824  1.00  0.00     0.234 A 
ATOM     10  C   UNL     1      -0.186   2.373   2.644  1.00  0.00     0.118 A 
ATOM     11  N   UNL     1       0.376   4.197   4.187  1.00  0.00    -0.203 NA
ATOM     12  C   UNL     1      -0.703   3.307   1.681  1.00  0.00     0.262 C 
ATOM     13  C   UNL     1      -0.085   5.005   3.290  1.00  0.00     0.203 C 
ATOM     14  N   UNL     1      -0.599   4.622   2.072  1.00  0.00    -0.312 N 
ATOM     15  C   UNL     1       0.927  -0.522   4.650  1.00  0.00     0.088 C 
ATOM     16  O   UNL     1      -1.202   2.982   0.608  1.00  0.00    -0.269 OA
ATOM     17  H   UNL     1      -0.957   5.309   1.427  1.00  0.00     0.171 HD
ENDBRANCH   3   6
ENDBRANCH   1   2
BRANCH   1  18
ATOM     18  C   UNL     1      -1.202  -0.021  -1.896  1.00  0.00     0.013 A 
ATOM     19  C   UNL     1      -2.157   0.970  -2.177  1.00  0.00     0.009 A 
ATOM     20  C   UNL     1      -0.316  -0.393  -2.916  1.00  0.00     0.124 A 
ATOM     21  C   UNL     1      -2.207   1.581  -3.433  1.00  0.00     0.001 A 
ATOM     22  C   UNL     1      -0.349   0.230  -4.165  1.00  0.00     0.047 A 
ATOM     23  C   UNL     1      -1.299   1.215  -4.425  1.00  0.00     0.004 A 
BRANCH  20  24
ATOM     24  O   UNL     1       0.633  -1.356  -2.683  1.00  0.00    -0.490 OA
BRANCH  24  25
ATOM     25  C   UNL     1       0.286  -2.673  -3.184  1.00  0.00     0.173 C 
ATOM     26  C   UNL     1       0.918  -3.080  -4.538  1.00  0.00     0.045 C 
ATOM     27  C   UNL     1       1.083  -3.842  -2.552  1.00  0.00     0.045 C 
ATOM     28  C   UNL     1       2.051  -3.755  -3.744  1.00  0.00     0.008 C 
ENDBRANCH  24  25
ENDBRANCH  20  24
ENDBRANCH   1  18
TORSDOF 5
