REMARK SMILES O=C(Nc1nc2ccccc2c(=O)[nH]1)C1CCCN(C(=O)COc2ccccc2)C1
REMARK SMILES IDX 20 1 21 2 19 3 15 4 16 5 30 6 17 7 18 8 2 9 3 10 4 11 5 12
REMARK SMILES IDX 14 13 6 14 12 15 7 16 11 17 8 18 10 19 9 20 1 21 13 24 22 25
REMARK SMILES IDX 23 26 24 27 25 28 29 29 26 30 28 31 27 32
REMARK H PARENT 3 22 14 23
ROOT
ATOM      1  C   UNL     1       1.942  -2.281   0.588  1.00  0.00     0.260 C 
ATOM      2  O   UNL     1       3.085  -2.080   0.178  1.00  0.00    -0.271 OA
ENDROOT
BRANCH   1   3
ATOM      3  N   UNL     1       1.470  -1.656   1.759  1.00  0.00    -0.339 N 
ATOM      4  C   UNL     1       1.803   0.224   3.370  1.00  0.00     0.098 C 
ATOM      5  C   UNL     1       0.644  -0.328   4.206  1.00  0.00     0.017 C 
ATOM      6  C   UNL     1       2.453  -0.861   2.511  1.00  0.00     0.133 C 
ATOM      7  C   UNL     1      -0.332  -1.174   3.391  1.00  0.00     0.022 C 
ATOM      8  C   UNL     1       0.382  -2.231   2.555  1.00  0.00     0.119 C 
BRANCH   4   9
ATOM      9  C   UNL     1       1.375   1.440   2.550  1.00  0.00     0.231 C 
ATOM     10  N   UNL     1       0.722   1.154   1.367  1.00  0.00    -0.296 N 
ATOM     11  C   UNL     1       0.148   2.017   0.488  1.00  0.00     0.210 C 
ATOM     12  N   UNL     1      -0.432   1.501  -0.543  1.00  0.00    -0.214 NA
ATOM     13  N   UNL     1       0.206   3.345   0.747  1.00  0.00    -0.292 N 
ATOM     14  C   UNL     1      -1.042   2.386  -1.450  1.00  0.00     0.080 A 
ATOM     15  C   UNL     1      -0.339   4.295  -0.077  1.00  0.00     0.260 C 
ATOM     16  C   UNL     1      -1.694   1.864  -2.569  1.00  0.00     0.029 A 
ATOM     17  C   UNL     1      -1.024   3.773  -1.273  1.00  0.00     0.066 A 
ATOM     18  C   UNL     1      -2.308   2.714  -3.495  1.00  0.00     0.002 A 
ATOM     19  C   UNL     1      -1.635   4.632  -2.191  1.00  0.00     0.016 A 
ATOM     20  C   UNL     1      -2.278   4.096  -3.306  1.00  0.00     0.001 A 
ATOM     21  O   UNL     1       1.541   2.587   2.963  1.00  0.00    -0.274 OA
ATOM     22  H   UNL     1       0.657   0.186   1.077  1.00  0.00     0.173 HD
ATOM     23  H   UNL     1       0.690   3.666   1.580  1.00  0.00     0.173 HD
ATOM     24  O   UNL     1      -0.270   5.496   0.156  1.00  0.00    -0.269 OA
ENDBRANCH   4   9
ENDBRANCH   1   3
BRANCH   1  25
ATOM     25  C   UNL     1       0.943  -3.168  -0.179  1.00  0.00     0.329 C 
BRANCH  25  26
ATOM     26  O   UNL     1       1.385  -3.675  -1.429  1.00  0.00    -0.484 OA
BRANCH  26  27
ATOM     27  C   UNL     1       1.325  -2.851  -2.518  1.00  0.00     0.120 A 
ATOM     28  C   UNL     1       1.580  -3.486  -3.738  1.00  0.00     0.046 A 
ATOM     29  C   UNL     1       1.061  -1.482  -2.508  1.00  0.00     0.046 A 
ATOM     30  C   UNL     1       1.563  -2.767  -4.934  1.00  0.00     0.004 A 
ATOM     31  C   UNL     1       1.051  -0.759  -3.705  1.00  0.00     0.004 A 
ATOM     32  C   UNL     1       1.298  -1.400  -4.917  1.00  0.00     0.000 A 
ENDBRANCH  26  27
ENDBRANCH  25  26
ENDBRANCH   1  25
TORSDOF 5
