REMARK SMILES CC(NC(=O)c1ccccc1OCC1CC1)c1nc(C(C)(C)C)no1
REMARK SMILES IDX 3 1 4 2 5 3 2 5 1 6 17 7 18 8 25 9 19 10 24 11 20 12 21 13
REMARK SMILES IDX 22 14 23 15 6 16 7 17 11 18 8 19 10 20 9 21 12 22 13 23
REMARK SMILES IDX 14 24 15 25 16 26
REMARK H PARENT 3 4
ROOT
ATOM      1  N   UNL     1       0.358  -0.891  -2.052  1.00  0.00    -0.340 N 
ATOM      2  C   UNL     1       0.305  -0.358  -3.317  1.00  0.00     0.255 C 
ATOM      3  O   UNL     1       0.398  -1.052  -4.326  1.00  0.00    -0.269 OA
ATOM      4  H   UNL     1       0.342  -0.268  -1.247  1.00  0.00     0.164 HD
ENDROOT
BRANCH   1   5
ATOM      5  C   UNL     1       0.502  -2.320  -1.813  1.00  0.00     0.169 C 
ATOM      6  C   UNL     1      -0.804  -3.063  -2.098  1.00  0.00     0.041 C 
BRANCH   5   7
ATOM      7  C   UNL     1       0.907  -2.526  -0.391  1.00  0.00     0.248 A 
ATOM      8  N   UNL     1       0.599  -1.827   0.686  1.00  0.00    -0.194 NA
ATOM      9  O   UNL     1       1.704  -3.602  -0.130  1.00  0.00    -0.337 OA
ATOM     10  C   UNL     1       1.249  -2.525   1.677  1.00  0.00     0.177 A 
ATOM     11  N   UNL     1       1.929  -3.601   1.246  1.00  0.00    -0.062 NA
BRANCH  10  12
ATOM     12  C   UNL     1       1.186  -2.137   3.133  1.00  0.00     0.025 C 
ATOM     13  C   UNL     1       0.511  -3.261   3.947  1.00  0.00     0.019 C 
ATOM     14  C   UNL     1       0.368  -0.844   3.330  1.00  0.00     0.019 C 
ATOM     15  C   UNL     1       2.606  -1.897   3.687  1.00  0.00     0.019 C 
ENDBRANCH  10  12
ENDBRANCH   5   7
ENDBRANCH   1   5
BRANCH   2  16
ATOM     16  C   UNL     1       0.142   1.123  -3.432  1.00  0.00     0.081 A 
ATOM     17  C   UNL     1       0.379   1.698  -4.692  1.00  0.00     0.018 A 
ATOM     18  C   UNL     1      -0.236   1.963  -2.375  1.00  0.00     0.132 A 
ATOM     19  C   UNL     1       0.273   3.079  -4.883  1.00  0.00     0.001 A 
ATOM     20  C   UNL     1      -0.314   3.349  -2.560  1.00  0.00     0.047 A 
ATOM     21  C   UNL     1      -0.066   3.905  -3.814  1.00  0.00     0.004 A 
BRANCH  18  22
ATOM     22  O   UNL     1      -0.478   1.485  -1.113  1.00  0.00    -0.492 OA
BRANCH  22  23
ATOM     23  C   UNL     1      -1.884   1.303  -0.894  1.00  0.00     0.233 C 
BRANCH  23  24
ATOM     24  C   UNL     1      -2.099   1.203   0.586  1.00  0.00     0.027 C 
ATOM     25  C   UNL     1      -2.272   2.460   1.408  1.00  0.00     0.007 C 
ATOM     26  C   UNL     1      -3.436   1.524   1.202  1.00  0.00     0.007 C 
ENDBRANCH  23  24
ENDBRANCH  22  23
ENDBRANCH  18  22
ENDBRANCH   2  16
TORSDOF 7
