REMARK SMILES C[NH+]1C2CCCC1CC(NC(=O)c1ccccc1OCC1CC1)C2
REMARK SMILES IDX 13 1 14 2 15 3 16 4 17 5 18 6 11 7 10 8 12 10 9 11 2 12 3 13
REMARK SMILES IDX 7 14 4 15 24 16 6 17 8 18 5 19 1 20 19 22 20 23 21 24 22 25
REMARK SMILES IDX 23 26
REMARK H PARENT 10 9 2 21
ROOT
ATOM      1  C   UNL     1      -1.581   1.839  -2.529  1.00  0.00     0.081 A 
ATOM      2  C   UNL     1      -1.646   2.142  -3.903  1.00  0.00     0.018 A 
ATOM      3  C   UNL     1      -2.859   2.454  -4.512  1.00  0.00     0.001 A 
ATOM      4  C   UNL     1      -4.022   2.472  -3.754  1.00  0.00     0.004 A 
ATOM      5  C   UNL     1      -3.977   2.171  -2.389  1.00  0.00     0.047 A 
ATOM      6  C   UNL     1      -2.767   1.840  -1.762  1.00  0.00     0.132 A 
ENDROOT
BRANCH   1   7
ATOM      7  C   UNL     1      -0.213   1.530  -1.995  1.00  0.00     0.255 C 
ATOM      8  N   UNL     1      -0.077   1.325  -0.636  1.00  0.00    -0.349 N 
ATOM      9  H   UNL     1      -0.927   1.379  -0.079  1.00  0.00     0.164 HD
ATOM     10  O   UNL     1       0.758   1.464  -2.744  1.00  0.00    -0.269 OA
BRANCH   8  11
ATOM     11  C   UNL     1       1.214   1.038  -0.031  1.00  0.00     0.094 C 
ATOM     12  N   UNL     1       2.558  -0.695   1.901  1.00  0.00    -0.332 N 
ATOM     13  C   UNL     1       2.882  -0.869   0.433  1.00  0.00     0.186 C 
ATOM     14  C   UNL     1       2.396   0.769   2.239  1.00  0.00     0.186 C 
ATOM     15  C   UNL     1       4.205  -0.168   0.103  1.00  0.00     0.065 C 
ATOM     16  C   UNL     1       1.669  -0.389  -0.367  1.00  0.00     0.090 C 
ATOM     17  C   UNL     1       3.704   1.518   1.963  1.00  0.00     0.065 C 
ATOM     18  C   UNL     1       1.171   1.292   1.478  1.00  0.00     0.090 C 
ATOM     19  C   UNL     1       4.324   1.274   0.590  1.00  0.00     0.012 C 
ATOM     20  C   UNL     1       3.465  -1.457   2.833  1.00  0.00     0.333 C 
ATOM     21  H   UNL     1       1.638  -1.135   2.046  1.00  0.00     0.348 HD
ENDBRANCH   8  11
ENDBRANCH   1   7
BRANCH   6  22
ATOM     22  O   UNL     1      -2.667   1.543  -0.425  1.00  0.00    -0.492 OA
BRANCH  22  23
ATOM     23  C   UNL     1      -3.840   1.159   0.303  1.00  0.00     0.233 C 
BRANCH  23  24
ATOM     24  C   UNL     1      -4.180  -0.275   0.032  1.00  0.00     0.027 C 
ATOM     25  C   UNL     1      -5.390  -0.892   0.688  1.00  0.00     0.007 C 
ATOM     26  C   UNL     1      -5.381  -0.659  -0.796  1.00  0.00     0.007 C 
ENDBRANCH  23  24
ENDBRANCH  22  23
ENDBRANCH   6  22
TORSDOF 5
