REMARK SMILES c1nc(Nc2ccc(OCc3noc(C4CC4)n3)cc2)c2cc[nH]c2n1
REMARK SMILES IDX 5 1 6 2 7 3 8 4 19 5 20 6 4 7 3 9 1 10 2 11 26 12 25 13
REMARK SMILES IDX 21 14 24 15 22 16 23 17 9 19 10 20 11 21 12 22 18 23 13 24
REMARK SMILES IDX 14 25 15 26 16 27 17 28
REMARK H PARENT 4 8 24 18
ROOT
ATOM      1  C   UNL     1      -1.354  -0.041  -0.315  1.00  0.00     0.040 A 
ATOM      2  C   UNL     1      -1.160  -1.060   0.615  1.00  0.00     0.030 A 
ATOM      3  C   UNL     1      -0.300  -0.888   1.705  1.00  0.00     0.048 A 
ATOM      4  C   UNL     1       0.386   0.311   1.898  1.00  0.00     0.120 A 
ATOM      5  C   UNL     1       0.212   1.335   0.976  1.00  0.00     0.048 A 
ATOM      6  C   UNL     1      -0.649   1.157  -0.114  1.00  0.00     0.030 A 
ENDROOT
BRANCH   1   7
ATOM      7  N   UNL     1      -2.203  -0.138  -1.426  1.00  0.00    -0.340 N 
ATOM      8  H   UNL     1      -2.221   0.689  -2.007  1.00  0.00     0.168 HD
BRANCH   7   9
ATOM      9  C   UNL     1      -3.053  -1.149  -1.898  1.00  0.00     0.143 A 
ATOM     10  C   UNL     1      -4.018  -3.271  -1.769  1.00  0.00     0.226 A 
ATOM     11  N   UNL     1      -3.181  -2.343  -1.266  1.00  0.00    -0.218 NA
ATOM     12  N   UNL     1      -4.790  -3.186  -2.864  1.00  0.00    -0.218 NA
ATOM     13  C   UNL     1      -4.641  -2.000  -3.465  1.00  0.00     0.142 A 
ATOM     14  C   UNL     1      -3.821  -0.956  -3.066  1.00  0.00     0.061 A 
ATOM     15  N   UNL     1      -5.300  -1.623  -4.601  1.00  0.00    -0.346 N 
ATOM     16  C   UNL     1      -4.007   0.086  -4.021  1.00  0.00     0.033 A 
ATOM     17  C   UNL     1      -4.923  -0.354  -4.954  1.00  0.00     0.085 A 
ATOM     18  H   UNL     1      -5.962  -2.211  -5.087  1.00  0.00     0.167 HD
ENDBRANCH   7   9
ENDBRANCH   1   7
BRANCH   4  19
ATOM     19  O   UNL     1       1.186   0.338   3.001  1.00  0.00    -0.485 OA
BRANCH  19  20
ATOM     20  C   UNL     1       1.772   1.587   3.397  1.00  0.00     0.310 C 
BRANCH  20  21
ATOM     21  C   UNL     1       3.107   1.841   2.782  1.00  0.00     0.209 A 
ATOM     22  N   UNL     1       4.254   1.434   3.346  1.00  0.00    -0.059 NA
ATOM     23  N   UNL     1       3.262   2.547   1.612  1.00  0.00    -0.192 NA
ATOM     24  O   UNL     1       5.225   1.877   2.447  1.00  0.00    -0.339 OA
ATOM     25  C   UNL     1       4.563   2.518   1.439  1.00  0.00     0.229 A 
BRANCH  25  26
ATOM     26  C   UNL     1       5.274   3.158   0.214  1.00  0.00     0.079 C 
ATOM     27  C   UNL     1       6.157   2.304  -0.653  1.00  0.00     0.014 C 
ATOM     28  C   UNL     1       4.833   2.772  -1.173  1.00  0.00     0.014 C 
ENDBRANCH  25  26
ENDBRANCH  20  21
ENDBRANCH  19  20
ENDBRANCH   4  19
TORSDOF 6
