REMARK SMILES CC(NC(=O)c1ccccc1OCC1CC1)c1nc(Cc2ccccc2)no1
REMARK SMILES IDX 3 1 4 2 5 3 2 5 1 6 17 7 18 8 28 9 19 10 27 11 20 12 21 13
REMARK SMILES IDX 22 14 26 15 23 16 25 17 24 18 6 19 7 20 11 21 8 22 10 23
REMARK SMILES IDX 9 24 12 25 13 26 14 27 15 28 16 29
REMARK H PARENT 3 4
ROOT
ATOM      1  N   UNL     1      -1.723   2.437  -1.589  1.00  0.00    -0.340 N 
ATOM      2  C   UNL     1      -0.969   2.230  -0.486  1.00  0.00     0.255 C 
ATOM      3  O   UNL     1      -0.343   0.975  -0.686  1.00  0.00    -0.269 OA
ATOM      4  H   UNL     1      -2.264   3.301  -1.723  1.00  0.00     0.164 HD
ENDROOT
BRANCH   1   5
ATOM      5  C   UNL     1      -1.803   1.457  -2.657  1.00  0.00     0.169 C 
ATOM      6  C   UNL     1      -0.907   1.683  -3.801  1.00  0.00     0.041 C 
BRANCH   5   7
ATOM      7  C   UNL     1      -1.763   0.027  -2.147  1.00  0.00     0.248 A 
ATOM      8  N   UNL     1      -2.416  -0.474  -1.100  1.00  0.00    -0.194 NA
ATOM      9  O   UNL     1      -1.080  -0.972  -2.655  1.00  0.00    -0.337 OA
ATOM     10  C   UNL     1      -2.138  -1.797  -0.957  1.00  0.00     0.176 A 
ATOM     11  N   UNL     1      -1.291  -2.073  -1.958  1.00  0.00    -0.062 NA
BRANCH  10  12
ATOM     12  C   UNL     1      -2.620  -2.745   0.079  1.00  0.00     0.116 C 
BRANCH  12  13
ATOM     13  C   UNL     1      -1.489  -3.302   0.865  1.00  0.00    -0.040 A 
ATOM     14  C   UNL     1      -0.883  -2.621   1.894  1.00  0.00     0.004 A 
ATOM     15  C   UNL     1      -1.088  -4.588   0.483  1.00  0.00     0.004 A 
ATOM     16  C   UNL     1       0.165  -3.242   2.573  1.00  0.00     0.000 A 
ATOM     17  C   UNL     1      -0.039  -5.210   1.163  1.00  0.00     0.000 A 
ATOM     18  C   UNL     1       0.537  -4.501   2.180  1.00  0.00     0.000 A 
ENDBRANCH  12  13
ENDBRANCH  10  12
ENDBRANCH   5   7
ENDBRANCH   1   5
BRANCH   2  19
ATOM     19  C   UNL     1      -0.538   2.665   0.718  1.00  0.00     0.081 A 
ATOM     20  C   UNL     1      -1.695   3.912   0.700  1.00  0.00     0.018 A 
ATOM     21  C   UNL     1      -0.124   3.083   1.877  1.00  0.00     0.132 A 
ATOM     22  C   UNL     1      -1.821   4.770   1.656  1.00  0.00     0.001 A 
ATOM     23  C   UNL     1      -0.146   3.880   2.907  1.00  0.00     0.047 A 
ATOM     24  C   UNL     1      -1.124   4.903   2.847  1.00  0.00     0.004 A 
BRANCH  21  25
ATOM     25  O   UNL     1       0.973   2.018   2.029  1.00  0.00    -0.492 OA
BRANCH  25  26
ATOM     26  C   UNL     1       1.705   2.044   3.137  1.00  0.00     0.233 C 
BRANCH  26  27
ATOM     27  C   UNL     1       2.804   0.983   3.172  1.00  0.00     0.027 C 
ATOM     28  C   UNL     1       3.831   1.137   2.037  1.00  0.00     0.007 C 
ATOM     29  C   UNL     1       2.900  -0.001   2.052  1.00  0.00     0.007 C 
ENDBRANCH  26  27
ENDBRANCH  25  26
ENDBRANCH  21  25
ENDBRANCH   2  19
TORSDOF 8
