REMARK SMILES CC(NC(=O)c1ccccc1OCC1CC1)c1nc(C2CCCCC2)no1
REMARK SMILES IDX 6 1 7 2 8 3 9 4 10 5 11 6 4 7 3 8 5 10 2 11 1 12 17 13 18 14
REMARK SMILES IDX 27 15 19 16 26 17 20 18 21 19 25 20 22 21 24 22 23 23 12 24
REMARK SMILES IDX 13 25 14 26 15 27 16 28
REMARK H PARENT 3 9
ROOT
ATOM      1  C   UNL     1       3.299   1.510  -2.868  1.00  0.00     0.081 A 
ATOM      2  C   UNL     1       3.995   2.233  -3.857  1.00  0.00     0.018 A 
ATOM      3  C   UNL     1       4.556   1.589  -4.958  1.00  0.00     0.001 A 
ATOM      4  C   UNL     1       4.427   0.212  -5.084  1.00  0.00     0.004 A 
ATOM      5  C   UNL     1       3.752  -0.522  -4.105  1.00  0.00     0.047 A 
ATOM      6  C   UNL     1       3.194   0.110  -2.980  1.00  0.00     0.132 A 
ENDROOT
BRANCH   1   7
ATOM      7  C   UNL     1       2.729   2.327  -1.752  1.00  0.00     0.255 C 
ATOM      8  N   UNL     1       1.711   1.782  -1.011  1.00  0.00    -0.340 N 
ATOM      9  H   UNL     1       1.445   0.813  -1.168  1.00  0.00     0.164 HD
ATOM     10  O   UNL     1       3.145   3.465  -1.545  1.00  0.00    -0.269 OA
BRANCH   8  11
ATOM     11  C   UNL     1       1.084   2.511   0.083  1.00  0.00     0.169 C 
ATOM     12  C   UNL     1       1.928   2.426   1.353  1.00  0.00     0.041 C 
BRANCH  11  13
ATOM     13  C   UNL     1      -0.283   1.963   0.320  1.00  0.00     0.248 A 
ATOM     14  N   UNL     1      -0.806   0.805  -0.024  1.00  0.00    -0.194 NA
ATOM     15  O   UNL     1      -1.151   2.762   1.009  1.00  0.00    -0.337 OA
ATOM     16  C   UNL     1      -2.073   0.896   0.492  1.00  0.00     0.175 A 
ATOM     17  N   UNL     1      -2.341   2.044   1.128  1.00  0.00    -0.062 NA
BRANCH  16  18
ATOM     18  C   UNL     1      -3.061  -0.217   0.359  1.00  0.00     0.061 C 
ATOM     19  C   UNL     1      -4.257   0.174  -0.531  1.00  0.00     0.012 C 
ATOM     20  C   UNL     1      -3.528  -0.744   1.721  1.00  0.00     0.012 C 
ATOM     21  C   UNL     1      -5.530  -0.623  -0.231  1.00  0.00     0.001 C 
ATOM     22  C   UNL     1      -4.412  -1.986   1.579  1.00  0.00     0.001 C 
ATOM     23  C   UNL     1      -5.218  -2.022   0.280  1.00  0.00     0.000 C 
ENDBRANCH  16  18
ENDBRANCH  11  13
ENDBRANCH   8  11
ENDBRANCH   1   7
BRANCH   6  24
ATOM     24  O   UNL     1       2.541  -0.578  -1.986  1.00  0.00    -0.492 OA
BRANCH  24  25
ATOM     25  C   UNL     1       2.797  -1.986  -1.906  1.00  0.00     0.233 C 
BRANCH  25  26
ATOM     26  C   UNL     1       2.234  -2.578  -0.645  1.00  0.00     0.027 C 
ATOM     27  C   UNL     1       2.091  -1.783   0.627  1.00  0.00     0.007 C 
ATOM     28  C   UNL     1       0.865  -2.199  -0.143  1.00  0.00     0.007 C 
ENDBRANCH  25  26
ENDBRANCH  24  25
ENDBRANCH   6  24
TORSDOF 7
