REMARK SMILES COCCOc1ccccc1C(=O)NC(C)c1nc(C2CCCC2)no1
REMARK SMILES IDX 6 1 7 2 8 3 9 4 10 5 11 6 5 7 4 8 3 9 2 10 1 11 12 12 14 13
REMARK SMILES IDX 13 14 15 16 16 17 17 18 18 19 26 20 19 21 25 22 20 23 21 24
REMARK SMILES IDX 24 25 22 26 23 27
REMARK H PARENT 14 15
ROOT
ATOM      1  C   UNL     1       1.044   1.881  -2.288  1.00  0.00     0.132 A 
ATOM      2  C   UNL     1       2.282   2.182  -2.869  1.00  0.00     0.047 A 
ATOM      3  C   UNL     1       2.350   2.888  -4.073  1.00  0.00     0.004 A 
ATOM      4  C   UNL     1       1.184   3.296  -4.713  1.00  0.00     0.001 A 
ATOM      5  C   UNL     1      -0.054   3.002  -4.145  1.00  0.00     0.018 A 
ATOM      6  C   UNL     1      -0.138   2.304  -2.928  1.00  0.00     0.081 A 
ENDROOT
BRANCH   1   7
ATOM      7  O   UNL     1       0.904   1.157  -1.135  1.00  0.00    -0.490 OA
BRANCH   7   8
ATOM      8  C   UNL     1       2.068   0.873  -0.354  1.00  0.00     0.258 C 
BRANCH   8   9
ATOM      9  C   UNL     1       1.606   0.174   0.924  1.00  0.00     0.201 C 
BRANCH   9  10
ATOM     10  O   UNL     1       0.894   1.112   1.741  1.00  0.00    -0.381 OA
ATOM     11  C   UNL     1       0.335   0.483   2.886  1.00  0.00     0.195 C 
ENDBRANCH   9  10
ENDBRANCH   8   9
ENDBRANCH   7   8
ENDBRANCH   1   7
BRANCH   6  12
ATOM     12  C   UNL     1      -1.515   2.055  -2.393  1.00  0.00     0.255 C 
ATOM     13  N   UNL     1      -1.635   1.813  -1.044  1.00  0.00    -0.340 N 
ATOM     14  O   UNL     1      -2.485   2.099  -3.144  1.00  0.00    -0.269 OA
ATOM     15  H   UNL     1      -0.779   1.594  -0.538  1.00  0.00     0.164 HD
BRANCH  13  16
ATOM     16  C   UNL     1      -2.878   1.330  -0.462  1.00  0.00     0.169 C 
ATOM     17  C   UNL     1      -3.070   1.922   0.929  1.00  0.00     0.041 C 
BRANCH  16  18
ATOM     18  C   UNL     1      -2.833  -0.162  -0.394  1.00  0.00     0.248 A 
ATOM     19  N   UNL     1      -1.913  -0.961   0.111  1.00  0.00    -0.194 NA
ATOM     20  O   UNL     1      -3.910  -0.832  -0.900  1.00  0.00    -0.337 OA
ATOM     21  C   UNL     1      -2.453  -2.200  -0.121  1.00  0.00     0.175 A 
ATOM     22  N   UNL     1      -3.655  -2.192  -0.711  1.00  0.00    -0.062 NA
BRANCH  21  23
ATOM     23  C   UNL     1      -1.767  -3.462   0.263  1.00  0.00     0.061 C 
ATOM     24  C   UNL     1      -1.470  -3.557   1.771  1.00  0.00     0.012 C 
ATOM     25  C   UNL     1      -0.413  -3.641  -0.438  1.00  0.00     0.012 C 
ATOM     26  C   UNL     1       0.041  -3.724   1.894  1.00  0.00     0.001 C 
ATOM     27  C   UNL     1       0.450  -4.368   0.581  1.00  0.00     0.001 C 
ENDBRANCH  21  23
ENDBRANCH  16  18
ENDBRANCH  13  16
ENDBRANCH   6  12
TORSDOF 8
