REMARK SMILES O=C(NC(CCO)C1CCCCC1)c1noc(-c2cccnc2)n1
REMARK SMILES IDX 4 1 3 2 2 3 1 4 14 6 15 7 24 8 16 9 17 10 18 11 19 12 23 13
REMARK SMILES IDX 20 14 22 15 21 16 5 17 6 18 7 19 8 21 9 22 13 23 10 24 12 25
REMARK SMILES IDX 11 26
REMARK H PARENT 3 5 7 20
ROOT
ATOM      1  C   UNL     1      -1.151  -0.983   0.755  1.00  0.00     0.087 C 
ENDROOT
BRANCH   1   2
ATOM      2  N   UNL     1       0.204  -0.516   1.017  1.00  0.00    -0.346 N 
ATOM      3  C   UNL     1       0.723  -0.395   2.295  1.00  0.00     0.292 C 
ATOM      4  O   UNL     1       0.159  -0.837   3.292  1.00  0.00    -0.265 OA
ATOM      5  H   UNL     1       0.642   0.077   0.313  1.00  0.00     0.164 HD
BRANCH   3   6
ATOM      6  C   UNL     1       1.997   0.340   2.331  1.00  0.00     0.260 A 
ATOM      7  N   UNL     1       2.695   0.560   3.457  1.00  0.00    -0.051 NA
ATOM      8  N   UNL     1       2.575   0.891   1.195  1.00  0.00    -0.182 NA
ATOM      9  O   UNL     1       3.800   1.288   3.023  1.00  0.00    -0.333 OA
ATOM     10  C   UNL     1       3.666   1.449   1.673  1.00  0.00     0.259 A 
BRANCH  10  11
ATOM     11  C   UNL     1       4.705   2.192   0.984  1.00  0.00     0.058 A 
ATOM     12  C   UNL     1       4.622   2.423  -0.393  1.00  0.00     0.017 A 
ATOM     13  C   UNL     1       5.820   2.707   1.641  1.00  0.00     0.124 A 
ATOM     14  C   UNL     1       5.625   3.139  -1.045  1.00  0.00     0.021 A 
ATOM     15  N   UNL     1       6.811   3.407   1.034  1.00  0.00    -0.264 NA
ATOM     16  C   UNL     1       6.690   3.607  -0.295  1.00  0.00     0.111 A 
ENDBRANCH  10  11
ENDBRANCH   3   6
ENDBRANCH   1   2
BRANCH   1  17
ATOM     17  C   UNL     1      -2.171   0.172   0.871  1.00  0.00     0.053 C 
BRANCH  17  18
ATOM     18  C   UNL     1      -2.083   1.275  -0.177  1.00  0.00     0.158 C 
BRANCH  18  19
ATOM     19  O   UNL     1      -0.805   1.898  -0.164  1.00  0.00    -0.396 OA
ATOM     20  H   UNL     1      -0.739   2.396   0.670  1.00  0.00     0.210 HD
ENDBRANCH  18  19
ENDBRANCH  17  18
ENDBRANCH   1  17
BRANCH   1  21
ATOM     21  C   UNL     1      -1.203  -1.861  -0.526  1.00  0.00     0.011 C 
ATOM     22  C   UNL     1      -2.630  -2.283  -0.903  1.00  0.00     0.006 C 
ATOM     23  C   UNL     1      -0.444  -1.295  -1.747  1.00  0.00     0.006 C 
ATOM     24  C   UNL     1      -2.643  -3.354  -1.998  1.00  0.00     0.000 C 
ATOM     25  C   UNL     1      -0.971  -1.807  -3.090  1.00  0.00     0.000 C 
ATOM     26  C   UNL     1      -1.484  -3.235  -2.988  1.00  0.00     0.000 C 
ENDBRANCH   1  21
TORSDOF 7
