REMARK SMILES O=C(Cc1c[nH]c2ncccc12)N1CCC(COc2ccccc2)CC1
REMARK SMILES IDX 1 1 2 2 13 3 14 4 15 5 16 6 25 7 26 8 3 9 4 10 5 11 12 12
REMARK SMILES IDX 6 13 11 14 7 15 10 16 8 17 9 18 17 20 18 21 19 22 20 23
REMARK SMILES IDX 24 24 21 25 23 26 22 27
REMARK H PARENT 6 19
ROOT
ATOM      1  O   UNL     1      -2.166  -0.939  -2.254  1.00  0.00    -0.275 OA
ATOM      2  C   UNL     1      -1.232  -0.156  -2.069  1.00  0.00     0.227 C 
ATOM      3  N   UNL     1      -0.636  -0.041  -0.809  1.00  0.00    -0.342 N 
ATOM      4  C   UNL     1      -1.104  -0.949   0.235  1.00  0.00     0.120 C 
ATOM      5  C   UNL     1      -0.264  -0.882   1.505  1.00  0.00     0.028 C 
ATOM      6  C   UNL     1      -0.179   0.561   2.025  1.00  0.00     0.030 C 
ATOM      7  C   UNL     1       0.152   1.564   0.901  1.00  0.00     0.028 C 
ATOM      8  C   UNL     1       0.420   0.904  -0.451  1.00  0.00     0.120 C 
ENDROOT
BRANCH   2   9
ATOM      9  C   UNL     1      -0.676   0.735  -3.179  1.00  0.00     0.138 C 
BRANCH   9  10
ATOM     10  C   UNL     1      -1.182   0.395  -4.548  1.00  0.00    -0.012 A 
ATOM     11  C   UNL     1      -2.069   1.141  -5.308  1.00  0.00     0.089 A 
ATOM     12  C   UNL     1      -0.828  -0.748  -5.335  1.00  0.00     0.022 A 
ATOM     13  N   UNL     1      -2.266   0.493  -6.499  1.00  0.00    -0.346 N 
ATOM     14  C   UNL     1       0.001  -1.871  -5.164  1.00  0.00     0.014 A 
ATOM     15  C   UNL     1      -1.514  -0.646  -6.540  1.00  0.00     0.137 A 
ATOM     16  C   UNL     1       0.070  -2.791  -6.211  1.00  0.00     0.021 A 
ATOM     17  N   UNL     1      -1.479  -1.495  -7.584  1.00  0.00    -0.239 NA
ATOM     18  C   UNL     1      -0.671  -2.558  -7.365  1.00  0.00     0.113 A 
ATOM     19  H   UNL     1      -2.871   0.788  -7.253  1.00  0.00     0.167 HD
ENDBRANCH   9  10
ENDBRANCH   2   9
BRANCH   6  20
ATOM     20  C   UNL     1       0.810   0.678   3.197  1.00  0.00     0.233 C 
BRANCH  20  21
ATOM     21  O   UNL     1       0.369  -0.180   4.250  1.00  0.00    -0.493 OA
BRANCH  21  22
ATOM     22  C   UNL     1       1.077  -0.155   5.421  1.00  0.00     0.119 A 
ATOM     23  C   UNL     1       0.535  -0.936   6.448  1.00  0.00     0.046 A 
ATOM     24  C   UNL     1       2.256   0.553   5.654  1.00  0.00     0.046 A 
ATOM     25  C   UNL     1       1.159  -1.009   7.695  1.00  0.00     0.004 A 
ATOM     26  C   UNL     1       2.882   0.481   6.904  1.00  0.00     0.004 A 
ATOM     27  C   UNL     1       2.334  -0.297   7.924  1.00  0.00     0.000 A 
ENDBRANCH  21  22
ENDBRANCH  20  21
ENDBRANCH   6  20
TORSDOF 5
