REMARK SMILES O=C(NC1CCc2[nH]ncc2C1)N(Cc1ccccc1)CC1CCC1
REMARK SMILES IDX 1 1 2 2 3 3 13 5 14 6 15 7 16 8 20 9 17 10 19 11 18 12 21 13
REMARK SMILES IDX 22 14 23 15 25 16 24 17 4 18 5 19 12 20 6 21 11 22 7 23
REMARK SMILES IDX 10 24 8 25 9 26
REMARK H PARENT 3 4 8 27
ROOT
ATOM      1  O   UNL     1       1.632  -0.975   0.456  1.00  0.00    -0.249 OA
ATOM      2  C   UNL     1       0.837  -0.105   0.110  1.00  0.00     0.317 C 
ATOM      3  N   UNL     1       0.270   0.752   1.020  1.00  0.00    -0.335 N 
ATOM      4  H   UNL     1       0.040   1.665   0.665  1.00  0.00     0.165 HD
ENDROOT
BRANCH   2   5
ATOM      5  N   UNL     1       0.438   0.081  -1.206  1.00  0.00    -0.320 N 
BRANCH   5   6
ATOM      6  C   UNL     1       1.025  -0.799  -2.220  1.00  0.00     0.157 C 
BRANCH   6   7
ATOM      7  C   UNL     1       0.093  -1.910  -2.650  1.00  0.00    -0.029 A 
ATOM      8  C   UNL     1      -0.252  -2.934  -1.757  1.00  0.00     0.005 A 
ATOM      9  C   UNL     1      -0.438  -1.936  -3.948  1.00  0.00     0.005 A 
ATOM     10  C   UNL     1      -1.113  -3.959  -2.151  1.00  0.00     0.000 A 
ATOM     11  C   UNL     1      -1.300  -2.963  -4.340  1.00  0.00     0.000 A 
ATOM     12  C   UNL     1      -1.637  -3.973  -3.442  1.00  0.00     0.000 A 
ENDBRANCH   6   7
ENDBRANCH   5   6
BRANCH   5  13
ATOM     13  C   UNL     1      -0.636   0.982  -1.637  1.00  0.00     0.125 C 
BRANCH  13  14
ATOM     14  C   UNL     1      -0.011   2.323  -1.991  1.00  0.00     0.009 C 
ATOM     15  C   UNL     1       0.659   2.478  -3.385  1.00  0.00     0.005 C 
ATOM     16  C   UNL     1      -1.022   3.402  -2.469  1.00  0.00     0.005 C 
ATOM     17  C   UNL     1       0.076   3.904  -3.428  1.00  0.00     0.001 C 
ENDBRANCH  13  14
ENDBRANCH   5  13
ENDBRANCH   2   5
BRANCH   3  18
ATOM     18  C   UNL     1       0.640   0.695   2.434  1.00  0.00     0.088 C 
ATOM     19  C   UNL     1      -0.443   1.410   3.282  1.00  0.00     0.031 C 
ATOM     20  C   UNL     1       2.059   1.288   2.674  1.00  0.00     0.064 C 
ATOM     21  C   UNL     1      -0.166   1.313   4.795  1.00  0.00     0.058 C 
ATOM     22  C   UNL     1       2.281   1.566   4.116  1.00  0.00    -0.005 A 
ATOM     23  C   UNL     1       1.267   1.589   5.045  1.00  0.00     0.039 A 
ATOM     24  C   UNL     1       3.438   1.867   4.852  1.00  0.00     0.139 A 
ATOM     25  N   UNL     1       1.843   1.882   6.243  1.00  0.00    -0.282 N 
ATOM     26  N   UNL     1       3.174   2.066   6.149  1.00  0.00    -0.184 NA
ATOM     27  H   UNL     1       1.407   1.971   7.155  1.00  0.00     0.190 HD
ENDBRANCH   3  18
TORSDOF 6
