REMARK SMILES c1cc(NCc2cccc3cn[nH]c23)cc(N2CCCCC2)c1
REMARK SMILES IDX 4 1 3 3 1 4 2 5 23 6 16 7 15 8 17 9 18 10 22 11 19 12 21 13
REMARK SMILES IDX 20 14 5 15 6 16 7 17 14 18 8 19 13 20 10 21 9 22 12 23 11 24
REMARK H PARENT 4 2 13 25
ROOT
ATOM      1  N   UNL     1       1.058   0.684   0.127  1.00  0.00    -0.381 N 
ATOM      2  H   UNL     1       1.068   0.023  -0.649  1.00  0.00     0.160 HD
ENDROOT
BRANCH   1   3
ATOM      3  C   UNL     1       0.203   0.227   1.142  1.00  0.00     0.036 A 
ATOM      4  C   UNL     1      -0.586   0.130   3.426  1.00  0.00     0.004 A 
ATOM      5  C   UNL     1       0.341   0.571   2.486  1.00  0.00     0.026 A 
ATOM      6  C   UNL     1      -1.689  -0.628   3.024  1.00  0.00     0.026 A 
ATOM      7  C   UNL     1      -1.918  -0.945   1.678  1.00  0.00     0.039 A 
ATOM      8  C   UNL     1      -0.944  -0.503   0.764  1.00  0.00     0.051 A 
BRANCH   7   9
ATOM      9  N   UNL     1      -3.037  -1.695   1.306  1.00  0.00    -0.371 N 
ATOM     10  C   UNL     1      -4.343  -1.313   1.873  1.00  0.00     0.116 C 
ATOM     11  C   UNL     1      -3.134  -2.303  -0.028  1.00  0.00     0.116 C 
ATOM     12  C   UNL     1      -5.049  -0.325   0.941  1.00  0.00     0.021 C 
ATOM     13  C   UNL     1      -3.833  -1.359  -1.010  1.00  0.00     0.021 C 
ATOM     14  C   UNL     1      -5.186  -0.899  -0.469  1.00  0.00     0.004 C 
ENDBRANCH   7   9
ENDBRANCH   1   3
BRANCH   1  15
ATOM     15  C   UNL     1       2.418   1.100   0.468  1.00  0.00     0.151 C 
BRANCH  15  16
ATOM     16  C   UNL     1       3.119   1.590  -0.777  1.00  0.00    -0.003 A 
ATOM     17  C   UNL     1       4.483   1.320  -0.999  1.00  0.00     0.008 A 
ATOM     18  C   UNL     1       2.498   2.395  -1.750  1.00  0.00     0.070 A 
ATOM     19  C   UNL     1       5.158   1.804  -2.124  1.00  0.00     0.001 A 
ATOM     20  N   UNL     1       1.206   2.852  -1.843  1.00  0.00    -0.277 N 
ATOM     21  C   UNL     1       3.142   2.891  -2.875  1.00  0.00     0.020 A 
ATOM     22  C   UNL     1       4.499   2.592  -3.074  1.00  0.00     0.012 A 
ATOM     23  N   UNL     1       0.965   3.605  -2.933  1.00  0.00    -0.183 NA
ATOM     24  C   UNL     1       2.147   3.627  -3.557  1.00  0.00     0.143 A 
ATOM     25  H   UNL     1       0.449   2.654  -1.194  1.00  0.00     0.190 HD
ENDBRANCH  15  16
ENDBRANCH   1  15
TORSDOF 4
