REMARK SMILES NC(=O)C1(NC(=O)c2ccccc2OCC2CC2)CCOCC1
REMARK SMILES IDX 8 1 9 2 10 3 11 4 12 5 13 6 6 7 5 8 7 10 4 11 19 12 23 13
REMARK SMILES IDX 20 14 22 15 21 16 2 17 1 18 3 21 14 22 15 23 16 24 17 25
REMARK SMILES IDX 18 26
REMARK H PARENT 5 9 1 19 1 20
ROOT
ATOM      1  C   UNL     1       1.487   0.736   1.856  1.00  0.00     0.081 A 
ATOM      2  C   UNL     1       2.003   1.259   3.054  1.00  0.00     0.018 A 
ATOM      3  C   UNL     1       3.183   2.008   3.059  1.00  0.00     0.001 A 
ATOM      4  C   UNL     1       3.857   2.252   1.865  1.00  0.00     0.004 A 
ATOM      5  C   UNL     1       3.362   1.734   0.669  1.00  0.00     0.047 A 
ATOM      6  C   UNL     1       2.197   0.958   0.666  1.00  0.00     0.132 A 
ENDROOT
BRANCH   1   7
ATOM      7  C   UNL     1       0.205  -0.032   1.945  1.00  0.00     0.255 C 
ATOM      8  N   UNL     1      -0.505  -0.199   0.773  1.00  0.00    -0.337 N 
ATOM      9  H   UNL     1      -0.184   0.406   0.021  1.00  0.00     0.164 HD
ATOM     10  O   UNL     1      -0.168  -0.453   3.035  1.00  0.00    -0.269 OA
BRANCH   8  11
ATOM     11  C   UNL     1      -1.946  -0.557   0.710  1.00  0.00     0.123 C 
ATOM     12  C   UNL     1      -2.248  -0.947  -0.757  1.00  0.00     0.067 C 
ATOM     13  C   UNL     1      -2.313  -1.700   1.674  1.00  0.00     0.067 C 
ATOM     14  C   UNL     1      -3.330  -2.005  -0.902  1.00  0.00     0.163 C 
ATOM     15  C   UNL     1      -3.652  -2.375   1.389  1.00  0.00     0.163 C 
ATOM     16  O   UNL     1      -4.250  -1.916   0.177  1.00  0.00    -0.381 OA
BRANCH  11  17
ATOM     17  C   UNL     1      -2.725   0.762   1.036  1.00  0.00     0.243 C 
ATOM     18  N   UNL     1      -4.082   0.679   1.156  1.00  0.00    -0.368 N 
ATOM     19  H   UNL     1      -4.585  -0.118   0.774  1.00  0.00     0.159 HD
ATOM     20  H   UNL     1      -4.582   1.554   1.238  1.00  0.00     0.159 HD
ATOM     21  O   UNL     1      -2.192   1.870   1.108  1.00  0.00    -0.273 OA
ENDBRANCH  11  17
ENDBRANCH   8  11
ENDBRANCH   1   7
BRANCH   6  22
ATOM     22  O   UNL     1       1.740   0.463  -0.531  1.00  0.00    -0.492 OA
BRANCH  22  23
ATOM     23  C   UNL     1       2.577  -0.612  -0.983  1.00  0.00     0.233 C 
BRANCH  23  24
ATOM     24  C   UNL     1       1.831  -1.363  -2.044  1.00  0.00     0.027 C 
ATOM     25  C   UNL     1       2.570  -2.039  -3.170  1.00  0.00     0.007 C 
ATOM     26  C   UNL     1       1.734  -0.818  -3.445  1.00  0.00     0.007 C 
ENDBRANCH  23  24
ENDBRANCH  22  23
ENDBRANCH   6  22
TORSDOF 6
