REMARK SMILES O=C(CCCNc1ncnc2nc[nH]c12)N1CCc2ccccc21
REMARK SMILES IDX 4 1 3 2 2 3 1 4 16 5 17 6 24 7 18 8 23 9 19 10 22 11 20 12
REMARK SMILES IDX 21 13 5 14 6 15 7 17 8 18 15 19 9 20 14 21 11 22 10 23 13 24
REMARK SMILES IDX 12 25
REMARK H PARENT 6 16 14 26
ROOT
ATOM      1  C   UNL     1      -1.830   1.655   1.749  1.00  0.00     0.031 C 
ENDROOT
BRANCH   1   2
ATOM      2  C   UNL     1      -0.312   1.468   1.851  1.00  0.00     0.102 C 
BRANCH   2   3
ATOM      3  C   UNL     1       0.426   1.647   0.520  1.00  0.00     0.227 C 
ATOM      4  O   UNL     1      -0.178   2.005  -0.495  1.00  0.00    -0.275 OA
BRANCH   3   5
ATOM      5  N   UNL     1       1.786   1.390   0.566  1.00  0.00    -0.312 N 
ATOM      6  C   UNL     1       2.528   0.877   1.731  1.00  0.00     0.130 C 
ATOM      7  C   UNL     1       2.687   1.517  -0.510  1.00  0.00     0.047 A 
ATOM      8  C   UNL     1       4.000   0.734   1.326  1.00  0.00     0.059 C 
ATOM      9  C   UNL     1       2.451   1.949  -1.804  1.00  0.00     0.026 A 
ATOM     10  C   UNL     1       3.969   1.136  -0.112  1.00  0.00    -0.022 A 
ATOM     11  C   UNL     1       3.522   1.986  -2.704  1.00  0.00     0.002 A 
ATOM     12  C   UNL     1       5.039   1.168  -0.994  1.00  0.00     0.006 A 
ATOM     13  C   UNL     1       4.807   1.595  -2.302  1.00  0.00     0.000 A 
ENDBRANCH   3   5
ENDBRANCH   2   3
ENDBRANCH   1   2
BRANCH   1  14
ATOM     14  C   UNL     1      -2.569   0.424   1.204  1.00  0.00     0.115 C 
BRANCH  14  15
ATOM     15  N   UNL     1      -2.004   0.028  -0.069  1.00  0.00    -0.368 N 
ATOM     16  H   UNL     1      -1.656   0.800  -0.639  1.00  0.00     0.162 HD
BRANCH  15  17
ATOM     17  C   UNL     1      -2.644  -0.960  -0.792  1.00  0.00     0.155 A 
ATOM     18  N   UNL     1      -3.586  -1.756  -0.247  1.00  0.00    -0.217 NA
ATOM     19  C   UNL     1      -2.327  -1.201  -2.115  1.00  0.00     0.128 A 
ATOM     20  C   UNL     1      -4.161  -2.702  -1.021  1.00  0.00     0.226 A 
ATOM     21  N   UNL     1      -1.428  -0.661  -2.994  1.00  0.00    -0.340 N 
ATOM     22  C   UNL     1      -2.966  -2.194  -2.832  1.00  0.00     0.182 A 
ATOM     23  N   UNL     1      -3.920  -2.984  -2.309  1.00  0.00    -0.215 NA
ATOM     24  C   UNL     1      -1.567  -1.323  -4.182  1.00  0.00     0.199 A 
ATOM     25  N   UNL     1      -2.493  -2.255  -4.117  1.00  0.00    -0.217 NA
ATOM     26  H   UNL     1      -0.772   0.080  -2.787  1.00  0.00     0.168 HD
ENDBRANCH  15  17
ENDBRANCH  14  15
ENDBRANCH   1  14
TORSDOF 6
