REMARK SMILES COc1ccccc1CN(CC1CCCO1)c1ncnc2[nH]ccc12
REMARK SMILES IDX 9 1 8 2 3 3 4 4 5 5 7 6 6 7 2 8 1 9 10 10 11 11 12 12 13 13
REMARK SMILES IDX 16 14 14 15 15 16 17 17 18 18 25 19 19 20 24 21 21 22 20 23
REMARK SMILES IDX 23 24 22 25
REMARK H PARENT 22 26
ROOT
ATOM      1  C   UNL     1      -1.356  -0.859   1.565  1.00  0.00     0.157 C 
ENDROOT
BRANCH   1   2
ATOM      2  C   UNL     1      -0.521  -0.892   2.830  1.00  0.00     0.013 A 
ATOM      3  C   UNL     1      -0.615   0.119   3.798  1.00  0.00     0.123 A 
ATOM      4  C   UNL     1       0.144   0.067   4.969  1.00  0.00     0.047 A 
ATOM      5  C   UNL     1       1.037  -0.983   5.174  1.00  0.00     0.004 A 
ATOM      6  C   UNL     1       0.380  -1.945   3.055  1.00  0.00     0.009 A 
ATOM      7  C   UNL     1       1.156  -1.988   4.216  1.00  0.00     0.001 A 
BRANCH   3   8
ATOM      8  O   UNL     1      -1.525   1.133   3.637  1.00  0.00    -0.496 OA
ATOM      9  C   UNL     1      -0.862   2.341   3.266  1.00  0.00     0.278 C 
ENDBRANCH   3   8
ENDBRANCH   1   2
BRANCH   1  10
ATOM     10  N   UNL     1      -0.815   0.103   0.591  1.00  0.00    -0.349 N 
BRANCH  10  11
ATOM     11  C   UNL     1       0.464  -0.247  -0.064  1.00  0.00     0.150 C 
BRANCH  11  12
ATOM     12  C   UNL     1       0.396  -1.466  -1.007  1.00  0.00     0.137 C 
ATOM     13  C   UNL     1       1.548  -1.489  -2.003  1.00  0.00     0.036 C 
ATOM     14  O   UNL     1       0.509  -2.709  -0.279  1.00  0.00    -0.376 OA
ATOM     15  C   UNL     1       1.603  -2.950  -2.370  1.00  0.00     0.031 C 
ATOM     16  C   UNL     1       1.315  -3.617  -1.043  1.00  0.00     0.160 C 
ENDBRANCH  11  12
ENDBRANCH  10  11
BRANCH  10  17
ATOM     17  C   UNL     1      -1.782   0.567  -0.317  1.00  0.00     0.141 A 
ATOM     18  N   UNL     1      -2.877  -0.188  -0.601  1.00  0.00    -0.219 NA
ATOM     19  C   UNL     1      -1.678   1.818  -0.962  1.00  0.00     0.061 A 
ATOM     20  C   UNL     1      -3.785   0.273  -1.482  1.00  0.00     0.226 A 
ATOM     21  C   UNL     1      -0.774   2.921  -0.943  1.00  0.00     0.033 A 
ATOM     22  C   UNL     1      -2.689   2.158  -1.848  1.00  0.00     0.142 A 
ATOM     23  N   UNL     1      -3.769   1.430  -2.164  1.00  0.00    -0.218 NA
ATOM     24  C   UNL     1      -1.248   3.874  -1.821  1.00  0.00     0.085 A 
ATOM     25  N   UNL     1      -2.412   3.395  -2.364  1.00  0.00    -0.346 N 
ATOM     26  H   UNL     1      -3.003   3.867  -3.032  1.00  0.00     0.167 HD
ENDBRANCH  10  17
ENDBRANCH   1  10
TORSDOF 6
