REMARK SMILES Cc1nc(C[NH+]2CCCC(COc3ccccc3Cl)C2)no1
REMARK SMILES IDX 6 1 7 2 8 3 9 4 10 5 20 6 5 8 4 9 2 10 3 11 22 12 21 13 1 14
REMARK SMILES IDX 11 15 12 16 13 17 14 18 18 19 15 20 17 21 16 22 19 23
REMARK H PARENT 6 7
ROOT
ATOM      1  N   UNL     1      -0.573  -2.118   1.753  1.00  0.00    -0.328 N 
ATOM      2  C   UNL     1      -0.313  -0.635   1.835  1.00  0.00     0.262 C 
ATOM      3  C   UNL     1      -1.631   0.118   1.969  1.00  0.00     0.062 C 
ATOM      4  C   UNL     1      -2.867  -0.709   1.625  1.00  0.00     0.019 C 
ATOM      5  C   UNL     1      -2.677  -1.670   0.441  1.00  0.00     0.082 C 
ATOM      6  C   UNL     1      -1.359  -2.462   0.510  1.00  0.00     0.269 C 
ATOM      7  H   UNL     1      -1.130  -2.383   2.572  1.00  0.00     0.348 HD
ENDROOT
BRANCH   1   8
ATOM      8  C   UNL     1       0.718  -2.935   1.867  1.00  0.00     0.344 C 
BRANCH   8   9
ATOM      9  C   UNL     1       1.753  -2.700   0.820  1.00  0.00     0.226 A 
ATOM     10  C   UNL     1       3.273  -1.764  -0.265  1.00  0.00     0.223 A 
ATOM     11  N   UNL     1       2.595  -1.618   0.854  1.00  0.00    -0.191 NA
ATOM     12  O   UNL     1       2.887  -2.855  -0.991  1.00  0.00    -0.339 OA
ATOM     13  N   UNL     1       1.859  -3.470  -0.269  1.00  0.00    -0.056 NA
ATOM     14  C   UNL     1       4.351  -0.936  -0.836  1.00  0.00     0.114 C 
ENDBRANCH   8   9
ENDBRANCH   1   8
BRANCH   5  15
ATOM     15  C   UNL     1      -2.814  -0.951  -0.916  1.00  0.00     0.239 C 
BRANCH  15  16
ATOM     16  O   UNL     1      -1.695  -0.088  -1.106  1.00  0.00    -0.492 OA
BRANCH  16  17
ATOM     17  C   UNL     1      -1.580   0.536  -2.323  1.00  0.00     0.137 A 
ATOM     18  C   UNL     1      -2.607   0.613  -3.270  1.00  0.00     0.048 A 
ATOM     19  C   UNL     1      -0.349   1.150  -2.613  1.00  0.00     0.083 A 
ATOM     20  C   UNL     1      -2.404   1.281  -4.483  1.00  0.00     0.004 A 
ATOM     21  C   UNL     1      -0.149   1.817  -3.824  1.00  0.00     0.024 A 
ATOM     22  C   UNL     1      -1.179   1.882  -4.760  1.00  0.00     0.002 A 
ATOM     23  Cl  UNL     1       0.969   1.091  -1.495  1.00  0.00    -0.080 Cl
ENDBRANCH  16  17
ENDBRANCH  15  16
ENDBRANCH   5  15
TORSDOF 5
