REMARK SMILES Cc1cc(C)nc(Nc2cccc(N3CCC(C(N)=O)CC3)c2)n1
REMARK SMILES IDX 9 1 10 2 11 3 12 4 13 5 23 6 8 7 7 9 2 10 3 11 24 12 4 13
REMARK SMILES IDX 6 14 1 15 5 16 14 17 15 18 22 19 16 20 21 21 17 22 18 23
REMARK SMILES IDX 19 24 20 25
REMARK H PARENT 8 8 19 26 19 27
ROOT
ATOM      1  C   UNL     1       1.784  -0.936  -0.325  1.00  0.00     0.043 A 
ATOM      2  C   UNL     1       3.165  -0.881  -0.095  1.00  0.00     0.026 A 
ATOM      3  C   UNL     1       3.714   0.069   0.764  1.00  0.00     0.004 A 
ATOM      4  C   UNL     1       2.883   0.981   1.411  1.00  0.00     0.026 A 
ATOM      5  C   UNL     1       1.494   0.964   1.221  1.00  0.00     0.039 A 
ATOM      6  C   UNL     1       0.973  -0.007   0.344  1.00  0.00     0.052 A 
ENDROOT
BRANCH   1   7
ATOM      7  N   UNL     1       1.293  -1.919  -1.192  1.00  0.00    -0.324 N 
ATOM      8  H   UNL     1       1.971  -2.519  -1.638  1.00  0.00     0.170 HD
BRANCH   7   9
ATOM      9  C   UNL     1       0.027  -2.261  -1.661  1.00  0.00     0.227 A 
ATOM     10  C   UNL     1      -1.183  -3.673  -3.026  1.00  0.00     0.043 A 
ATOM     11  C   UNL     1      -2.363  -3.055  -2.676  1.00  0.00     0.047 A 
ATOM     12  N   UNL     1       0.010  -3.285  -2.531  1.00  0.00    -0.218 NA
ATOM     13  C   UNL     1      -2.261  -2.013  -1.780  1.00  0.00     0.043 A 
ATOM     14  N   UNL     1      -1.080  -1.614  -1.269  1.00  0.00    -0.218 NA
ATOM     15  C   UNL     1      -1.185  -4.807  -4.006  1.00  0.00     0.067 C 
ATOM     16  C   UNL     1      -3.486  -1.277  -1.330  1.00  0.00     0.067 C 
ENDBRANCH   7   9
ENDBRANCH   1   7
BRANCH   5  17
ATOM     17  N   UNL     1       0.693   1.913   1.895  1.00  0.00    -0.371 N 
ATOM     18  C   UNL     1       0.784   1.768   3.366  1.00  0.00     0.117 C 
ATOM     19  C   UNL     1      -0.670   2.130   1.390  1.00  0.00     0.117 C 
ATOM     20  C   UNL     1      -0.273   2.616   4.080  1.00  0.00     0.035 C 
ATOM     21  C   UNL     1      -1.195   3.483   1.885  1.00  0.00     0.035 C 
ATOM     22  C   UNL     1      -0.686   3.855   3.286  1.00  0.00     0.081 C 
BRANCH  22  23
ATOM     23  C   UNL     1       0.447   4.876   3.245  1.00  0.00     0.220 C 
ATOM     24  N   UNL     1       1.446   4.648   2.350  1.00  0.00    -0.369 N 
ATOM     25  O   UNL     1       0.496   5.838   4.006  1.00  0.00    -0.275 OA
ATOM     26  H   UNL     1       2.250   5.259   2.355  1.00  0.00     0.159 HD
ATOM     27  H   UNL     1       1.504   3.758   1.854  1.00  0.00     0.159 HD
ENDBRANCH  22  23
ENDBRANCH   5  17
TORSDOF 4
