REMARK SMILES O=C1CC2CCC(CN1)N2c1nccc(OCc2ccccc2)n1
REMARK SMILES IDX 11 1 12 2 13 3 14 4 15 5 24 6 10 7 7 8 6 9 5 10 4 11 8 12
REMARK SMILES IDX 9 13 2 14 1 15 3 18 16 20 17 21 18 22 19 23 23 24 20 25
REMARK SMILES IDX 22 26 21 27
REMARK H PARENT 9 16
REMARK Flexibility Score:   44.900
ROOT
ATOM      1  C   UNL     1       0.485   0.062   1.285  1.00  0.00     0.229 A 
ATOM      2  N   UNL     1       0.304   0.432   2.565  1.00  0.00    -0.221 NA
ATOM      3  C   UNL     1      -0.292  -0.449   3.389  1.00  0.00     0.121 A 
ATOM      4  C   UNL     1      -0.718  -1.686   2.990  1.00  0.00     0.088 A 
ATOM      5  C   UNL     1      -0.485  -1.977   1.671  1.00  0.00     0.218 A 
ATOM      6  N   UNL     1       0.113  -1.135   0.814  1.00  0.00    -0.177 NA
ENDROOT
BRANCH   1   7
ATOM      7  N   UNL     1       1.082   0.946   0.429  1.00  0.00    -0.332 N 
ATOM      8  C   UNL     1       1.290   2.339   0.784  1.00  0.00     0.105 C 
ATOM      9  C   UNL     1       2.254   2.798  -0.323  1.00  0.00     0.029 C 
ATOM     10  C   UNL     1       2.005   1.851  -1.509  1.00  0.00     0.028 C 
ATOM     11  C   UNL     1       0.966   0.825  -1.015  1.00  0.00     0.095 C 
BRANCH   8  12
ATOM     12  C   UNL     1      -0.043   3.121   0.776  1.00  0.00     0.140 C 
BRANCH  12  13
ATOM     13  N   UNL     1      -0.599   3.416  -0.538  1.00  0.00    -0.354 N 
ATOM     14  C   UNL     1      -0.875   2.564  -1.559  1.00  0.00     0.222 CG0
ATOM     15  O   UNL     1      -1.491   3.003  -2.533  1.00  0.00    -0.275 OA
ATOM     16  H   UNL     1      -1.010   4.332  -0.680  1.00  0.00     0.163 HD
ATOM     17  G   UNL     1      -0.460   1.112  -1.494  1.00  0.00     0.000 G0
ENDBRANCH  12  13
ENDBRANCH   8  12
BRANCH  11  18
ATOM     18  C   UNL     1      -0.460   1.112  -1.494  1.00  0.00     0.125 CG0
ATOM     19  G   UNL     1      -0.875   2.564  -1.559  1.00  0.00     0.000 G0
ENDBRANCH  11  18
ENDBRANCH   1   7
BRANCH   5  20
ATOM     20  O   UNL     1      -0.914  -3.219   1.243  1.00  0.00    -0.473 OA
BRANCH  20  21
ATOM     21  C   UNL     1      -0.636  -3.507  -0.131  1.00  0.00     0.267 C 
BRANCH  21  22
ATOM     22  C   UNL     1      -1.677  -2.951  -1.076  1.00  0.00    -0.011 A 
ATOM     23  C   UNL     1      -3.041  -2.972  -0.748  1.00  0.00     0.007 A 
ATOM     24  C   UNL     1      -1.291  -2.445  -2.326  1.00  0.00     0.007 A 
ATOM     25  C   UNL     1      -3.993  -2.472  -1.638  1.00  0.00     0.000 A 
ATOM     26  C   UNL     1      -2.244  -1.947  -3.215  1.00  0.00     0.000 A 
ATOM     27  C   UNL     1      -3.594  -1.958  -2.870  1.00  0.00     0.000 A 
ENDBRANCH  21  22
ENDBRANCH  20  21
ENDBRANCH   5  20
TORSDOF 4
