REMARK SMILES c1ccc(-n2nnnc2C[NH+]2CCCCC2c2nc[nH]n2)cc1
REMARK SMILES IDX 11 1 12 2 13 3 14 4 15 5 16 6 10 8 9 9 5 10 6 11 7 12 8 13
REMARK SMILES IDX 4 14 1 15 2 16 23 17 3 18 22 19 17 20 18 21 21 22 19 23
REMARK SMILES IDX 20 24
REMARK H PARENT 11 7 20 25
ROOT
ATOM      1  N   UNL     1       0.454   1.501  -2.114  1.00  0.00    -0.320 N 
ATOM      2  C   UNL     1       1.648   2.177  -2.731  1.00  0.00     0.263 C 
ATOM      3  C   UNL     1       1.478   3.697  -2.766  1.00  0.00     0.062 C 
ATOM      4  C   UNL     1       0.641   4.234  -1.611  1.00  0.00     0.012 C 
ATOM      5  C   UNL     1      -0.751   3.593  -1.550  1.00  0.00     0.074 C 
ATOM      6  C   UNL     1      -0.843   2.274  -2.326  1.00  0.00     0.255 C 
ATOM      7  H   UNL     1       0.301   0.624  -2.641  1.00  0.00     0.349 HD
ENDROOT
BRANCH   1   8
ATOM      8  C   UNL     1       0.685   0.994  -0.690  1.00  0.00     0.343 C 
BRANCH   8   9
ATOM      9  C   UNL     1       1.385  -0.309  -0.685  1.00  0.00     0.210 A 
ATOM     10  N   UNL     1       1.509  -1.197   0.377  1.00  0.00    -0.192 N 
ATOM     11  N   UNL     1       2.087  -2.319  -0.119  1.00  0.00    -0.040 NA
ATOM     12  N   UNL     1       2.352  -2.088  -1.392  1.00  0.00    -0.023 NA
ATOM     13  N   UNL     1       1.921  -0.853  -1.762  1.00  0.00    -0.107 NA
BRANCH  10  14
ATOM     14  C   UNL     1       1.149  -1.115   1.750  1.00  0.00     0.069 A 
ATOM     15  C   UNL     1       0.455  -1.076   4.475  1.00  0.00     0.000 A 
ATOM     16  C   UNL     1       0.858  -2.266   3.879  1.00  0.00     0.002 A 
ATOM     17  C   UNL     1       0.410   0.094   3.722  1.00  0.00     0.002 A 
ATOM     18  C   UNL     1       1.207  -2.287   2.527  1.00  0.00     0.028 A 
ATOM     19  C   UNL     1       0.758   0.081   2.366  1.00  0.00     0.028 A 
ENDBRANCH  10  14
ENDBRANCH   8   9
ENDBRANCH   1   8
BRANCH   6  20
ATOM     20  C   UNL     1      -2.078   1.459  -2.031  1.00  0.00     0.208 A 
ATOM     21  N   UNL     1      -2.000   0.095  -1.871  1.00  0.00    -0.215 NA
ATOM     22  N   UNL     1      -3.308   1.966  -1.916  1.00  0.00    -0.152 NA
ATOM     23  C   UNL     1      -3.254  -0.251  -1.675  1.00  0.00     0.217 A 
ATOM     24  N   UNL     1      -4.045   0.857  -1.705  1.00  0.00    -0.266 N 
ATOM     25  H   UNL     1      -5.053   0.932  -1.594  1.00  0.00     0.191 HD
ENDBRANCH   6  20
TORSDOF 4
