REMARK SMILES O=C(CC1CCCC1)NC1CC[NH+](Cc2cccc3cn[nH]c23)CC1
REMARK SMILES IDX 10 1 11 2 12 3 13 4 24 5 25 6 9 8 2 9 1 10 3 12 4 13 5 14
REMARK SMILES IDX 8 15 6 16 7 17 14 18 15 19 16 20 23 21 17 22 22 23 19 24
REMARK SMILES IDX 18 25 21 26 20 27
REMARK H PARENT 13 7 9 11 22 28
ROOT
ATOM      1  C   UNL     1       0.113   1.517   0.209  1.00  0.00     0.093 C 
ATOM      2  C   UNL     1       1.192   1.920  -0.809  1.00  0.00     0.086 C 
ATOM      3  C   UNL     1       1.755   0.702  -1.519  1.00  0.00     0.264 C 
ATOM      4  N   UNL     1       2.479  -0.186  -0.532  1.00  0.00    -0.331 N 
ATOM      5  C   UNL     1       1.868  -0.187   0.859  1.00  0.00     0.264 C 
ATOM      6  C   UNL     1       0.385   0.115   0.789  1.00  0.00     0.086 C 
ATOM      7  H   UNL     1       3.421   0.210  -0.402  1.00  0.00     0.348 HD
ENDROOT
BRANCH   1   8
ATOM      8  N   UNL     1      -1.220   1.609  -0.391  1.00  0.00    -0.353 N 
ATOM      9  C   UNL     1      -2.355   1.392   0.385  1.00  0.00     0.220 C 
ATOM     10  O   UNL     1      -2.297   0.946   1.523  1.00  0.00    -0.275 OA
ATOM     11  H   UNL     1      -1.362   2.297  -1.124  1.00  0.00     0.163 HD
BRANCH   9  12
ATOM     12  C   UNL     1      -3.644   1.733  -0.350  1.00  0.00     0.103 C 
BRANCH  12  13
ATOM     13  C   UNL     1      -4.926   1.707   0.485  1.00  0.00    -0.002 C 
ATOM     14  C   UNL     1      -5.275   0.348   1.115  1.00  0.00     0.004 C 
ATOM     15  C   UNL     1      -4.956   2.723   1.632  1.00  0.00     0.004 C 
ATOM     16  C   UNL     1      -5.579   0.633   2.584  1.00  0.00     0.000 C 
ATOM     17  C   UNL     1      -5.929   2.112   2.627  1.00  0.00     0.000 C 
ENDBRANCH  12  13
ENDBRANCH   9  12
ENDBRANCH   1   8
BRANCH   4  18
ATOM     18  C   UNL     1       2.705  -1.579  -1.096  1.00  0.00     0.301 C 
BRANCH  18  19
ATOM     19  C   UNL     1       3.917  -2.244  -0.503  1.00  0.00     0.032 A 
ATOM     20  C   UNL     1       3.777  -3.206   0.521  1.00  0.00     0.012 A 
ATOM     21  C   UNL     1       5.243  -1.939  -0.878  1.00  0.00     0.074 A 
ATOM     22  C   UNL     1       4.882  -3.795   1.139  1.00  0.00     0.001 A 
ATOM     23  N   UNL     1       5.769  -1.127  -1.856  1.00  0.00    -0.277 N 
ATOM     24  C   UNL     1       6.358  -2.501  -0.258  1.00  0.00     0.020 A 
ATOM     25  C   UNL     1       6.181  -3.443   0.766  1.00  0.00     0.012 A 
ATOM     26  N   UNL     1       7.102  -1.031  -1.838  1.00  0.00    -0.183 NA
ATOM     27  C   UNL     1       7.468  -1.899  -0.892  1.00  0.00     0.143 A 
ATOM     28  H   UNL     1       5.283  -0.604  -2.574  1.00  0.00     0.190 HD
ENDBRANCH  18  19
ENDBRANCH   4  18
TORSDOF 5
