REMARK SMILES c1cnc(N2CCCC(CNc3ncnc4nc[nH]c34)C2)nc1
REMARK SMILES IDX 10 1 9 2 5 3 6 4 21 5 7 6 8 7 4 8 1 9 2 10 23 11 3 12 22 13
REMARK SMILES IDX 11 14 12 16 13 17 20 18 14 19 19 20 16 21 15 22 18 23 17 24
REMARK H PARENT 11 15 19 25
ROOT
ATOM      1  C   UNL     1      -0.122   2.444   0.216  1.00  0.00     0.120 C 
ENDROOT
BRANCH   1   2
ATOM      2  C   UNL     1       0.298   2.112  -1.227  1.00  0.00     0.028 C 
ATOM      3  N   UNL     1       1.822   0.762  -2.590  1.00  0.00    -0.340 N 
ATOM      4  C   UNL     1       2.723   1.849  -2.967  1.00  0.00     0.119 C 
ATOM      5  C   UNL     1       1.171   0.842  -1.286  1.00  0.00     0.125 C 
ATOM      6  C   UNL     1       2.474   3.099  -2.120  1.00  0.00     0.022 C 
ATOM      7  C   UNL     1       0.986   3.328  -1.889  1.00  0.00     0.009 C 
BRANCH   3   8
ATOM      8  C   UNL     1       2.223  -0.500  -3.018  1.00  0.00     0.225 A 
ATOM      9  C   UNL     1       2.990  -2.976  -3.892  1.00  0.00     0.040 A 
ATOM     10  C   UNL     1       2.145  -2.798  -2.829  1.00  0.00     0.117 A 
ATOM     11  C   UNL     1       3.418  -1.819  -4.487  1.00  0.00     0.117 A 
ATOM     12  N   UNL     1       1.752  -1.589  -2.387  1.00  0.00    -0.221 NA
ATOM     13  N   UNL     1       3.053  -0.590  -4.075  1.00  0.00    -0.221 NA
ENDBRANCH   3   8
ENDBRANCH   1   2
BRANCH   1  14
ATOM     14  N   UNL     1      -1.058   1.465   0.759  1.00  0.00    -0.368 N 
ATOM     15  H   UNL     1      -1.838   1.237   0.158  1.00  0.00     0.162 HD
BRANCH  14  16
ATOM     16  C   UNL     1      -0.563   0.413   1.511  1.00  0.00     0.155 A 
ATOM     17  N   UNL     1       0.696   0.424   1.999  1.00  0.00    -0.217 NA
ATOM     18  C   UNL     1      -1.319  -0.707   1.812  1.00  0.00     0.128 A 
ATOM     19  C   UNL     1       1.133  -0.634   2.715  1.00  0.00     0.226 A 
ATOM     20  N   UNL     1      -2.603  -1.100   1.548  1.00  0.00    -0.340 N 
ATOM     21  C   UNL     1      -0.788  -1.746   2.555  1.00  0.00     0.182 A 
ATOM     22  N   UNL     1       0.467  -1.749   3.034  1.00  0.00    -0.215 NA
ATOM     23  C   UNL     1      -2.787  -2.330   2.116  1.00  0.00     0.199 A 
ATOM     24  N   UNL     1      -1.705  -2.749   2.732  1.00  0.00    -0.217 NA
ATOM     25  H   UNL     1      -3.295  -0.571   1.039  1.00  0.00     0.168 HD
ENDBRANCH  14  16
ENDBRANCH   1  14
TORSDOF 4
