REMARK SMILES Cn1ncc2c(=O)[nH]c(Nc3cccc(OC4CCCC4)c3)nc21
REMARK SMILES IDX 11 1 12 2 13 3 14 4 15 5 22 6 10 7 2 8 3 9 24 10 4 11 23 12
REMARK SMILES IDX 5 13 9 14 6 15 8 16 1 17 7 18 16 21 17 22 18 23 21 24 19 25
REMARK SMILES IDX 20 26
REMARK H PARENT 8 19 10 20
ROOT
ATOM      1  C   UNL     1      -1.977   1.856   0.705  1.00  0.00     0.044 A 
ATOM      2  C   UNL     1      -3.111   2.557   0.271  1.00  0.00     0.026 A 
ATOM      3  C   UNL     1      -3.924   2.043  -0.738  1.00  0.00     0.006 A 
ATOM      4  C   UNL     1      -3.608   0.819  -1.324  1.00  0.00     0.046 A 
ATOM      5  C   UNL     1      -2.481   0.104  -0.914  1.00  0.00     0.121 A 
ATOM      6  C   UNL     1      -1.669   0.629   0.095  1.00  0.00     0.072 A 
ENDROOT
BRANCH   1   7
ATOM      7  N   UNL     1      -1.201   2.424   1.741  1.00  0.00    -0.326 N 
ATOM      8  N   UNL     1       2.987   2.028   3.916  1.00  0.00    -0.250 N 
ATOM      9  N   UNL     1       3.596   1.081   4.675  1.00  0.00    -0.179 NA
ATOM     10  C   UNL     1       1.733   1.665   3.512  1.00  0.00     0.167 A 
ATOM     11  C   UNL     1       2.686   0.100   4.749  1.00  0.00     0.151 A 
ATOM     12  N   UNL     1       0.881   2.390   2.745  1.00  0.00    -0.194 NA
ATOM     13  C   UNL     1       1.521   0.417   4.044  1.00  0.00     0.104 A 
ATOM     14  C   UNL     1      -0.254   1.785   2.496  1.00  0.00     0.209 C 
ATOM     15  C   UNL     1       0.274  -0.234   3.793  1.00  0.00     0.263 C 
ATOM     16  N   UNL     1      -0.564   0.529   3.004  1.00  0.00    -0.292 N 
ATOM     17  C   UNL     1       3.684   3.255   3.623  1.00  0.00     0.176 C 
ATOM     18  O   UNL     1      -0.031  -1.342   4.217  1.00  0.00    -0.269 OA
ATOM     19  H   UNL     1      -1.478   0.144   2.822  1.00  0.00     0.173 HD
ATOM     20  H   UNL     1      -0.912   3.368   1.499  1.00  0.00     0.170 HD
ENDBRANCH   1   7
BRANCH   5  21
ATOM     21  O   UNL     1      -2.288  -1.073  -1.580  1.00  0.00    -0.490 OA
BRANCH  21  22
ATOM     22  C   UNL     1      -1.205  -1.911  -1.198  1.00  0.00     0.173 C 
ATOM     23  C   UNL     1      -1.439  -3.312  -1.759  1.00  0.00     0.045 C 
ATOM     24  C   UNL     1       0.104  -1.524  -1.881  1.00  0.00     0.045 C 
ATOM     25  C   UNL     1      -0.058  -3.953  -1.749  1.00  0.00     0.004 C 
ATOM     26  C   UNL     1       0.938  -2.799  -1.854  1.00  0.00     0.004 C 
ENDBRANCH  21  22
ENDBRANCH   5  21
TORSDOF 3
