REMARK SMILES O=S(=O)(CCNc1ncnc2nc[nH]c12)c1ccccc1
REMARK SMILES IDX 5 1 4 2 2 3 1 4 3 5 16 6 17 7 21 8 18 9 20 10 19 11 6 12
REMARK SMILES IDX 7 14 8 15 15 16 9 17 14 18 11 19 10 20 13 21 12 22
REMARK H PARENT 6 13 14 23
ROOT
ATOM      1  C   UNL     1       1.747   1.675  -1.631  1.00  0.00     0.131 C 
ENDROOT
BRANCH   1   2
ATOM      2  C   UNL     1       3.040   1.804  -0.848  1.00  0.00     0.163 C 
BRANCH   2   3
ATOM      3  S   UNL     1       2.788   1.894   0.906  1.00  0.00     0.180 S 
ATOM      4  O   UNL     1       1.860   2.974   1.184  1.00  0.00    -0.224 OA
ATOM      5  O   UNL     1       4.102   1.893   1.527  1.00  0.00    -0.224 OA
BRANCH   3   6
ATOM      6  C   UNL     1       2.011   0.362   1.368  1.00  0.00     0.067 A 
ATOM      7  C   UNL     1       2.798  -0.780   1.542  1.00  0.00     0.020 A 
ATOM      8  C   UNL     1       0.633   0.320   1.598  1.00  0.00     0.020 A 
ATOM      9  C   UNL     1       2.194  -1.980   1.920  1.00  0.00     0.001 A 
ATOM     10  C   UNL     1       0.036  -0.884   1.972  1.00  0.00     0.001 A 
ATOM     11  C   UNL     1       0.815  -2.032   2.132  1.00  0.00     0.000 A 
ENDBRANCH   3   6
ENDBRANCH   2   3
ENDBRANCH   1   2
BRANCH   1  12
ATOM     12  N   UNL     1       1.310   0.280  -1.651  1.00  0.00    -0.367 N 
ATOM     13  H   UNL     1       1.930  -0.334  -2.174  1.00  0.00     0.162 HD
BRANCH  12  14
ATOM     14  C   UNL     1       0.003   0.076  -2.097  1.00  0.00     0.155 A 
ATOM     15  N   UNL     1      -0.745   1.066  -2.623  1.00  0.00    -0.217 NA
ATOM     16  C   UNL     1      -0.596  -1.165  -2.009  1.00  0.00     0.128 A 
ATOM     17  C   UNL     1      -1.996   0.779  -3.045  1.00  0.00     0.226 A 
ATOM     18  N   UNL     1      -0.217  -2.371  -1.487  1.00  0.00    -0.340 N 
ATOM     19  C   UNL     1      -1.883  -1.369  -2.465  1.00  0.00     0.182 A 
ATOM     20  N   UNL     1      -2.632  -0.398  -3.015  1.00  0.00    -0.215 NA
ATOM     21  C   UNL     1      -1.254  -3.243  -1.672  1.00  0.00     0.199 A 
ATOM     22  N   UNL     1      -2.274  -2.667  -2.270  1.00  0.00    -0.217 NA
ATOM     23  H   UNL     1       0.650  -2.558  -1.003  1.00  0.00     0.168 HD
ENDBRANCH  12  14
ENDBRANCH   1  12
TORSDOF 5
