REMARK SMILES O=C(Cc1nc(C[NH+]2CCCC2c2ncc[nH]2)cs1)Nc1ccccc1
REMARK SMILES IDX 4 1 5 2 6 3 18 4 19 5 3 6 2 7 20 8 1 9 21 11 22 12 26 13
REMARK SMILES IDX 23 14 25 15 24 16 7 17 8 18 9 19 12 20 10 21 11 22 13 24
REMARK SMILES IDX 14 25 17 26 15 27 16 28
REMARK H PARENT 20 10 8 23 17 29
ROOT
ATOM      1  C   UNL     1       1.608  -1.686   0.818  1.00  0.00     0.102 A 
ATOM      2  N   UNL     1       2.030  -0.819  -0.077  1.00  0.00    -0.240 NA
ATOM      3  C   UNL     1       3.064  -0.048   0.432  1.00  0.00     0.106 A 
ATOM      4  C   UNL     1       3.480  -0.415   1.691  1.00  0.00     0.096 A 
ATOM      5  S   UNL     1       2.506  -1.700   2.275  1.00  0.00    -0.126 S 
ENDROOT
BRANCH   1   6
ATOM      6  C   UNL     1       0.454  -2.617   0.618  1.00  0.00     0.167 C 
BRANCH   6   7
ATOM      7  C   UNL     1      -0.829  -1.825   0.369  1.00  0.00     0.231 C 
ATOM      8  N   UNL     1      -1.832  -2.619  -0.171  1.00  0.00    -0.326 N 
ATOM      9  O   UNL     1      -0.942  -0.634   0.645  1.00  0.00    -0.274 OA
ATOM     10  H   UNL     1      -1.584  -3.572  -0.424  1.00  0.00     0.169 HD
BRANCH   8  11
ATOM     11  C   UNL     1      -3.166  -2.253  -0.462  1.00  0.00     0.041 A 
ATOM     12  C   UNL     1      -3.972  -3.229  -1.074  1.00  0.00     0.026 A 
ATOM     13  C   UNL     1      -3.724  -1.004  -0.167  1.00  0.00     0.026 A 
ATOM     14  C   UNL     1      -5.300  -2.955  -1.403  1.00  0.00     0.002 A 
ATOM     15  C   UNL     1      -5.051  -0.731  -0.501  1.00  0.00     0.002 A 
ATOM     16  C   UNL     1      -5.841  -1.703  -1.118  1.00  0.00     0.000 A 
ENDBRANCH   8  11
ENDBRANCH   6   7
ENDBRANCH   1   6
BRANCH   3  17
ATOM     17  C   UNL     1       3.536   1.110  -0.390  1.00  0.00     0.321 C 
BRANCH  17  18
ATOM     18  N   UNL     1       2.740   2.358  -0.173  1.00  0.00    -0.321 N 
ATOM     19  C   UNL     1       3.117   3.538  -1.012  1.00  0.00     0.263 C 
ATOM     20  C   UNL     1       1.214   2.198  -0.221  1.00  0.00     0.251 C 
ATOM     21  C   UNL     1       1.846   4.356  -1.090  1.00  0.00     0.068 C 
ATOM     22  C   UNL     1       0.763   3.295  -1.180  1.00  0.00     0.079 C 
ATOM     23  H   UNL     1       2.887   2.635   0.811  1.00  0.00     0.349 HD
BRANCH  20  24
ATOM     24  C   UNL     1       0.712   2.413   1.170  1.00  0.00     0.164 A 
ATOM     25  N   UNL     1       1.344   3.143   2.078  1.00  0.00    -0.236 NA
ATOM     26  N   UNL     1      -0.379   1.786   1.709  1.00  0.00    -0.344 N 
ATOM     27  C   UNL     1       0.583   3.046   3.218  1.00  0.00     0.131 A 
ATOM     28  C   UNL     1      -0.493   2.211   3.005  1.00  0.00     0.104 A 
ATOM     29  H   UNL     1      -0.911   1.032   1.280  1.00  0.00     0.167 HD
ENDBRANCH  20  24
ENDBRANCH  17  18
ENDBRANCH   3  17
TORSDOF 6
