REMARK SMILES O=C(NCc1cccnc1)C1CCN(c2ncnc3nc[nH]c23)CC1
REMARK SMILES IDX 11 1 12 2 13 3 14 4 24 5 25 6 2 7 3 8 1 9 4 11 5 12 6 13
REMARK SMILES IDX 10 14 7 15 9 16 8 17 15 18 16 19 23 20 17 21 22 22 19 23
REMARK SMILES IDX 18 24 21 25 20 26
REMARK H PARENT 3 10 22 27
ROOT
ATOM      1  C   UNL     1      -1.334  -1.835   2.320  1.00  0.00     0.082 C 
ATOM      2  C   UNL     1       0.040  -2.518   2.236  1.00  0.00     0.035 C 
ATOM      3  C   UNL     1       0.986  -1.792   1.262  1.00  0.00     0.119 C 
ATOM      4  N   UNL     1       0.230  -1.160   0.162  1.00  0.00    -0.355 N 
ATOM      5  C   UNL     1      -0.967  -1.901  -0.222  1.00  0.00     0.119 C 
ATOM      6  C   UNL     1      -1.983  -1.771   0.918  1.00  0.00     0.035 C 
ENDROOT
BRANCH   1   7
ATOM      7  C   UNL     1      -1.187  -0.470   3.003  1.00  0.00     0.223 C 
ATOM      8  N   UNL     1      -2.328   0.303   3.037  1.00  0.00    -0.352 N 
ATOM      9  O   UNL     1      -0.146  -0.108   3.548  1.00  0.00    -0.275 OA
ATOM     10  H   UNL     1      -3.143   0.009   2.520  1.00  0.00     0.163 HD
BRANCH   8  11
ATOM     11  C   UNL     1      -2.260   1.692   3.440  1.00  0.00     0.153 C 
BRANCH  11  12
ATOM     12  C   UNL     1      -1.712   2.541   2.328  1.00  0.00    -0.010 A 
ATOM     13  C   UNL     1      -2.525   3.044   1.310  1.00  0.00     0.009 A 
ATOM     14  C   UNL     1      -0.344   2.784   2.235  1.00  0.00     0.116 A 
ATOM     15  C   UNL     1      -1.953   3.763   0.264  1.00  0.00     0.020 A 
ATOM     16  N   UNL     1       0.244   3.458   1.218  1.00  0.00    -0.264 NA
ATOM     17  C   UNL     1      -0.579   3.943   0.262  1.00  0.00     0.111 A 
ENDBRANCH  11  12
ENDBRANCH   8  11
ENDBRANCH   1   7
BRANCH   4  18
ATOM     18  C   UNL     1       1.082  -0.926  -0.927  1.00  0.00     0.158 A 
ATOM     19  N   UNL     1       1.229  -1.826  -1.926  1.00  0.00    -0.217 NA
ATOM     20  C   UNL     1       1.812   0.243  -1.045  1.00  0.00     0.128 A 
ATOM     21  C   UNL     1       2.083  -1.542  -2.933  1.00  0.00     0.226 A 
ATOM     22  N   UNL     1       1.901   1.391  -0.308  1.00  0.00    -0.340 N 
ATOM     23  C   UNL     1       2.660   0.449  -2.116  1.00  0.00     0.182 A 
ATOM     24  N   UNL     1       2.833  -0.447  -3.103  1.00  0.00    -0.215 NA
ATOM     25  C   UNL     1       2.795   2.215  -0.937  1.00  0.00     0.199 A 
ATOM     26  N   UNL     1       3.275   1.671  -2.034  1.00  0.00    -0.217 NA
ATOM     27  H   UNL     1       1.361   1.619   0.518  1.00  0.00     0.168 HD
ENDBRANCH   4  18
TORSDOF 4
