REMARK SMILES c1ccc(-c2nc(C3CCCN(c4ncnc5[nH]ccc45)C3)n[nH]2)cc1
REMARK SMILES IDX 8 1 9 2 10 3 11 4 12 5 22 6 7 7 5 8 6 9 24 10 23 11 4 13
REMARK SMILES IDX 1 14 2 15 26 16 3 17 25 18 13 19 14 20 21 21 15 22 20 23
REMARK SMILES IDX 17 24 16 25 19 26 18 27
REMARK H PARENT 24 12 18 28
ROOT
ATOM      1  C   UNL     1      -0.481  -0.047  -1.218  1.00  0.00     0.079 C 
ATOM      2  C   UNL     1      -1.940   0.190  -1.644  1.00  0.00     0.015 C 
ATOM      3  C   UNL     1      -2.574   1.402  -0.959  1.00  0.00     0.022 C 
ATOM      4  C   UNL     1      -1.529   2.371  -0.412  1.00  0.00     0.118 C 
ATOM      5  N   UNL     1      -0.702   1.678   0.578  1.00  0.00    -0.355 N 
ATOM      6  C   UNL     1      -0.270   0.302   0.265  1.00  0.00     0.129 C 
ENDROOT
BRANCH   1   7
ATOM      7  C   UNL     1      -0.047  -1.443  -1.520  1.00  0.00     0.155 A 
ATOM      8  C   UNL     1       0.189  -3.545  -1.320  1.00  0.00     0.155 A 
ATOM      9  N   UNL     1      -0.356  -2.506  -0.713  1.00  0.00    -0.212 NA
ATOM     10  N   UNL     1       0.796  -3.089  -2.461  1.00  0.00    -0.259 N 
ATOM     11  N   UNL     1       0.659  -1.761  -2.610  1.00  0.00    -0.158 NA
ATOM     12  H   UNL     1       1.301  -3.611  -3.164  1.00  0.00     0.192 HD
BRANCH   8  13
ATOM     13  C   UNL     1       0.157  -4.939  -0.875  1.00  0.00     0.019 A 
ATOM     14  C   UNL     1       0.040  -7.595   0.055  1.00  0.00     0.000 A 
ATOM     15  C   UNL     1      -0.623  -6.585   0.746  1.00  0.00     0.001 A 
ATOM     16  C   UNL     1       0.762  -7.288  -1.095  1.00  0.00     0.001 A 
ATOM     17  C   UNL     1      -0.564  -5.269   0.284  1.00  0.00     0.012 A 
ATOM     18  C   UNL     1       0.821  -5.969  -1.559  1.00  0.00     0.012 A 
ENDBRANCH   8  13
ENDBRANCH   1   7
BRANCH   5  19
ATOM     19  C   UNL     1       0.209   2.481   1.268  1.00  0.00     0.141 A 
ATOM     20  N   UNL     1       0.421   3.761   0.849  1.00  0.00    -0.219 NA
ATOM     21  C   UNL     1       0.909   2.067   2.426  1.00  0.00     0.061 A 
ATOM     22  C   UNL     1       1.299   4.540   1.510  1.00  0.00     0.226 A 
ATOM     23  C   UNL     1       0.963   0.901   3.249  1.00  0.00     0.033 A 
ATOM     24  C   UNL     1       1.779   2.983   3.001  1.00  0.00     0.142 A 
ATOM     25  N   UNL     1       2.031   4.233   2.591  1.00  0.00    -0.218 NA
ATOM     26  C   UNL     1       1.868   1.133   4.263  1.00  0.00     0.085 A 
ATOM     27  N   UNL     1       2.358   2.402   4.096  1.00  0.00    -0.346 N 
ATOM     28  H   UNL     1       3.032   2.869   4.686  1.00  0.00     0.167 HD
ENDBRANCH   5  19
TORSDOF 3
