REMARK SMILES O=C(c1cccnc1Oc1cccnc1)N1CCCC(c2n[nH]c(-c3ccccc3)n2)C1
REMARK SMILES IDX 1 1 2 2 3 3 4 4 8 5 5 6 7 7 6 8 9 9 10 10 11 11 15 12 12 13
REMARK SMILES IDX 14 14 13 15 16 16 17 17 32 18 18 19 20 20 19 21 21 22 22 23
REMARK SMILES IDX 31 24 23 25 24 26 25 28 26 29 30 30 27 31 29 32 28 33
REMARK H PARENT 23 27
ROOT
ATOM      1  O   UNL     1       1.342   1.634   4.299  1.00  0.00    -0.269 OA
ATOM      2  C   UNL     1       0.592   0.950   3.609  1.00  0.00     0.259 C 
ENDROOT
BRANCH   2   3
ATOM      3  C   UNL     1      -0.658   1.576   3.162  1.00  0.00     0.102 A 
ATOM      4  C   UNL     1      -1.857   1.322   3.829  1.00  0.00     0.021 A 
ATOM      5  C   UNL     1      -0.655   2.462   2.093  1.00  0.00     0.232 A 
ATOM      6  C   UNL     1      -3.018   1.948   3.382  1.00  0.00     0.021 A 
ATOM      7  N   UNL     1      -1.776   3.086   1.646  1.00  0.00    -0.221 NA
ATOM      8  C   UNL     1      -2.928   2.810   2.297  1.00  0.00     0.115 A 
BRANCH   5   9
ATOM      9  O   UNL     1       0.557   2.805   1.522  1.00  0.00    -0.437 OA
BRANCH   9  10
ATOM     10  C   UNL     1       0.652   2.908   0.160  1.00  0.00     0.147 A 
ATOM     11  C   UNL     1       1.752   3.614  -0.325  1.00  0.00     0.050 A 
ATOM     12  C   UNL     1      -0.176   2.296  -0.771  1.00  0.00     0.158 A 
ATOM     13  C   UNL     1       1.975   3.696  -1.697  1.00  0.00     0.024 A 
ATOM     14  N   UNL     1       0.041   2.314  -2.117  1.00  0.00    -0.261 NA
ATOM     15  C   UNL     1       1.100   3.038  -2.544  1.00  0.00     0.111 A 
ENDBRANCH   9  10
ENDBRANCH   5   9
ENDBRANCH   2   3
BRANCH   2  16
ATOM     16  N   UNL     1       0.856  -0.369   3.232  1.00  0.00    -0.338 N 
ATOM     17  C   UNL     1       2.101  -0.967   3.697  1.00  0.00     0.120 C 
ATOM     18  C   UNL     1      -0.150  -1.297   2.694  1.00  0.00     0.131 C 
ATOM     19  C   UNL     1       2.724  -1.864   2.635  1.00  0.00     0.022 C 
ATOM     20  C   UNL     1       0.396  -2.355   1.719  1.00  0.00     0.079 C 
ATOM     21  C   UNL     1       1.741  -2.935   2.171  1.00  0.00     0.015 C 
BRANCH  20  22
ATOM     22  C   UNL     1       0.404  -1.859   0.307  1.00  0.00     0.155 A 
ATOM     23  N   UNL     1       1.063  -0.773  -0.101  1.00  0.00    -0.158 NA
ATOM     24  N   UNL     1      -0.344  -2.469  -0.668  1.00  0.00    -0.212 NA
ATOM     25  N   UNL     1       0.685  -0.693  -1.389  1.00  0.00    -0.259 N 
ATOM     26  C   UNL     1      -0.172  -1.705  -1.732  1.00  0.00     0.155 A 
ATOM     27  H   UNL     1       1.000   0.089  -1.952  1.00  0.00     0.192 HD
BRANCH  26  28
ATOM     28  C   UNL     1      -0.778  -1.882  -3.051  1.00  0.00     0.019 A 
ATOM     29  C   UNL     1      -1.342  -3.123  -3.386  1.00  0.00     0.012 A 
ATOM     30  C   UNL     1      -0.829  -0.849  -3.999  1.00  0.00     0.012 A 
ATOM     31  C   UNL     1      -1.929  -3.332  -4.636  1.00  0.00     0.001 A 
ATOM     32  C   UNL     1      -1.418  -1.058  -5.250  1.00  0.00     0.001 A 
ATOM     33  C   UNL     1      -1.964  -2.299  -5.569  1.00  0.00     0.000 A 
ENDBRANCH  26  28
ENDBRANCH  20  22
ENDBRANCH   2  16
TORSDOF 6
