REMARK SMILES COc1ccccc1C1CC[NH+](Cc2nc(-c3nc[nH]n3)no2)C1
REMARK SMILES IDX 9 1 10 2 11 3 12 4 24 5 8 7 3 8 4 9 5 10 7 11 6 12 2 13 1 14
REMARK SMILES IDX 13 15 14 16 15 17 23 18 16 19 22 20 17 21 18 22 21 23 19 24
REMARK SMILES IDX 20 25
REMARK H PARENT 12 6 20 26
ROOT
ATOM      1  C   UNL     1      -1.623   0.274  -0.719  1.00  0.00     0.084 C 
ATOM      2  C   UNL     1      -1.056  -1.148  -0.779  1.00  0.00     0.076 C 
ATOM      3  C   UNL     1       0.449  -0.959  -0.739  1.00  0.00     0.263 C 
ATOM      4  N   UNL     1       0.685   0.381  -1.411  1.00  0.00    -0.327 N 
ATOM      5  C   UNL     1      -0.668   1.006  -1.664  1.00  0.00     0.271 C 
ATOM      6  H   UNL     1       1.192   0.946  -0.713  1.00  0.00     0.348 HD
ENDROOT
BRANCH   1   7
ATOM      7  C   UNL     1      -1.743   0.783   0.714  1.00  0.00     0.003 A 
ATOM      8  C   UNL     1      -2.761   0.247   1.542  1.00  0.00     0.122 A 
ATOM      9  C   UNL     1      -2.895   0.681   2.864  1.00  0.00     0.047 A 
ATOM     10  C   UNL     1      -2.036   1.651   3.377  1.00  0.00     0.004 A 
ATOM     11  C   UNL     1      -0.899   1.770   1.251  1.00  0.00     0.008 A 
ATOM     12  C   UNL     1      -1.044   2.197   2.572  1.00  0.00     0.001 A 
BRANCH   8  13
ATOM     13  O   UNL     1      -3.566  -0.696   0.953  1.00  0.00    -0.496 OA
ATOM     14  C   UNL     1      -4.665  -1.188   1.715  1.00  0.00     0.278 C 
ENDBRANCH   8  13
ENDBRANCH   1   7
BRANCH   4  15
ATOM     15  C   UNL     1       1.598   0.333  -2.623  1.00  0.00     0.364 C 
BRANCH  15  16
ATOM     16  C   UNL     1       3.012   0.088  -2.247  1.00  0.00     0.282 A 
ATOM     17  N   UNL     1       3.547   0.115  -1.048  1.00  0.00    -0.183 NA
ATOM     18  O   UNL     1       3.887  -0.208  -3.241  1.00  0.00    -0.333 OA
ATOM     19  C   UNL     1       4.871  -0.191  -1.323  1.00  0.00     0.242 A 
ATOM     20  N   UNL     1       5.124  -0.395  -2.627  1.00  0.00    -0.053 NA
BRANCH  19  21
ATOM     21  C   UNL     1       5.873  -0.278  -0.241  1.00  0.00     0.222 A 
ATOM     22  N   UNL     1       7.188  -0.577  -0.511  1.00  0.00    -0.213 NA
ATOM     23  N   UNL     1       5.607  -0.085   1.064  1.00  0.00    -0.150 NA
ATOM     24  C   UNL     1       7.753  -0.562   0.673  1.00  0.00     0.217 A 
ATOM     25  N   UNL     1       6.820  -0.269   1.616  1.00  0.00    -0.265 N 
ATOM     26  H   UNL     1       6.934  -0.182   2.621  1.00  0.00     0.191 HD
ENDBRANCH  19  21
ENDBRANCH  15  16
ENDBRANCH   4  15
TORSDOF 5
