REMARK SMILES O=C(CSc1nnc2[nH]c3ccccc3n12)NC1CCCCCC1
REMARK SMILES IDX 1 1 2 2 17 3 3 5 4 6 5 7 6 8 16 9 7 10 15 11 8 12 14 13
REMARK SMILES IDX 10 14 9 15 13 16 11 17 12 18 18 20 19 21 20 22 24 24 23 25
REMARK SMILES IDX 22 26 21 27
REMARK H PARENT 17 4 9 19
REMARK Flexibility Score:   98.900
ROOT
ATOM      1  O   UNL     1      -0.118  -1.989  -3.353  1.00  0.00    -0.274 OA
ATOM      2  C   UNL     1       0.385  -1.442  -2.375  1.00  0.00     0.230 C 
ATOM      3  N   UNL     1       0.007  -0.194  -1.929  1.00  0.00    -0.353 N 
ATOM      4  H   UNL     1       0.440   0.173  -1.082  1.00  0.00     0.163 HD
ENDROOT
BRANCH   2   5
ATOM      5  C   UNL     1       1.481  -2.103  -1.555  1.00  0.00     0.178 C 
BRANCH   5   6
ATOM      6  S   UNL     1       0.773  -2.997  -0.140  1.00  0.00    -0.076 SA
BRANCH   6   7
ATOM      7  C   UNL     1       0.395  -1.690   0.918  1.00  0.00     0.197 A 
ATOM      8  N   UNL     1       0.830  -0.442   0.825  1.00  0.00    -0.121 NA
ATOM      9  N   UNL     1      -0.416  -1.784   1.996  1.00  0.00    -0.254 N 
ATOM     10  N   UNL     1       0.268   0.302   1.866  1.00  0.00    -0.110 NA
ATOM     11  C   UNL     1      -1.160  -2.679   2.749  1.00  0.00     0.075 A 
ATOM     12  C   UNL     1      -0.493  -0.524   2.535  1.00  0.00     0.234 A 
ATOM     13  C   UNL     1      -1.387  -4.027   2.613  1.00  0.00     0.029 A 
ATOM     14  C   UNL     1      -1.679  -1.888   3.803  1.00  0.00     0.065 A 
ATOM     15  N   UNL     1      -1.310  -0.541   3.615  1.00  0.00    -0.322 N 
ATOM     16  C   UNL     1      -2.205  -4.602   3.588  1.00  0.00     0.002 A 
ATOM     17  C   UNL     1      -2.503  -2.453   4.745  1.00  0.00     0.028 A 
ATOM     18  C   UNL     1      -2.757  -3.828   4.636  1.00  0.00     0.002 A 
ATOM     19  H   UNL     1      -1.273   0.120   4.377  1.00  0.00     0.170 HD
ENDBRANCH   6   7
ENDBRANCH   5   6
ENDBRANCH   2   5
BRANCH   3  20
ATOM     20  C   UNL     1      -1.014   0.606  -2.591  1.00  0.00     0.082 C 
BRANCH  20  21
ATOM     21  C   UNL     1      -1.712   1.536  -1.588  1.00  0.00     0.025 C 
BRANCH  21  22
ATOM     22  C   UNL     1      -0.875   2.681  -1.023  1.00  0.00     0.002 CG0
ATOM     23  G   UNL     1      -0.067   3.497  -2.027  1.00  0.00     0.000 G0
ENDBRANCH  21  22
ENDBRANCH  20  21
BRANCH  20  24
ATOM     24  C   UNL     1      -0.435   1.283  -3.848  1.00  0.00     0.025 C 
BRANCH  24  25
ATOM     25  C   UNL     1      -1.112   2.595  -4.236  1.00  0.00     0.002 C 
BRANCH  25  26
ATOM     26  C   UNL     1      -0.779   3.799  -3.344  1.00  0.00     0.000 C 
BRANCH  26  27
ATOM     27  C   UNL     1      -0.067   3.497  -2.027  1.00  0.00     0.000 CG0
ATOM     28  G   UNL     1      -0.875   2.681  -1.023  1.00  0.00     0.000 G0
ENDBRANCH  26  27
ENDBRANCH  25  26
ENDBRANCH  24  25
ENDBRANCH  20  24
ENDBRANCH   3  20
TORSDOF 4
