REMARK SMILES Cc1nc(C2CCCCCN2C(=O)Cc2c[nH]c3ncccc23)no1
REMARK SMILES IDX 11 1 5 2 4 3 2 4 3 5 25 6 24 7 1 8 6 9 10 11 9 12 8 13 7 14
REMARK SMILES IDX 12 16 13 17 14 18 15 19 16 20 23 21 17 22 22 23 18 24 21 25
REMARK SMILES IDX 19 26 20 27
REMARK H PARENT 17 28
REMARK Flexibility Score:   71.900
ROOT
ATOM      1  N   UNL     1      -0.201  -1.013   1.180  1.00  0.00    -0.332 N 
ENDROOT
BRANCH   1   2
ATOM      2  C   UNL     1       0.856  -0.075   1.605  1.00  0.00     0.157 C 
BRANCH   2   3
ATOM      3  C   UNL     1       0.645   0.414   3.019  1.00  0.00     0.194 A 
ATOM      4  C   UNL     1       0.541   1.681   4.680  1.00  0.00     0.223 A 
ATOM      5  N   UNL     1       0.815   1.727   3.398  1.00  0.00    -0.194 NA
ATOM      6  O   UNL     1       0.271   0.425   5.135  1.00  0.00    -0.340 OA
ATOM      7  N   UNL     1       0.366  -0.425   4.033  1.00  0.00    -0.060 NA
ATOM      8  C   UNL     1       0.497   2.767   5.673  1.00  0.00     0.114 C 
ENDBRANCH   2   3
BRANCH   2   9
ATOM      9  C   UNL     1       1.096   1.044   0.583  1.00  0.00     0.033 CG0
ATOM     10  G   UNL     1       1.138   0.596  -0.884  1.00  0.00     0.000 G0
ENDBRANCH   2   9
ENDBRANCH   1   2
BRANCH   1  11
ATOM     11  C   UNL     1       0.275  -2.204   0.482  1.00  0.00     0.120 C 
BRANCH  11  12
ATOM     12  C   UNL     1       0.709  -1.927  -0.960  1.00  0.00     0.022 C 
BRANCH  12  13
ATOM     13  C   UNL     1       1.727  -0.794  -1.140  1.00  0.00     0.002 C 
BRANCH  13  14
ATOM     14  C   UNL     1       1.138   0.596  -0.884  1.00  0.00     0.003 CG0
ATOM     15  G   UNL     1       1.096   1.044   0.583  1.00  0.00     0.000 G0
ENDBRANCH  13  14
ENDBRANCH  12  13
ENDBRANCH  11  12
ENDBRANCH   1  11
BRANCH   1  16
ATOM     16  C   UNL     1      -1.524  -0.574   1.170  1.00  0.00     0.227 C 
ATOM     17  O   UNL     1      -1.826   0.585   1.471  1.00  0.00    -0.275 OA
BRANCH  16  18
ATOM     18  C   UNL     1      -2.628  -1.569   0.833  1.00  0.00     0.138 C 
BRANCH  18  19
ATOM     19  C   UNL     1      -2.880  -1.732  -0.632  1.00  0.00    -0.012 A 
ATOM     20  C   UNL     1      -2.962  -2.937  -1.314  1.00  0.00     0.089 A 
ATOM     21  C   UNL     1      -3.121  -0.700  -1.599  1.00  0.00     0.022 A 
ATOM     22  N   UNL     1      -3.213  -2.673  -2.635  1.00  0.00    -0.346 N 
ATOM     23  C   UNL     1      -3.202   0.703  -1.582  1.00  0.00     0.014 A 
ATOM     24  C   UNL     1      -3.309  -1.325  -2.828  1.00  0.00     0.137 A 
ATOM     25  C   UNL     1      -3.452   1.357  -2.789  1.00  0.00     0.021 A 
ATOM     26  N   UNL     1      -3.552  -0.747  -4.019  1.00  0.00    -0.239 NA
ATOM     27  C   UNL     1      -3.613   0.602  -3.943  1.00  0.00     0.113 A 
ATOM     28  H   UNL     1      -3.327  -3.349  -3.375  1.00  0.00     0.167 HD
ENDBRANCH  18  19
ENDBRANCH  16  18
ENDBRANCH   1  16
TORSDOF 4
