REMARK SMILES c1ccc(NC2CCN(c3ccnc(N4CCCCC4)n3)C2)cc1
REMARK SMILES IDX 6 1 7 2 8 3 9 4 22 5 5 6 4 8 1 9 2 10 24 11 3 12 23 13 10 14
REMARK SMILES IDX 11 15 21 16 12 17 14 18 13 19 15 20 16 21 20 22 17 23 19 24
REMARK SMILES IDX 18 25
REMARK H PARENT 5 7
ROOT
ATOM      1  C   UNL     1      -1.942   2.049   1.920  1.00  0.00     0.100 C 
ATOM      2  C   UNL     1      -3.400   1.728   2.251  1.00  0.00     0.048 C 
ATOM      3  C   UNL     1      -3.482   0.227   2.004  1.00  0.00     0.120 C 
ATOM      4  N   UNL     1      -2.622   0.029   0.849  1.00  0.00    -0.354 N 
ATOM      5  C   UNL     1      -1.655   1.125   0.714  1.00  0.00     0.142 C 
ENDROOT
BRANCH   1   6
ATOM      6  N   UNL     1      -1.796   3.476   1.628  1.00  0.00    -0.380 N 
ATOM      7  H   UNL     1      -2.475   3.806   0.945  1.00  0.00     0.160 HD
BRANCH   6   8
ATOM      8  C   UNL     1      -0.529   4.019   1.379  1.00  0.00     0.034 A 
ATOM      9  C   UNL     1       1.951   5.301   0.947  1.00  0.00     0.000 A 
ATOM     10  C   UNL     1       1.897   4.083   1.616  1.00  0.00     0.002 A 
ATOM     11  C   UNL     1       0.772   5.900   0.517  1.00  0.00     0.002 A 
ATOM     12  C   UNL     1       0.666   3.457   1.843  1.00  0.00     0.025 A 
ATOM     13  C   UNL     1      -0.454   5.269   0.745  1.00  0.00     0.025 A 
ENDBRANCH   6   8
ENDBRANCH   1   6
BRANCH   4  14
ATOM     14  C   UNL     1      -2.324  -1.200   0.306  1.00  0.00     0.134 A 
ATOM     15  C   UNL     1      -3.098  -2.312   0.551  1.00  0.00     0.067 A 
ATOM     16  N   UNL     1      -1.257  -1.289  -0.510  1.00  0.00    -0.196 NA
ATOM     17  C   UNL     1      -2.712  -3.481  -0.056  1.00  0.00     0.119 A 
ATOM     18  C   UNL     1      -0.935  -2.465  -1.076  1.00  0.00     0.227 A 
ATOM     19  N   UNL     1      -1.645  -3.581  -0.860  1.00  0.00    -0.221 NA
BRANCH  18  20
ATOM     20  N   UNL     1       0.179  -2.528  -1.890  1.00  0.00    -0.341 N 
ATOM     21  C   UNL     1       0.902  -1.295  -2.162  1.00  0.00     0.119 C 
ATOM     22  C   UNL     1       0.347  -3.678  -2.769  1.00  0.00     0.119 C 
ATOM     23  C   UNL     1       2.267  -1.620  -2.765  1.00  0.00     0.022 C 
ATOM     24  C   UNL     1       0.855  -3.234  -4.140  1.00  0.00     0.022 C 
ATOM     25  C   UNL     1       2.155  -2.437  -4.051  1.00  0.00     0.004 C 
ENDBRANCH  18  20
ENDBRANCH   4  14
TORSDOF 4
