REMARK SMILES N#Cc1ncn(Cc2csc(Nc3ccccc3)n2)c1C#N
REMARK SMILES IDX 7 1 6 2 3 3 4 4 20 5 5 6 2 7 1 8 21 9 22 10 8 11 9 12 19 13
REMARK SMILES IDX 10 14 11 15 12 16 13 18 14 19 18 20 15 21 17 22 16 23
REMARK H PARENT 12 17
ROOT
ATOM      1  C   UNL     1       2.679   1.933  -1.238  1.00  0.00     0.181 C 
ENDROOT
BRANCH   1   2
ATOM      2  N   UNL     1       2.315   2.580   0.013  1.00  0.00    -0.315 N 
ATOM      3  C   UNL     1       1.258   3.541   1.659  1.00  0.00     0.176 A 
ATOM      4  N   UNL     1       2.589   3.501   2.014  1.00  0.00    -0.225 NA
ATOM      5  C   UNL     1       1.064   2.987   0.413  1.00  0.00     0.158 A 
ATOM      6  C   UNL     1       3.196   2.913   1.008  1.00  0.00     0.202 A 
BRANCH   3   7
ATOM      7  C   UNL     1       0.275   4.119   2.524  1.00  0.00     0.123 C 
ATOM      8  N   UNL     1      -0.541   4.590   3.204  1.00  0.00    -0.191 NA
ENDBRANCH   3   7
BRANCH   5   9
ATOM      9  C   UNL     1      -0.143   2.858  -0.320  1.00  0.00     0.121 C 
ATOM     10  N   UNL     1      -1.112   2.782  -0.951  1.00  0.00    -0.191 NA
ENDBRANCH   5   9
ENDBRANCH   1   2
BRANCH   1  11
ATOM     11  C   UNL     1       2.682   0.452  -1.067  1.00  0.00     0.073 A 
ATOM     12  C   UNL     1       3.777  -0.387  -1.085  1.00  0.00     0.094 A 
ATOM     13  N   UNL     1       1.472  -0.193  -0.868  1.00  0.00    -0.223 NA
ATOM     14  S   UNL     1       3.279  -2.004  -0.830  1.00  0.00    -0.105 S 
ATOM     15  C   UNL     1       1.629  -1.490  -0.723  1.00  0.00     0.187 A 
BRANCH  15  16
ATOM     16  N   UNL     1       0.676  -2.421  -0.490  1.00  0.00    -0.332 N 
ATOM     17  H   UNL     1       0.995  -3.373  -0.364  1.00  0.00     0.169 HD
BRANCH  16  18
ATOM     18  C   UNL     1      -0.721  -2.271  -0.414  1.00  0.00     0.040 A 
ATOM     19  C   UNL     1      -1.403  -1.088  -0.720  1.00  0.00     0.026 A 
ATOM     20  C   UNL     1      -1.487  -3.363   0.033  1.00  0.00     0.026 A 
ATOM     21  C   UNL     1      -2.793  -0.996  -0.593  1.00  0.00     0.002 A 
ATOM     22  C   UNL     1      -2.877  -3.277   0.160  1.00  0.00     0.002 A 
ATOM     23  C   UNL     1      -3.531  -2.090  -0.154  1.00  0.00     0.000 A 
ENDBRANCH  16  18
ENDBRANCH  15  16
ENDBRANCH   1  11
TORSDOF 6
