REMARK SMILES O=S(=O)(Nc1cccnc1Nc1ccccc1)c1c[nH]cn1
REMARK SMILES IDX 4 1 2 3 1 4 3 5 18 6 19 7 22 8 20 9 21 10 5 12 6 13 10 14
REMARK SMILES IDX 7 15 9 16 8 17 11 18 12 20 13 21 17 22 14 23 16 24 15 25
REMARK H PARENT 4 2 20 11 11 19
ROOT
ATOM      1  N   UNL     1      -0.313  -1.861  -1.662  1.00  0.00    -0.275 N 
ATOM      2  H   UNL     1       0.676  -1.710  -1.885  1.00  0.00     0.180 HD
ENDROOT
BRANCH   1   3
ATOM      3  S   UNL     1      -0.460  -3.238  -0.683  1.00  0.00     0.281 S 
ATOM      4  O   UNL     1       0.321  -4.289  -1.299  1.00  0.00    -0.200 OA
ATOM      5  O   UNL     1      -1.841  -3.437  -0.296  1.00  0.00    -0.200 OA
BRANCH   3   6
ATOM      6  C   UNL     1       0.380  -2.939   0.819  1.00  0.00     0.193 A 
ATOM      7  C   UNL     1       0.127  -3.540   2.034  1.00  0.00     0.126 A 
ATOM      8  N   UNL     1       1.424  -2.027   0.935  1.00  0.00    -0.224 NA
ATOM      9  N   UNL     1       1.024  -2.983   2.902  1.00  0.00    -0.350 N 
ATOM     10  C   UNL     1       1.780  -2.084   2.200  1.00  0.00     0.198 A 
ATOM     11  H   UNL     1       1.117  -3.192   3.888  1.00  0.00     0.167 HD
ENDBRANCH   3   6
ENDBRANCH   1   3
BRANCH   1  12
ATOM     12  C   UNL     1      -0.944  -0.660  -1.179  1.00  0.00     0.092 A 
ATOM     13  C   UNL     1      -2.332  -0.548  -1.204  1.00  0.00     0.032 A 
ATOM     14  C   UNL     1      -0.174   0.419  -0.689  1.00  0.00     0.154 A 
ATOM     15  C   UNL     1      -2.928   0.622  -0.753  1.00  0.00     0.022 A 
ATOM     16  N   UNL     1      -0.757   1.561  -0.259  1.00  0.00    -0.237 NA
ATOM     17  C   UNL     1      -2.106   1.639  -0.298  1.00  0.00     0.113 A 
BRANCH  14  18
ATOM     18  N   UNL     1       1.240   0.261  -0.656  1.00  0.00    -0.338 N 
ATOM     19  H   UNL     1       1.447  -0.560  -0.076  1.00  0.00     0.168 HD
BRANCH  18  20
ATOM     20  C   UNL     1       2.231   1.253  -0.475  1.00  0.00     0.040 A 
ATOM     21  C   UNL     1       3.510   0.859  -0.049  1.00  0.00     0.026 A 
ATOM     22  C   UNL     1       2.048   2.590  -0.842  1.00  0.00     0.026 A 
ATOM     23  C   UNL     1       4.550   1.784   0.073  1.00  0.00     0.002 A 
ATOM     24  C   UNL     1       3.086   3.521  -0.721  1.00  0.00     0.002 A 
ATOM     25  C   UNL     1       4.335   3.119  -0.257  1.00  0.00     0.000 A 
ENDBRANCH  18  20
ENDBRANCH  14  18
ENDBRANCH   1  12
TORSDOF 5
