REMARK SMILES O=C(CSc1nnc2[nH]c3ccccc3n12)NC1CCCCC1
REMARK SMILES IDX 3 1 2 2 17 3 1 4 18 6 19 7 23 8 20 9 22 10 21 11 4 12 5 13
REMARK SMILES IDX 6 14 16 15 7 16 15 17 8 18 14 19 10 20 9 21 13 22 11 23
REMARK SMILES IDX 12 24
REMARK H PARENT 17 5 9 25
ROOT
ATOM      1  C   UNL     1       1.639  -0.647   3.183  1.00  0.00     0.178 C 
ENDROOT
BRANCH   1   2
ATOM      2  C   UNL     1       1.206  -1.980   2.600  1.00  0.00     0.230 C 
ATOM      3  N   UNL     1      -0.162  -2.159   2.519  1.00  0.00    -0.353 N 
ATOM      4  O   UNL     1       2.018  -2.827   2.237  1.00  0.00    -0.274 OA
ATOM      5  H   UNL     1      -0.744  -1.324   2.580  1.00  0.00     0.163 HD
BRANCH   3   6
ATOM      6  C   UNL     1      -0.740  -3.352   1.910  1.00  0.00     0.082 C 
ATOM      7  C   UNL     1      -2.180  -3.549   2.388  1.00  0.00     0.025 C 
ATOM      8  C   UNL     1      -0.636  -3.313   0.372  1.00  0.00     0.025 C 
ATOM      9  C   UNL     1      -3.150  -2.505   1.828  1.00  0.00     0.002 C 
ATOM     10  C   UNL     1      -1.974  -3.094  -0.336  1.00  0.00     0.002 C 
ATOM     11  C   UNL     1      -2.832  -2.075   0.396  1.00  0.00     0.000 C 
ENDBRANCH   3   6
ENDBRANCH   1   2
BRANCH   1  12
ATOM     12  S   UNL     1       1.825   0.593   1.869  1.00  0.00    -0.076 SA
BRANCH  12  13
ATOM     13  C   UNL     1       0.185   1.055   1.613  1.00  0.00     0.197 A 
ATOM     14  N   UNL     1      -0.868   0.667   2.317  1.00  0.00    -0.121 NA
ATOM     15  N   UNL     1      -0.232   1.904   0.646  1.00  0.00    -0.254 N 
ATOM     16  N   UNL     1      -2.005   1.283   1.788  1.00  0.00    -0.110 NA
ATOM     17  C   UNL     1       0.216   2.719  -0.381  1.00  0.00     0.075 A 
ATOM     18  C   UNL     1      -1.595   1.995   0.772  1.00  0.00     0.234 A 
ATOM     19  C   UNL     1       1.473   2.963  -0.878  1.00  0.00     0.029 A 
ATOM     20  C   UNL     1      -0.963   3.337  -0.864  1.00  0.00     0.065 A 
ATOM     21  N   UNL     1      -2.085   2.824  -0.181  1.00  0.00    -0.322 N 
ATOM     22  C   UNL     1       1.536   3.869  -1.940  1.00  0.00     0.002 A 
ATOM     23  C   UNL     1      -0.900   4.207  -1.925  1.00  0.00     0.028 A 
ATOM     24  C   UNL     1       0.369   4.480  -2.457  1.00  0.00     0.002 A 
ATOM     25  H   UNL     1      -2.955   3.330  -0.116  1.00  0.00     0.170 HD
ENDBRANCH  12  13
ENDBRANCH   1  12
TORSDOF 4
