Z16226232.pdbqt
 OpenBabel10272510253D

 25 28  0  0  0  0  0  0  0  0999 V2000
    1.6390   -0.6470    3.1830 C   0  0  0  0  0  2  0  0  0  0  0  0
    1.2060   -1.9800    2.6000 C   0  0  0  0  0  0  0  0  0  0  0  0
   -0.1620   -2.1590    2.5190 N   0  0  0  0  0  0  0  0  0  0  0  0
    2.0180   -2.8270    2.2370 O   0  0  0  0  0  0  0  0  0  0  0  0
   -0.7440   -1.3240    2.5800 H   0  0  0  0  0  0  0  0  0  0  0  0
   -0.7400   -3.3520    1.9100 C   0  0  0  0  0  3  0  0  0  0  0  0
   -2.1800   -3.5490    2.3880 C   0  0  0  0  0  2  0  0  0  0  0  0
   -0.6360   -3.3130    0.3720 C   0  0  0  0  0  2  0  0  0  0  0  0
   -3.1500   -2.5050    1.8280 C   0  0  0  0  0  2  0  0  0  0  0  0
   -1.9740   -3.0940   -0.3360 C   0  0  0  0  0  2  0  0  0  0  0  0
   -2.8320   -2.0750    0.3960 C   0  0  0  0  0  2  0  0  0  0  0  0
    1.8250    0.5930    1.8690 S   0  0  0  0  0  0  0  0  0  0  0  0
    0.1850    1.0550    1.6130 C   0  0  0  0  0  0  0  0  0  0  0  0
   -0.8680    0.6670    2.3170 N   0  0  0  0  0  0  0  0  0  0  0  0
   -0.2320    1.9040    0.6460 N   0  0  0  0  0  0  0  0  0  0  0  0
   -2.0050    1.2830    1.7880 N   0  0  0  0  0  0  0  0  0  0  0  0
    0.2160    2.7190   -0.3810 C   0  0  0  0  0  0  0  0  0  0  0  0
   -1.5950    1.9950    0.7720 C   0  0  0  0  0  0  0  0  0  0  0  0
    1.4730    2.9630   -0.8780 C   0  0  0  0  0  3  0  0  0  0  0  0
   -0.9630    3.3370   -0.8640 C   0  0  0  0  0  0  0  0  0  0  0  0
   -2.0850    2.8240   -0.1810 N   0  0  0  0  0  0  0  0  0  0  0  0
    1.5360    3.8690   -1.9400 C   0  0  0  0  0  3  0  0  0  0  0  0
   -0.9000    4.2070   -1.9250 C   0  0  0  0  0  3  0  0  0  0  0  0
    0.3690    4.4800   -2.4570 C   0  0  0  0  0  3  0  0  0  0  0  0
   -2.9550    3.3300   -0.1160 H   0  0  0  0  0  0  0  0  0  0  0  0
  2  1  1  0  0  0  0
  3  5  1  0  0  0  0
  3  2  1  0  0  0  0
  4  2  2  0  0  0  0
  6  7  1  0  0  0  0
  6  3  1  0  0  0  0
  8  6  1  0  0  0  0
  9  7  1  0  0  0  0
 10  8  1  0  0  0  0
 10 11  1  0  0  0  0
 11  9  1  0  0  0  0
 12  1  1  0  0  0  0
 13 12  1  0  0  0  0
 13 14  2  0  0  0  0
 15 18  1  0  0  0  0
 15 13  1  0  0  0  0
 16 14  1  0  0  0  0
 17 15  1  0  0  0  0
 18 16  2  0  0  0  0
 19 17  2  0  0  0  0
 20 17  1  0  0  0  0
 20 21  1  0  0  0  0
 21 25  1  0  0  0  0
 21 18  1  0  0  0  0
 22 19  1  0  0  0  0
 23 20  2  0  0  0  0
 24 22  2  0  0  0  0
 24 23  1  0  0  0  0
M  END
>  <REMARK>
 SMILES O=C(CSc1nnc2[nH]c3ccccc3n12)NC1CCCCC1
 SMILES IDX 3 1 2 2 17 3 1 4 18 6 19 7 23 8 20 9 22 10 21 11 4 12 5 13
 SMILES IDX 6 14 16 15 7 16 15 17 8 18 14 19 10 20 9 21 13 22 11 23
 SMILES IDX 12 24
 H PARENT 17 5 9 25

>  <TORSDO>
F 4

$$$$
