REMARK SMILES O=C(C[NH+]1CCC(Nc2ccnc(N3CCCCC3)n2)CC1)Nc1ccccc1
REMARK SMILES IDX 4 1 5 2 6 3 7 4 21 5 22 6 3 8 2 9 23 10 1 11 24 13 25 14
REMARK SMILES IDX 29 15 26 16 28 17 27 18 8 19 9 21 10 22 20 23 11 24 13 25
REMARK SMILES IDX 12 26 14 27 15 28 19 29 16 30 18 31 17 32
REMARK H PARENT 4 7 23 12 8 20
ROOT
ATOM      1  N   UNL     1      -0.772  -1.507   2.344  1.00  0.00    -0.327 N 
ATOM      2  C   UNL     1      -0.666  -0.609   1.132  1.00  0.00     0.264 C 
ATOM      3  C   UNL     1      -1.908  -0.790   0.276  1.00  0.00     0.086 C 
ATOM      4  C   UNL     1      -2.082  -2.248  -0.180  1.00  0.00     0.091 C 
ATOM      5  C   UNL     1      -2.081  -3.168   1.052  1.00  0.00     0.086 C 
ATOM      6  C   UNL     1      -0.851  -2.959   1.929  1.00  0.00     0.264 C 
ATOM      7  H   UNL     1      -1.653  -1.282   2.821  1.00  0.00     0.348 HD
ENDROOT
BRANCH   1   8
ATOM      8  C   UNL     1       0.333  -1.230   3.375  1.00  0.00     0.363 C 
BRANCH   8   9
ATOM      9  C   UNL     1       1.776  -1.345   2.858  1.00  0.00     0.279 C 
ATOM     10  N   UNL     1       2.627  -0.387   3.382  1.00  0.00    -0.321 N 
ATOM     11  O   UNL     1       2.070  -2.218   2.048  1.00  0.00    -0.268 OA
ATOM     12  H   UNL     1       2.268   0.264   4.072  1.00  0.00     0.170 HD
BRANCH  10  13
ATOM     13  C   UNL     1       3.993  -0.199   3.069  1.00  0.00     0.041 A 
ATOM     14  C   UNL     1       4.654   0.858   3.712  1.00  0.00     0.026 A 
ATOM     15  C   UNL     1       4.708  -0.986   2.163  1.00  0.00     0.026 A 
ATOM     16  C   UNL     1       6.001   1.123   3.452  1.00  0.00     0.002 A 
ATOM     17  C   UNL     1       6.058  -0.723   1.907  1.00  0.00     0.002 A 
ATOM     18  C   UNL     1       6.704   0.331   2.549  1.00  0.00     0.000 A 
ENDBRANCH  10  13
ENDBRANCH   8   9
ENDBRANCH   1   8
BRANCH   4  19
ATOM     19  N   UNL     1      -0.998  -2.663  -1.081  1.00  0.00    -0.367 N 
ATOM     20  H   UNL     1      -0.970  -3.678  -1.208  1.00  0.00     0.162 HD
BRANCH  19  21
ATOM     21  C   UNL     1      -1.061  -2.139  -2.398  1.00  0.00     0.131 A 
ATOM     22  C   UNL     1      -0.075  -2.512  -3.283  1.00  0.00     0.067 A 
ATOM     23  N   UNL     1      -2.039  -1.291  -2.746  1.00  0.00    -0.196 NA
ATOM     24  C   UNL     1      -0.168  -1.982  -4.542  1.00  0.00     0.119 A 
ATOM     25  C   UNL     1      -2.076  -0.817  -4.005  1.00  0.00     0.227 A 
ATOM     26  N   UNL     1      -1.150  -1.148  -4.916  1.00  0.00    -0.221 NA
BRANCH  25  27
ATOM     27  N   UNL     1      -3.122   0.019  -4.379  1.00  0.00    -0.341 N 
ATOM     28  C   UNL     1      -3.831   0.721  -3.313  1.00  0.00     0.119 C 
ATOM     29  C   UNL     1      -2.933   0.801  -5.603  1.00  0.00     0.119 C 
ATOM     30  C   UNL     1      -3.076   1.998  -2.934  1.00  0.00     0.022 C 
ATOM     31  C   UNL     1      -2.155   2.083  -5.291  1.00  0.00     0.022 C 
ATOM     32  C   UNL     1      -2.823   2.874  -4.163  1.00  0.00     0.004 C 
ENDBRANCH  25  27
ENDBRANCH  19  21
ENDBRANCH   4  19
TORSDOF 6
