REMARK SMILES O=C(CSc1nnc2[nH]c3ccccc3n12)NCC1CCCCC1
REMARK SMILES IDX 3 1 2 2 17 3 1 4 18 6 19 7 20 8 24 9 21 10 23 11 22 12 4 13
REMARK SMILES IDX 5 14 6 15 16 16 7 17 15 18 8 19 14 20 10 21 9 22 13 23 11 24
REMARK SMILES IDX 12 25
REMARK H PARENT 17 5 9 26
ROOT
ATOM      1  C   UNL     1      -1.613  -2.173   2.621  1.00  0.00     0.178 C 
ENDROOT
BRANCH   1   2
ATOM      2  C   UNL     1      -1.455  -3.072   1.407  1.00  0.00     0.230 C 
ATOM      3  N   UNL     1      -0.339  -2.804   0.638  1.00  0.00    -0.355 N 
ATOM      4  O   UNL     1      -2.257  -3.966   1.145  1.00  0.00    -0.274 OA
ATOM      5  H   UNL     1       0.027  -1.856   0.708  1.00  0.00     0.163 HD
BRANCH   3   6
ATOM      6  C   UNL     1      -0.113  -3.510  -0.606  1.00  0.00     0.119 C 
BRANCH   6   7
ATOM      7  C   UNL     1       1.321  -3.376  -1.139  1.00  0.00     0.008 C 
ATOM      8  C   UNL     1       2.363  -3.870  -0.123  1.00  0.00     0.005 C 
ATOM      9  C   UNL     1       1.645  -1.944  -1.597  1.00  0.00     0.005 C 
ATOM     10  C   UNL     1       3.784  -3.758  -0.672  1.00  0.00     0.000 C 
ATOM     11  C   UNL     1       3.063  -1.845  -2.155  1.00  0.00     0.000 C 
ATOM     12  C   UNL     1       4.097  -2.342  -1.148  1.00  0.00     0.000 C 
ENDBRANCH   6   7
ENDBRANCH   3   6
ENDBRANCH   1   2
BRANCH   1  13
ATOM     13  S   UNL     1      -2.742  -0.797   2.260  1.00  0.00    -0.076 SA
BRANCH  13  14
ATOM     14  C   UNL     1      -1.746   0.201   1.270  1.00  0.00     0.197 A 
ATOM     15  N   UNL     1      -0.459   0.030   1.010  1.00  0.00    -0.121 NA
ATOM     16  N   UNL     1      -2.171   1.314   0.629  1.00  0.00    -0.254 N 
ATOM     17  N   UNL     1      -0.040   1.054   0.157  1.00  0.00    -0.110 NA
ATOM     18  C   UNL     1      -3.267   2.143   0.457  1.00  0.00     0.075 A 
ATOM     19  C   UNL     1      -1.093   1.793  -0.073  1.00  0.00     0.234 A 
ATOM     20  C   UNL     1      -4.548   2.085   0.950  1.00  0.00     0.029 A 
ATOM     21  C   UNL     1      -2.784   3.178  -0.379  1.00  0.00     0.065 A 
ATOM     22  N   UNL     1      -1.453   2.907  -0.754  1.00  0.00    -0.322 N 
ATOM     23  C   UNL     1      -5.392   3.126   0.560  1.00  0.00     0.002 A 
ATOM     24  C   UNL     1      -3.626   4.185  -0.784  1.00  0.00     0.028 A 
ATOM     25  C   UNL     1      -4.940   4.159  -0.295  1.00  0.00     0.002 A 
ATOM     26  H   UNL     1      -0.818   3.634  -1.047  1.00  0.00     0.170 HD
ENDBRANCH  13  14
ENDBRANCH   1  13
TORSDOF 5
