REMARK SMILES Cc1nc(CNC(=O)c2cnn(C3CCCCC3)c2C)nc2ccccc12
REMARK SMILES IDX 6 1 7 2 8 3 5 5 4 6 2 7 3 8 27 9 26 10 22 11 21 12 25 13
REMARK SMILES IDX 23 14 24 15 1 16 9 17 10 18 19 19 11 20 12 21 20 22 13 23
REMARK SMILES IDX 14 24 18 25 15 26 17 27 16 28
REMARK H PARENT 6 4
ROOT
ATOM      1  N   UNL     1      -1.908   0.848   1.437  1.00  0.00    -0.345 N 
ATOM      2  C   UNL     1      -1.699  -0.030   0.396  1.00  0.00     0.255 C 
ATOM      3  O   UNL     1      -2.005  -1.216   0.459  1.00  0.00    -0.269 OA
ATOM      4  H   UNL     1      -1.340   1.684   1.450  1.00  0.00     0.164 HD
ENDROOT
BRANCH   1   5
ATOM      5  C   UNL     1      -2.256   0.344   2.758  1.00  0.00     0.193 C 
BRANCH   5   6
ATOM      6  C   UNL     1      -1.032   0.114   3.625  1.00  0.00     0.148 A 
ATOM      7  C   UNL     1       0.030  -1.074   5.281  1.00  0.00     0.049 A 
ATOM      8  N   UNL     1      -1.066  -0.895   4.511  1.00  0.00    -0.236 NA
ATOM      9  C   UNL     1       1.159  -0.248   5.198  1.00  0.00     0.022 A 
ATOM     10  C   UNL     1       2.335  -0.387   5.978  1.00  0.00     0.012 A 
ATOM     11  C   UNL     1       1.072   0.787   4.256  1.00  0.00     0.074 A 
ATOM     12  N   UNL     1      -0.004   0.978   3.484  1.00  0.00    -0.231 NA
ATOM     13  C   UNL     1       3.403   0.493   5.821  1.00  0.00     0.001 A 
ATOM     14  C   UNL     1       2.151   1.651   4.119  1.00  0.00     0.029 A 
ATOM     15  C   UNL     1       3.310   1.516   4.888  1.00  0.00     0.002 A 
ATOM     16  C   UNL     1      -0.038  -2.230   6.239  1.00  0.00     0.067 C 
ENDBRANCH   5   6
ENDBRANCH   1   5
BRANCH   2  17
ATOM     17  C   UNL     1      -1.076   0.561  -0.782  1.00  0.00     0.080 A 
ATOM     18  C   UNL     1      -0.958   1.923  -1.140  1.00  0.00     0.149 A 
ATOM     19  C   UNL     1      -0.465  -0.113  -1.835  1.00  0.00     0.048 A 
ATOM     20  N   UNL     1      -0.331   2.107  -2.301  1.00  0.00    -0.180 NA
ATOM     21  N   UNL     1      -0.072   0.856  -2.730  1.00  0.00    -0.266 N 
ATOM     22  C   UNL     1      -0.238  -1.567  -2.052  1.00  0.00     0.067 C 
BRANCH  21  23
ATOM     23  C   UNL     1       0.585   0.668  -4.023  1.00  0.00     0.107 C 
ATOM     24  C   UNL     1       2.103   0.896  -3.912  1.00  0.00     0.027 C 
ATOM     25  C   UNL     1      -0.033   1.526  -5.137  1.00  0.00     0.027 C 
ATOM     26  C   UNL     1       2.755   1.304  -5.236  1.00  0.00     0.002 C 
ATOM     27  C   UNL     1       0.568   1.189  -6.504  1.00  0.00     0.002 C 
ATOM     28  C   UNL     1       2.022   0.719  -6.436  1.00  0.00     0.000 C 
ENDBRANCH  21  23
ENDBRANCH   2  17
TORSDOF 4
