REMARK SMILES Cn1c(COc2ccccc2C(=O)Nc2ccccc2)nnc1C1CCC1
REMARK SMILES IDX 5 1 4 2 3 3 2 4 23 5 21 6 22 7 1 8 24 9 25 10 27 11 26 12
REMARK SMILES IDX 6 13 7 14 11 15 8 16 10 17 9 18 12 19 14 20 13 21 15 23
REMARK SMILES IDX 16 24 20 25 17 26 19 27 18 28
REMARK H PARENT 14 22
ROOT
ATOM      1  O   UNL     1       0.588   1.466  -0.487  1.00  0.00    -0.485 OA
ENDROOT
BRANCH   1   2
ATOM      2  C   UNL     1       1.973   1.475  -0.862  1.00  0.00     0.307 C 
BRANCH   2   3
ATOM      3  C   UNL     1       2.667   0.275  -0.324  1.00  0.00     0.170 A 
ATOM      4  N   UNL     1       2.249  -1.031  -0.460  1.00  0.00    -0.315 N 
ATOM      5  C   UNL     1       3.164  -1.790   0.225  1.00  0.00     0.135 A 
ATOM      6  N   UNL     1       3.792   0.292   0.360  1.00  0.00    -0.132 NA
ATOM      7  N   UNL     1       4.100  -0.995   0.702  1.00  0.00    -0.135 NA
ATOM      8  C   UNL     1       1.073  -1.475  -1.162  1.00  0.00     0.153 C 
BRANCH   5   9
ATOM      9  C   UNL     1       3.225  -3.324   0.486  1.00  0.00     0.058 C 
ATOM     10  C   UNL     1       3.364  -4.235  -0.752  1.00  0.00     0.012 C 
ATOM     11  C   UNL     1       1.913  -4.067   0.812  1.00  0.00     0.012 C 
ATOM     12  C   UNL     1       2.461  -5.249  -0.017  1.00  0.00     0.001 C 
ENDBRANCH   5   9
ENDBRANCH   2   3
ENDBRANCH   1   2
BRANCH   1  13
ATOM     13  C   UNL     1       0.243   1.652   0.828  1.00  0.00     0.132 A 
ATOM     14  C   UNL     1       1.076   2.277   1.765  1.00  0.00     0.047 A 
ATOM     15  C   UNL     1      -1.024   1.186   1.239  1.00  0.00     0.082 A 
ATOM     16  C   UNL     1       0.665   2.428   3.093  1.00  0.00     0.004 A 
ATOM     17  C   UNL     1      -1.418   1.337   2.580  1.00  0.00     0.018 A 
ATOM     18  C   UNL     1      -0.578   1.958   3.502  1.00  0.00     0.001 A 
BRANCH  15  19
ATOM     19  C   UNL     1      -1.984   0.473   0.333  1.00  0.00     0.259 C 
ATOM     20  N   UNL     1      -1.889   0.788  -1.009  1.00  0.00    -0.322 N 
ATOM     21  O   UNL     1      -2.776  -0.319   0.832  1.00  0.00    -0.269 OA
ATOM     22  H   UNL     1      -1.181   1.475  -1.248  1.00  0.00     0.170 HD
BRANCH  20  23
ATOM     23  C   UNL     1      -2.618   0.248  -2.085  1.00  0.00     0.041 A 
ATOM     24  C   UNL     1      -2.310   0.725  -3.366  1.00  0.00     0.026 A 
ATOM     25  C   UNL     1      -3.607  -0.727  -1.949  1.00  0.00     0.026 A 
ATOM     26  C   UNL     1      -2.979   0.233  -4.491  1.00  0.00     0.002 A 
ATOM     27  C   UNL     1      -4.276  -1.219  -3.074  1.00  0.00     0.002 A 
ATOM     28  C   UNL     1      -3.962  -0.741  -4.344  1.00  0.00     0.000 A 
ENDBRANCH  20  23
ENDBRANCH  15  19
ENDBRANCH   1  13
TORSDOF 6
