REMARK SMILES O=C(Nc1ncn(C2CCCCC2)n1)c1cccc(-c2ncn[nH]2)c1
REMARK SMILES IDX 15 1 16 2 17 3 18 4 19 5 25 6 2 7 3 8 1 9 4 11 5 12 14 13
REMARK SMILES IDX 6 14 7 15 8 16 9 17 13 18 10 19 12 20 11 21 20 22 21 23
REMARK SMILES IDX 24 24 22 25 23 26
REMARK H PARENT 3 10 24 27
ROOT
ATOM      1  C   UNL     1      -0.315   3.654   0.317  1.00  0.00     0.040 A 
ATOM      2  C   UNL     1      -0.943   4.888   0.109  1.00  0.00     0.014 A 
ATOM      3  C   UNL     1      -0.324   5.868  -0.665  1.00  0.00     0.002 A 
ATOM      4  C   UNL     1       0.931   5.626  -1.229  1.00  0.00     0.012 A 
ATOM      5  C   UNL     1       1.588   4.405  -1.016  1.00  0.00     0.019 A 
ATOM      6  C   UNL     1       0.952   3.424  -0.235  1.00  0.00     0.025 A 
ENDROOT
BRANCH   1   7
ATOM      7  C   UNL     1      -1.017   2.634   1.150  1.00  0.00     0.258 C 
ATOM      8  N   UNL     1      -0.754   1.331   0.810  1.00  0.00    -0.289 N 
ATOM      9  O   UNL     1      -1.774   3.035   2.026  1.00  0.00    -0.269 OA
ATOM     10  H   UNL     1      -0.192   1.091   0.009  1.00  0.00     0.173 HD
BRANCH   8  11
ATOM     11  C   UNL     1      -1.268   0.235   1.440  1.00  0.00     0.248 A 
ATOM     12  N   UNL     1      -2.074   0.270   2.538  1.00  0.00    -0.200 NA
ATOM     13  N   UNL     1      -0.986  -0.994   0.996  1.00  0.00    -0.132 NA
ATOM     14  C   UNL     1      -2.309  -0.995   2.790  1.00  0.00     0.222 A 
ATOM     15  N   UNL     1      -1.662  -1.761   1.873  1.00  0.00    -0.248 N 
BRANCH  15  16
ATOM     16  C   UNL     1      -1.652  -3.214   1.784  1.00  0.00     0.109 C 
ATOM     17  C   UNL     1      -2.434  -3.698   0.549  1.00  0.00     0.027 C 
ATOM     18  C   UNL     1      -0.227  -3.797   1.867  1.00  0.00     0.027 C 
ATOM     19  C   UNL     1      -2.040  -5.118   0.165  1.00  0.00     0.002 C 
ATOM     20  C   UNL     1       0.322  -4.181   0.496  1.00  0.00     0.002 C 
ATOM     21  C   UNL     1      -0.559  -5.218  -0.204  1.00  0.00     0.000 C 
ENDBRANCH  15  16
ENDBRANCH   8  11
ENDBRANCH   1   7
BRANCH   5  22
ATOM     22  C   UNL     1       2.908   4.111  -1.579  1.00  0.00     0.155 A 
ATOM     23  N   UNL     1       3.516   2.939  -1.591  1.00  0.00    -0.215 NA
ATOM     24  N   UNL     1       3.739   5.021  -2.179  1.00  0.00    -0.259 N 
ATOM     25  C   UNL     1       4.702   3.192  -2.216  1.00  0.00     0.246 A 
ATOM     26  N   UNL     1       4.882   4.456  -2.598  1.00  0.00    -0.162 NA
ATOM     27  H   UNL     1       3.598   6.013  -2.325  1.00  0.00     0.192 HD
ENDBRANCH   5  22
TORSDOF 4
