REMARK SMILES O=C(Nc1ncn(C2CCCCC2)n1)c1cccc2cn[nH]c12
REMARK SMILES IDX 1 1 2 2 3 3 15 5 16 6 23 7 17 8 22 9 19 10 18 11 21 12 20 13
REMARK SMILES IDX 4 15 5 16 14 17 6 18 7 19 8 20 9 21 13 22 10 23 12 24 11 25
REMARK H PARENT 3 4 22 14
ROOT
ATOM      1  O   UNL     1      -1.771   2.912  -1.730  1.00  0.00    -0.269 OA
ATOM      2  C   UNL     1      -1.998   1.820  -1.226  1.00  0.00     0.260 C 
ATOM      3  N   UNL     1      -1.101   0.915  -0.721  1.00  0.00    -0.289 N 
ATOM      4  H   UNL     1      -1.402   0.134  -0.161  1.00  0.00     0.173 HD
ENDROOT
BRANCH   2   5
ATOM      5  C   UNL     1      -3.408   1.395  -1.092  1.00  0.00     0.065 A 
ATOM      6  C   UNL     1      -4.373   2.302  -0.630  1.00  0.00     0.016 A 
ATOM      7  C   UNL     1      -3.839   0.106  -1.438  1.00  0.00     0.078 A 
ATOM      8  C   UNL     1      -5.705   1.914  -0.479  1.00  0.00     0.002 A 
ATOM      9  N   UNL     1      -3.193  -0.970  -1.991  1.00  0.00    -0.277 N 
ATOM     10  C   UNL     1      -5.162  -0.299  -1.291  1.00  0.00     0.020 A 
ATOM     11  C   UNL     1      -6.113   0.613  -0.797  1.00  0.00     0.012 A 
ATOM     12  N   UNL     1      -3.968  -2.060  -2.135  1.00  0.00    -0.183 NA
ATOM     13  C   UNL     1      -5.170  -1.642  -1.729  1.00  0.00     0.143 A 
ATOM     14  H   UNL     1      -2.225  -1.027  -2.292  1.00  0.00     0.190 HD
ENDBRANCH   2   5
BRANCH   3  15
ATOM     15  C   UNL     1       0.256   1.028  -0.801  1.00  0.00     0.248 A 
ATOM     16  N   UNL     1       0.918   1.999  -1.487  1.00  0.00    -0.200 NA
ATOM     17  N   UNL     1       1.044   0.118  -0.222  1.00  0.00    -0.132 NA
ATOM     18  C   UNL     1       2.181   1.698  -1.302  1.00  0.00     0.222 A 
ATOM     19  N   UNL     1       2.269   0.575  -0.539  1.00  0.00    -0.248 N 
BRANCH  19  20
ATOM     20  C   UNL     1       3.489  -0.094  -0.107  1.00  0.00     0.109 C 
ATOM     21  C   UNL     1       3.709  -1.435  -0.826  1.00  0.00     0.027 C 
ATOM     22  C   UNL     1       3.603  -0.217   1.422  1.00  0.00     0.027 C 
ATOM     23  C   UNL     1       2.929  -2.596  -0.212  1.00  0.00     0.002 C 
ATOM     24  C   UNL     1       2.841  -1.406   2.009  1.00  0.00     0.002 C 
ATOM     25  C   UNL     1       3.174  -2.707   1.288  1.00  0.00     0.000 C 
ENDBRANCH  19  20
ENDBRANCH   3  15
TORSDOF 3
