REMARK SMILES Cc1noc(-c2ccccc2)c1C(=O)Nc1cc(CC2CCCCC2)n[nH]1
REMARK SMILES IDX 16 1 17 2 18 3 26 4 27 5 15 7 13 8 14 9 12 11 2 12 3 13 4 14
REMARK SMILES IDX 5 15 1 16 6 17 7 18 11 19 8 20 10 21 9 22 19 23 20 24 21 25
REMARK SMILES IDX 25 26 22 27 24 28 23 29
REMARK H PARENT 27 6 15 10
ROOT
ATOM      1  C   UNL     1       0.023   0.906  -0.904  1.00  0.00     0.128 A 
ATOM      2  C   UNL     1       1.012   0.011  -0.576  1.00  0.00     0.072 A 
ATOM      3  C   UNL     1       2.013   0.785   0.063  1.00  0.00     0.065 A 
ATOM      4  N   UNL     1       1.676   2.079   0.120  1.00  0.00    -0.179 NA
ATOM      5  N   UNL     1       0.469   2.128  -0.469  1.00  0.00    -0.263 N 
ATOM      6  H   UNL     1      -0.013   3.019  -0.555  1.00  0.00     0.192 HD
ENDROOT
BRANCH   1   7
ATOM      7  N   UNL     1      -1.185   0.686  -1.535  1.00  0.00    -0.307 N 
ATOM      8  C   UNL     1      -2.078   1.712  -1.801  1.00  0.00     0.262 C 
ATOM      9  O   UNL     1      -1.848   2.893  -1.546  1.00  0.00    -0.269 OA
ATOM     10  H   UNL     1      -1.393  -0.262  -1.825  1.00  0.00     0.171 HD
BRANCH   8  11
ATOM     11  C   UNL     1      -3.311   1.311  -2.449  1.00  0.00     0.110 A 
ATOM     12  C   UNL     1      -4.131   2.110  -3.299  1.00  0.00     0.094 A 
ATOM     13  N   UNL     1      -5.181   1.423  -3.761  1.00  0.00    -0.084 NA
ATOM     14  O   UNL     1      -5.088   0.171  -3.187  1.00  0.00    -0.355 OA
ATOM     15  C   UNL     1      -3.985   0.106  -2.391  1.00  0.00     0.179 A 
ATOM     16  C   UNL     1      -3.935   3.523  -3.703  1.00  0.00     0.071 C 
BRANCH  15  17
ATOM     17  C   UNL     1      -3.821  -1.155  -1.686  1.00  0.00     0.021 A 
ATOM     18  C   UNL     1      -3.536  -1.178  -0.313  1.00  0.00     0.012 A 
ATOM     19  C   UNL     1      -3.925  -2.369  -2.376  1.00  0.00     0.012 A 
ATOM     20  C   UNL     1      -3.341  -2.392   0.351  1.00  0.00     0.001 A 
ATOM     21  C   UNL     1      -3.732  -3.583  -1.710  1.00  0.00     0.001 A 
ATOM     22  C   UNL     1      -3.437  -3.592  -0.348  1.00  0.00     0.000 A 
ENDBRANCH  15  17
ENDBRANCH   8  11
ENDBRANCH   1   7
BRANCH   3  23
ATOM     23  C   UNL     1       3.325   0.324   0.617  1.00  0.00     0.061 C 
BRANCH  23  24
ATOM     24  C   UNL     1       3.293   0.091   2.144  1.00  0.00    -0.005 C 
ATOM     25  C   UNL     1       4.715   0.100   2.727  1.00  0.00     0.004 C 
ATOM     26  C   UNL     1       2.542  -1.206   2.525  1.00  0.00     0.004 C 
ATOM     27  C   UNL     1       5.545  -1.115   2.316  1.00  0.00     0.000 C 
ATOM     28  C   UNL     1       3.445  -2.316   3.065  1.00  0.00     0.000 C 
ATOM     29  C   UNL     1       4.743  -2.415   2.277  1.00  0.00     0.000 C 
ENDBRANCH  23  24
ENDBRANCH   3  23
TORSDOF 5
