REMARK SMILES O=C(Nc1cccnc1)N(Cc1cccs1)CC1CCCO1
REMARK SMILES IDX 10 1 2 2 3 3 1 4 4 6 5 7 9 8 6 9 8 10 7 11 11 12 12 13 13 14
REMARK SMILES IDX 16 15 14 16 15 17 17 18 18 19 19 20 22 21 20 22 21 23
REMARK H PARENT 3 5
ROOT
ATOM      1  N   UNL     1       1.613   0.383   0.077  1.00  0.00    -0.317 N 
ENDROOT
BRANCH   1   2
ATOM      2  C   UNL     1       1.027   0.994  -1.034  1.00  0.00     0.322 C 
ATOM      3  N   UNL     1      -0.048   1.802  -0.746  1.00  0.00    -0.306 N 
ATOM      4  O   UNL     1       1.452   0.792  -2.170  1.00  0.00    -0.248 OA
ATOM      5  H   UNL     1      -0.532   1.578   0.112  1.00  0.00     0.171 HD
BRANCH   3   6
ATOM      6  C   UNL     1      -0.736   2.655  -1.634  1.00  0.00     0.061 A 
ATOM      7  C   UNL     1      -0.263   3.028  -2.889  1.00  0.00     0.029 A 
ATOM      8  C   UNL     1      -1.957   3.196  -1.234  1.00  0.00     0.137 A 
ATOM      9  C   UNL     1      -1.015   3.893  -3.685  1.00  0.00     0.022 A 
ATOM     10  N   UNL     1      -2.711   4.040  -1.980  1.00  0.00    -0.263 NA
ATOM     11  C   UNL     1      -2.220   4.366  -3.193  1.00  0.00     0.111 A 
ENDBRANCH   3   6
ENDBRANCH   1   2
BRANCH   1  12
ATOM     12  C   UNL     1       1.398   0.809   1.463  1.00  0.00     0.168 C 
BRANCH  12  13
ATOM     13  C   UNL     1       0.359  -0.023   2.153  1.00  0.00     0.024 A 
ATOM     14  C   UNL     1       0.556  -1.087   3.012  1.00  0.00     0.017 A 
ATOM     15  S   UNL     1      -1.311   0.339   1.995  1.00  0.00    -0.147 S 
ATOM     16  C   UNL     1      -0.665  -1.617   3.520  1.00  0.00     0.012 A 
ATOM     17  C   UNL     1      -1.760  -0.934   3.041  1.00  0.00     0.065 A 
ENDBRANCH  12  13
ENDBRANCH   1  12
BRANCH   1  18
ATOM     18  C   UNL     1       2.706  -0.568  -0.178  1.00  0.00     0.153 C 
BRANCH  18  19
ATOM     19  C   UNL     1       2.290  -2.022  -0.454  1.00  0.00     0.137 C 
ATOM     20  C   UNL     1       1.103  -2.261  -1.370  1.00  0.00     0.036 C 
ATOM     21  O   UNL     1       1.990  -2.728   0.768  1.00  0.00    -0.376 OA
ATOM     22  C   UNL     1       0.751  -3.686  -1.020  1.00  0.00     0.031 C 
ATOM     23  C   UNL     1       0.976  -3.705   0.477  1.00  0.00     0.160 C 
ENDBRANCH  18  19
ENDBRANCH   1  18
TORSDOF 6
