REMARK SMILES O=C(NCc1ccno1)c1ccccc1OC1CCCCC1
REMARK SMILES IDX 10 1 11 2 12 3 13 4 14 5 15 6 2 7 3 8 1 9 4 11 5 12 6 13
REMARK SMILES IDX 9 14 7 15 8 16 16 17 17 18 18 19 22 20 19 21 21 22 20 23
REMARK H PARENT 3 10
ROOT
ATOM      1  C   UNL     1      -1.120   3.181  -0.718  1.00  0.00     0.081 A 
ATOM      2  C   UNL     1      -1.436   4.214  -1.622  1.00  0.00     0.018 A 
ATOM      3  C   UNL     1      -1.631   3.945  -2.974  1.00  0.00     0.001 A 
ATOM      4  C   UNL     1      -1.514   2.641  -3.435  1.00  0.00     0.004 A 
ATOM      5  C   UNL     1      -1.208   1.604  -2.548  1.00  0.00     0.047 A 
ATOM      6  C   UNL     1      -1.012   1.850  -1.185  1.00  0.00     0.132 A 
ENDROOT
BRANCH   1   7
ATOM      7  C   UNL     1      -0.928   3.604   0.711  1.00  0.00     0.255 C 
ATOM      8  N   UNL     1      -0.354   2.697   1.569  1.00  0.00    -0.345 N 
ATOM      9  O   UNL     1      -1.267   4.724   1.082  1.00  0.00    -0.269 OA
ATOM     10  H   UNL     1      -0.277   1.740   1.241  1.00  0.00     0.164 HD
BRANCH   8  11
ATOM     11  C   UNL     1      -0.316   2.933   2.991  1.00  0.00     0.194 C 
BRANCH  11  12
ATOM     12  C   UNL     1       0.606   1.955   3.603  1.00  0.00     0.155 A 
ATOM     13  C   UNL     1       1.929   1.987   3.971  1.00  0.00     0.071 A 
ATOM     14  O   UNL     1       0.095   0.721   3.872  1.00  0.00    -0.360 OA
ATOM     15  C   UNL     1       2.173   0.698   4.475  1.00  0.00     0.158 A 
ATOM     16  N   UNL     1       1.086  -0.077   4.421  1.00  0.00    -0.088 NA
ENDBRANCH  11  12
ENDBRANCH   8  11
ENDBRANCH   1   7
BRANCH   6  17
ATOM     17  O   UNL     1      -0.727   0.891  -0.257  1.00  0.00    -0.490 OA
BRANCH  17  18
ATOM     18  C   UNL     1      -0.631  -0.514  -0.507  1.00  0.00     0.173 C 
ATOM     19  C   UNL     1       0.587  -0.916  -1.346  1.00  0.00     0.045 C 
ATOM     20  C   UNL     1      -1.950  -1.171  -0.931  1.00  0.00     0.045 C 
ATOM     21  C   UNL     1       0.685  -2.432  -1.500  1.00  0.00     0.004 C 
ATOM     22  C   UNL     1      -1.795  -2.682  -1.092  1.00  0.00     0.004 C 
ATOM     23  C   UNL     1      -0.623  -3.036  -2.004  1.00  0.00     0.000 C 
ENDBRANCH  17  18
ENDBRANCH   6  17
TORSDOF 5
