REMARK SMILES O=C(Nc1n[nH]c(C2CCC2)n1)c1ccccc1OCc1ccc(F)cc1
REMARK SMILES IDX 13 1 14 2 15 3 16 4 17 5 18 6 2 7 3 8 1 9 4 11 5 12 12 13
REMARK SMILES IDX 6 14 7 15 8 17 9 18 11 19 10 20 19 21 20 22 21 23 22 24
REMARK SMILES IDX 27 25 23 26 26 27 24 28 25 29
REMARK H PARENT 3 10 6 16
ROOT
ATOM      1  C   UNL     1      -4.135   1.391   0.939  1.00  0.00     0.082 A 
ATOM      2  C   UNL     1      -5.420   1.626   1.463  1.00  0.00     0.018 A 
ATOM      3  C   UNL     1      -6.549   1.614   0.643  1.00  0.00     0.001 A 
ATOM      4  C   UNL     1      -6.409   1.371  -0.718  1.00  0.00     0.004 A 
ATOM      5  C   UNL     1      -5.145   1.136  -1.260  1.00  0.00     0.047 A 
ATOM      6  C   UNL     1      -4.004   1.131  -0.443  1.00  0.00     0.132 A 
ENDROOT
BRANCH   1   7
ATOM      7  C   UNL     1      -2.993   1.418   1.927  1.00  0.00     0.261 C 
ATOM      8  N   UNL     1      -1.743   1.197   1.411  1.00  0.00    -0.289 N 
ATOM      9  O   UNL     1      -3.256   1.625   3.109  1.00  0.00    -0.269 OA
ATOM     10  H   UNL     1      -1.621   1.052   0.418  1.00  0.00     0.173 HD
BRANCH   8  11
ATOM     11  C   UNL     1      -0.574   1.141   2.109  1.00  0.00     0.249 A 
ATOM     12  N   UNL     1      -0.378   1.295   3.419  1.00  0.00    -0.135 NA
ATOM     13  N   UNL     1       0.568   0.885   1.395  1.00  0.00    -0.197 NA
ATOM     14  N   UNL     1       0.946   1.136   3.525  1.00  0.00    -0.261 N 
ATOM     15  C   UNL     1       1.510   0.887   2.311  1.00  0.00     0.129 A 
ATOM     16  H   UNL     1       1.383   1.206   4.437  1.00  0.00     0.192 HD
BRANCH  15  17
ATOM     17  C   UNL     1       3.016   0.636   2.055  1.00  0.00     0.057 C 
ATOM     18  C   UNL     1       3.547   1.099   0.675  1.00  0.00     0.011 C 
ATOM     19  C   UNL     1       3.364  -0.806   1.611  1.00  0.00     0.011 C 
ATOM     20  C   UNL     1       4.407  -0.182   0.660  1.00  0.00     0.001 C 
ENDBRANCH  15  17
ENDBRANCH   8  11
ENDBRANCH   1   7
BRANCH   6  21
ATOM     21  O   UNL     1      -2.745   0.926  -0.944  1.00  0.00    -0.488 OA
BRANCH  21  22
ATOM     22  C   UNL     1      -2.628   0.168  -2.149  1.00  0.00     0.265 C 
BRANCH  22  23
ATOM     23  C   UNL     1      -1.180  -0.238  -2.266  1.00  0.00    -0.011 A 
ATOM     24  C   UNL     1      -0.677  -1.287  -1.479  1.00  0.00     0.010 A 
ATOM     25  C   UNL     1      -0.305   0.459  -3.115  1.00  0.00     0.010 A 
ATOM     26  C   UNL     1       0.671  -1.640  -1.550  1.00  0.00     0.039 A 
ATOM     27  C   UNL     1       1.043   0.103  -3.184  1.00  0.00     0.039 A 
ATOM     28  C   UNL     1       1.518  -0.942  -2.401  1.00  0.00     0.123 A 
ATOM     29  F   UNL     1       2.814  -1.277  -2.464  1.00  0.00    -0.207 F 
ENDBRANCH  22  23
ENDBRANCH  21  22
ENDBRANCH   6  21
TORSDOF 6
