REMARK SMILES CC(Oc1ccccc1)c1nc(N)nc(Nc2ccccc2)n1
REMARK SMILES IDX 10 1 11 2 12 3 14 4 15 5 23 6 2 7 1 8 3 9 4 10 5 11 9 12
REMARK SMILES IDX 6 13 8 14 7 15 13 16 16 19 17 21 18 22 22 23 19 24 21 25
REMARK SMILES IDX 20 26
REMARK H PARENT 13 17 13 18 16 20
ROOT
ATOM      1  C   UNL     1       1.619  -0.476  -1.159  1.00  0.00     0.176 A 
ATOM      2  N   UNL     1       2.069  -1.351  -2.060  1.00  0.00    -0.194 NA
ATOM      3  C   UNL     1       1.812  -2.617  -1.781  1.00  0.00     0.225 A 
ATOM      4  N   UNL     1       1.195  -3.051  -0.694  1.00  0.00    -0.177 NA
ATOM      5  C   UNL     1       0.782  -2.114   0.155  1.00  0.00     0.232 A 
ATOM      6  N   UNL     1       0.991  -0.818  -0.033  1.00  0.00    -0.193 NA
ENDROOT
BRANCH   1   7
ATOM      7  C   UNL     1       1.874   0.999  -1.429  1.00  0.00     0.238 C 
ATOM      8  C   UNL     1       2.974   1.500  -0.494  1.00  0.00     0.062 C 
BRANCH   7   9
ATOM      9  O   UNL     1       0.718   1.818  -1.187  1.00  0.00    -0.483 OA
BRANCH   9  10
ATOM     10  C   UNL     1      -0.282   1.842  -2.118  1.00  0.00     0.120 A 
ATOM     11  C   UNL     1      -1.354   2.676  -1.787  1.00  0.00     0.046 A 
ATOM     12  C   UNL     1      -0.319   1.133  -3.319  1.00  0.00     0.046 A 
ATOM     13  C   UNL     1      -2.451   2.803  -2.642  1.00  0.00     0.004 A 
ATOM     14  C   UNL     1      -1.418   1.259  -4.176  1.00  0.00     0.004 A 
ATOM     15  C   UNL     1      -2.482   2.093  -3.839  1.00  0.00     0.000 A 
ENDBRANCH   9  10
ENDBRANCH   7   9
ENDBRANCH   1   7
BRANCH   3  16
ATOM     16  N   UNL     1       2.261  -3.564  -2.679  1.00  0.00    -0.368 N 
ATOM     17  H   UNL     1       2.388  -4.456  -2.221  1.00  0.00     0.159 HD
ATOM     18  H   UNL     1       3.035  -3.204  -3.219  1.00  0.00     0.159 HD
ENDBRANCH   3  16
BRANCH   5  19
ATOM     19  N   UNL     1       0.130  -2.592   1.290  1.00  0.00    -0.324 N 
ATOM     20  H   UNL     1       0.057  -3.597   1.232  1.00  0.00     0.170 HD
BRANCH  19  21
ATOM     21  C   UNL     1      -0.562  -1.976   2.340  1.00  0.00     0.041 A 
ATOM     22  C   UNL     1      -0.762  -0.596   2.443  1.00  0.00     0.026 A 
ATOM     23  C   UNL     1      -1.040  -2.782   3.388  1.00  0.00     0.026 A 
ATOM     24  C   UNL     1      -1.434  -0.039   3.537  1.00  0.00     0.002 A 
ATOM     25  C   UNL     1      -1.712  -2.231   4.484  1.00  0.00     0.002 A 
ATOM     26  C   UNL     1      -1.911  -0.857   4.557  1.00  0.00     0.000 A 
ENDBRANCH  19  21
ENDBRANCH   5  19
TORSDOF 6
