REMARK SMILES COc1ccccc1C(=O)NCC(=O)N1CCC(COc2ccccc2)CC1
REMARK SMILES IDX 12 1 11 2 9 3 10 4 8 6 3 7 4 8 5 9 7 10 6 11 2 12 1 13 13 14
REMARK SMILES IDX 15 15 16 16 28 17 17 18 27 19 18 20 14 21 19 22 20 23 21 24
REMARK SMILES IDX 22 25 26 26 23 27 25 28 24 29
REMARK H PARENT 11 5
ROOT
ATOM      1  C   UNL     1      -0.288   0.317   3.100  1.00  0.00     0.216 C 
ENDROOT
BRANCH   1   2
ATOM      2  N   UNL     1      -0.489  -0.805   2.205  1.00  0.00    -0.343 N 
ATOM      3  C   UNL     1      -0.277  -2.094   2.619  1.00  0.00     0.255 C 
ATOM      4  O   UNL     1       0.156  -2.371   3.732  1.00  0.00    -0.269 OA
ATOM      5  H   UNL     1      -0.824  -0.639   1.262  1.00  0.00     0.164 HD
BRANCH   3   6
ATOM      6  C   UNL     1      -0.624  -3.178   1.656  1.00  0.00     0.081 A 
ATOM      7  C   UNL     1      -0.674  -3.008   0.265  1.00  0.00     0.131 A 
ATOM      8  C   UNL     1      -1.067  -4.077  -0.549  1.00  0.00     0.047 A 
ATOM      9  C   UNL     1      -1.369  -5.322   0.006  1.00  0.00     0.004 A 
ATOM     10  C   UNL     1      -0.900  -4.444   2.200  1.00  0.00     0.018 A 
ATOM     11  C   UNL     1      -1.277  -5.507   1.385  1.00  0.00     0.001 A 
BRANCH   7  12
ATOM     12  O   UNL     1      -0.408  -1.783  -0.301  1.00  0.00    -0.496 OA
ATOM     13  C   UNL     1       0.726  -1.845  -1.167  1.00  0.00     0.278 C 
ENDBRANCH   7  12
ENDBRANCH   3   6
ENDBRANCH   1   2
BRANCH   1  14
ATOM     14  C   UNL     1      -0.675   1.646   2.451  1.00  0.00     0.241 C 
ATOM     15  N   UNL     1       0.274   2.275   1.631  1.00  0.00    -0.341 N 
ATOM     16  C   UNL     1       1.316   1.505   0.951  1.00  0.00     0.120 C 
ATOM     17  C   UNL     1      -0.214   3.456   0.918  1.00  0.00     0.120 C 
ATOM     18  C   UNL     1       2.441   2.377   0.394  1.00  0.00     0.028 C 
ATOM     19  C   UNL     1       0.905   4.338   0.365  1.00  0.00     0.028 C 
ATOM     20  C   UNL     1       1.961   3.569  -0.442  1.00  0.00     0.030 C 
ATOM     21  O   UNL     1      -1.810   2.097   2.611  1.00  0.00    -0.273 OA
BRANCH  20  22
ATOM     22  C   UNL     1       1.486   3.182  -1.855  1.00  0.00     0.233 C 
BRANCH  22  23
ATOM     23  O   UNL     1       0.393   2.274  -1.788  1.00  0.00    -0.493 OA
BRANCH  23  24
ATOM     24  C   UNL     1      -0.342   2.082  -2.918  1.00  0.00     0.119 A 
ATOM     25  C   UNL     1      -1.611   1.545  -2.700  1.00  0.00     0.046 A 
ATOM     26  C   UNL     1       0.080   2.358  -4.217  1.00  0.00     0.046 A 
ATOM     27  C   UNL     1      -2.479   1.324  -3.768  1.00  0.00     0.004 A 
ATOM     28  C   UNL     1      -0.783   2.121  -5.290  1.00  0.00     0.004 A 
ATOM     29  C   UNL     1      -2.065   1.611  -5.066  1.00  0.00     0.000 A 
ENDBRANCH  23  24
ENDBRANCH  22  23
ENDBRANCH  20  22
ENDBRANCH   1  14
TORSDOF 7
