REMARK SMILES CCCc1[nH]ncc1C(=O)N1CCCC(C(=O)Nc2ccccc2)C1
REMARK SMILES IDX 4 1 5 2 6 3 7 4 8 5 3 7 2 8 1 9 9 10 10 11 11 12 12 13 25 14
REMARK SMILES IDX 13 15 15 16 14 17 16 18 18 19 17 20 19 22 20 23 24 24 21 25
REMARK SMILES IDX 23 26 22 27
REMARK H PARENT 5 6 18 21
ROOT
ATOM      1  C   UNL     1      -1.425   0.685  -2.972  1.00  0.00     0.048 A 
ATOM      2  N   UNL     1      -2.504   0.117  -3.597  1.00  0.00    -0.282 N 
ATOM      3  N   UNL     1      -2.189  -0.925  -4.380  1.00  0.00    -0.183 NA
ATOM      4  C   UNL     1      -0.862  -1.013  -4.270  1.00  0.00     0.149 A 
ATOM      5  C   UNL     1      -0.329  -0.070  -3.366  1.00  0.00     0.080 A 
ATOM      6  H   UNL     1      -3.478   0.402  -3.552  1.00  0.00     0.190 HD
ENDROOT
BRANCH   1   7
ATOM      7  C   UNL     1      -1.556   1.897  -2.113  1.00  0.00     0.056 C 
BRANCH   7   8
ATOM      8  C   UNL     1      -1.054   3.170  -2.798  1.00  0.00     0.003 C 
ATOM      9  C   UNL     1      -1.923   3.605  -3.970  1.00  0.00     0.004 C 
ENDBRANCH   7   8
ENDBRANCH   1   7
BRANCH   5  10
ATOM     10  C   UNL     1       1.067   0.118  -3.019  1.00  0.00     0.257 C 
ATOM     11  O   UNL     1       1.886   0.404  -3.887  1.00  0.00    -0.269 OA
BRANCH  10  12
ATOM     12  N   UNL     1       1.416  -0.042  -1.670  1.00  0.00    -0.338 N 
ATOM     13  C   UNL     1       2.820   0.131  -1.316  1.00  0.00     0.120 C 
ATOM     14  C   UNL     1       0.616  -0.879  -0.764  1.00  0.00     0.133 C 
ATOM     15  C   UNL     1       2.982   0.730   0.081  1.00  0.00     0.022 C 
ATOM     16  C   UNL     1       1.230  -1.012   0.633  1.00  0.00     0.098 C 
ATOM     17  C   UNL     1       1.894   0.296   1.067  1.00  0.00     0.017 C 
BRANCH  16  18
ATOM     18  C   UNL     1       0.191  -1.517   1.631  1.00  0.00     0.229 C 
ATOM     19  N   UNL     1      -0.816  -0.613   1.916  1.00  0.00    -0.326 N 
ATOM     20  O   UNL     1       0.292  -2.654   2.082  1.00  0.00    -0.274 OA
ATOM     21  H   UNL     1      -0.763   0.297   1.478  1.00  0.00     0.169 HD
BRANCH  19  22
ATOM     22  C   UNL     1      -1.925  -0.799   2.770  1.00  0.00     0.041 A 
ATOM     23  C   UNL     1      -2.189  -1.979   3.466  1.00  0.00     0.026 A 
ATOM     24  C   UNL     1      -2.808   0.281   2.912  1.00  0.00     0.026 A 
ATOM     25  C   UNL     1      -3.316  -2.079   4.290  1.00  0.00     0.002 A 
ATOM     26  C   UNL     1      -3.933   0.181   3.735  1.00  0.00     0.002 A 
ATOM     27  C   UNL     1      -4.187  -1.001   4.424  1.00  0.00     0.000 A 
ENDBRANCH  19  22
ENDBRANCH  16  18
ENDBRANCH  10  12
ENDBRANCH   5  10
TORSDOF 6
