REMARK SMILES c1ccc(NC2CCCN(c3nccc(NC4CCCOC4)n3)C2)cc1
REMARK SMILES IDX 6 1 7 2 8 3 9 4 10 5 24 6 5 7 4 9 1 10 2 11 26 12 3 13 25 14
REMARK SMILES IDX 11 15 12 16 23 17 13 18 15 19 14 20 16 21 17 23 18 24 22 25
REMARK SMILES IDX 19 26 21 27 20 28
REMARK H PARENT 5 8 16 22
ROOT
ATOM      1  C   UNL     1      -0.724  -0.103   1.926  1.00  0.00     0.098 C 
ATOM      2  C   UNL     1      -1.482   0.345   3.189  1.00  0.00     0.028 C 
ATOM      3  C   UNL     1      -2.185   1.694   2.996  1.00  0.00     0.024 C 
ATOM      4  C   UNL     1      -1.297   2.681   2.236  1.00  0.00     0.120 C 
ATOM      5  N   UNL     1      -0.910   2.147   0.927  1.00  0.00    -0.339 N 
ATOM      6  C   UNL     1      -1.115   0.715   0.677  1.00  0.00     0.144 C 
ENDROOT
BRANCH   1   7
ATOM      7  N   UNL     1      -0.752  -1.563   1.738  1.00  0.00    -0.381 N 
ATOM      8  H   UNL     1       0.131  -1.896   1.353  1.00  0.00     0.160 HD
BRANCH   7   9
ATOM      9  C   UNL     1      -1.827  -2.283   1.223  1.00  0.00     0.034 A 
ATOM     10  C   UNL     1      -3.923  -3.933   0.268  1.00  0.00     0.000 A 
ATOM     11  C   UNL     1      -2.612  -4.394   0.257  1.00  0.00     0.002 A 
ATOM     12  C   UNL     1      -4.197  -2.669   0.778  1.00  0.00     0.002 A 
ATOM     13  C   UNL     1      -1.582  -3.580   0.743  1.00  0.00     0.025 A 
ATOM     14  C   UNL     1      -3.160  -1.862   1.263  1.00  0.00     0.025 A 
ENDBRANCH   7   9
ENDBRANCH   1   7
BRANCH   5  15
ATOM     15  C   UNL     1       0.207   2.749   0.358  1.00  0.00     0.227 A 
ATOM     16  N   UNL     1       0.537   3.991   0.745  1.00  0.00    -0.221 NA
ATOM     17  N   UNL     1       0.913   2.076  -0.564  1.00  0.00    -0.196 NA
ATOM     18  C   UNL     1       1.617   4.550   0.178  1.00  0.00     0.119 A 
ATOM     19  C   UNL     1       1.983   2.655  -1.128  1.00  0.00     0.131 A 
ATOM     20  C   UNL     1       2.384   3.921  -0.768  1.00  0.00     0.067 A 
BRANCH  19  21
ATOM     21  N   UNL     1       2.759   1.959  -2.079  1.00  0.00    -0.365 N 
ATOM     22  H   UNL     1       2.852   2.563  -2.893  1.00  0.00     0.162 HD
BRANCH  21  23
ATOM     23  C   UNL     1       2.262   0.618  -2.451  1.00  0.00     0.106 C 
ATOM     24  C   UNL     1       2.613  -0.422  -1.367  1.00  0.00     0.029 C 
ATOM     25  C   UNL     1       2.881   0.205  -3.808  1.00  0.00     0.184 C 
ATOM     26  C   UNL     1       3.949  -1.091  -1.663  1.00  0.00     0.031 C 
ATOM     27  O   UNL     1       2.978  -1.211  -3.932  1.00  0.00    -0.379 OA
ATOM     28  C   UNL     1       3.936  -1.770  -3.031  1.00  0.00     0.160 C 
ENDBRANCH  21  23
ENDBRANCH  19  21
ENDBRANCH   5  15
TORSDOF 5
