REMARK SMILES COc1ccc(C(=O)NC(C)c2nc(C3CCCC3)no2)c(OCC2CC2)c1
REMARK SMILES IDX 3 1 4 2 5 3 6 4 22 5 28 6 2 7 1 8 23 9 24 10 25 11 26 12
REMARK SMILES IDX 27 13 7 14 9 15 8 16 10 18 11 19 12 20 13 21 21 22 14 23
REMARK SMILES IDX 20 24 15 25 16 26 19 27 17 28 18 29
REMARK H PARENT 9 17
ROOT
ATOM      1  C   UNL     1      -3.415  -1.288  -3.666  1.00  0.00     0.122 A 
ATOM      2  C   UNL     1      -2.817  -2.527  -3.859  1.00  0.00     0.047 A 
ATOM      3  C   UNL     1      -1.520  -2.749  -3.391  1.00  0.00     0.021 A 
ATOM      4  C   UNL     1      -0.800  -1.738  -2.727  1.00  0.00     0.082 A 
ATOM      5  C   UNL     1      -1.389  -0.473  -2.557  1.00  0.00     0.135 A 
ATOM      6  C   UNL     1      -2.702  -0.273  -3.016  1.00  0.00     0.093 A 
ENDROOT
BRANCH   1   7
ATOM      7  O   UNL     1      -4.677  -0.934  -4.059  1.00  0.00    -0.497 OA
ATOM      8  C   UNL     1      -5.447  -1.928  -4.725  1.00  0.00     0.278 C 
ENDBRANCH   1   7
BRANCH   5   9
ATOM      9  O   UNL     1      -0.653   0.511  -1.941  1.00  0.00    -0.492 OA
BRANCH   9  10
ATOM     10  C   UNL     1      -1.093   1.861  -2.140  1.00  0.00     0.233 C 
BRANCH  10  11
ATOM     11  C   UNL     1      -0.057   2.848  -1.682  1.00  0.00     0.027 C 
ATOM     12  C   UNL     1       1.419   2.557  -1.773  1.00  0.00     0.007 C 
ATOM     13  C   UNL     1       0.747   2.631  -0.427  1.00  0.00     0.007 C 
ENDBRANCH  10  11
ENDBRANCH   9  10
ENDBRANCH   5   9
BRANCH   4  14
ATOM     14  C   UNL     1       0.567  -2.117  -2.253  1.00  0.00     0.255 C 
ATOM     15  N   UNL     1       1.111  -1.388  -1.227  1.00  0.00    -0.340 N 
ATOM     16  O   UNL     1       1.147  -3.079  -2.750  1.00  0.00    -0.269 OA
ATOM     17  H   UNL     1       0.631  -0.552  -0.902  1.00  0.00     0.164 HD
BRANCH  15  18
ATOM     18  C   UNL     1       2.420  -1.699  -0.671  1.00  0.00     0.169 C 
ATOM     19  C   UNL     1       3.534  -1.092  -1.521  1.00  0.00     0.041 C 
BRANCH  18  20
ATOM     20  C   UNL     1       2.491  -1.194   0.731  1.00  0.00     0.248 A 
ATOM     21  N   UNL     1       1.807  -0.238   1.324  1.00  0.00    -0.194 NA
ATOM     22  O   UNL     1       3.407  -1.790   1.550  1.00  0.00    -0.337 OA
ATOM     23  C   UNL     1       2.339  -0.244   2.588  1.00  0.00     0.175 A 
ATOM     24  N   UNL     1       3.305  -1.152   2.787  1.00  0.00    -0.062 NA
BRANCH  23  25
ATOM     25  C   UNL     1       1.873   0.699   3.636  1.00  0.00     0.061 C 
ATOM     26  C   UNL     1       1.323   0.026   4.894  1.00  0.00     0.012 C 
ATOM     27  C   UNL     1       2.966   1.610   4.190  1.00  0.00     0.012 C 
ATOM     28  C   UNL     1       1.431   1.082   5.994  1.00  0.00     0.001 C 
ATOM     29  C   UNL     1       2.330   2.189   5.446  1.00  0.00     0.001 C 
ENDBRANCH  23  25
ENDBRANCH  18  20
ENDBRANCH  15  18
ENDBRANCH   4  14
TORSDOF 8
