REMARK SMILES CCOc1ccccc1C(=O)NCC(=O)N1CCCCC1c1nc(-c2ccccc2)c[nH]1
REMARK SMILES IDX 10 1 11 2 12 3 9 5 4 6 5 7 6 8 8 9 7 10 3 11 2 12 1 13 13 14
REMARK SMILES IDX 14 15 15 16 16 17 17 18 21 19 18 20 20 21 19 22 22 23 23 24
REMARK SMILES IDX 32 25 24 26 31 27 25 29 26 30 30 31 27 32 29 33 28 34
REMARK H PARENT 12 4 32 28
ROOT
ATOM      1  C   UNL     1       0.016   0.684  -2.646  1.00  0.00     0.255 C 
ATOM      2  O   UNL     1      -0.041   1.631  -3.428  1.00  0.00    -0.269 OA
ATOM      3  N   UNL     1       1.140   0.421  -1.896  1.00  0.00    -0.343 N 
ATOM      4  H   UNL     1       1.115  -0.398  -1.295  1.00  0.00     0.164 HD
ENDROOT
BRANCH   1   5
ATOM      5  C   UNL     1      -1.172  -0.205  -2.447  1.00  0.00     0.081 A 
ATOM      6  C   UNL     1      -1.112  -1.502  -1.898  1.00  0.00     0.132 A 
ATOM      7  C   UNL     1      -2.301  -2.235  -1.761  1.00  0.00     0.047 A 
ATOM      8  C   UNL     1      -3.526  -1.699  -2.167  1.00  0.00     0.004 A 
ATOM      9  C   UNL     1      -2.411   0.317  -2.859  1.00  0.00     0.018 A 
ATOM     10  C   UNL     1      -3.582  -0.425  -2.719  1.00  0.00     0.001 A 
BRANCH   6  11
ATOM     11  O   UNL     1       0.121  -1.981  -1.532  1.00  0.00    -0.493 OA
BRANCH  11  12
ATOM     12  C   UNL     1       0.201  -3.318  -1.042  1.00  0.00     0.226 C 
ATOM     13  C   UNL     1       1.660  -3.611  -0.741  1.00  0.00     0.049 C 
ENDBRANCH  11  12
ENDBRANCH   6  11
ENDBRANCH   1   5
BRANCH   3  14
ATOM     14  C   UNL     1       2.379   1.145  -2.071  1.00  0.00     0.216 C 
BRANCH  14  15
ATOM     15  C   UNL     1       2.958   2.106  -1.004  1.00  0.00     0.242 C 
ATOM     16  O   UNL     1       4.143   2.450  -1.148  1.00  0.00    -0.273 OA
BRANCH  15  17
ATOM     17  N   UNL     1       2.219   2.619   0.057  1.00  0.00    -0.331 N 
ATOM     18  C   UNL     1       2.860   3.660   0.871  1.00  0.00     0.120 C 
ATOM     19  C   UNL     1       0.772   2.424   0.257  1.00  0.00     0.151 C 
ATOM     20  C   UNL     1       2.311   3.730   2.290  1.00  0.00     0.022 C 
ATOM     21  C   UNL     1       0.123   3.606   0.996  1.00  0.00     0.033 C 
ATOM     22  C   UNL     1       0.798   3.930   2.327  1.00  0.00     0.004 C 
BRANCH  19  23
ATOM     23  C   UNL     1       0.523   1.131   0.995  1.00  0.00     0.129 A 
ATOM     24  N   UNL     1      -0.630   0.506   1.130  1.00  0.00    -0.231 NA
ATOM     25  N   UNL     1       1.520   0.422   1.621  1.00  0.00    -0.346 N 
ATOM     26  C   UNL     1      -0.372  -0.633   1.863  1.00  0.00     0.088 A 
ATOM     27  C   UNL     1       0.968  -0.697   2.176  1.00  0.00     0.113 A 
ATOM     28  H   UNL     1       2.493   0.697   1.644  1.00  0.00     0.167 HD
BRANCH  26  29
ATOM     29  C   UNL     1      -1.397  -1.607   2.211  1.00  0.00     0.002 A 
ATOM     30  C   UNL     1      -2.709  -1.421   1.752  1.00  0.00     0.010 A 
ATOM     31  C   UNL     1      -1.117  -2.741   2.988  1.00  0.00     0.010 A 
ATOM     32  C   UNL     1      -3.713  -2.347   2.051  1.00  0.00     0.001 A 
ATOM     33  C   UNL     1      -2.121  -3.667   3.290  1.00  0.00     0.001 A 
ATOM     34  C   UNL     1      -3.418  -3.470   2.819  1.00  0.00     0.000 A 
ENDBRANCH  26  29
ENDBRANCH  19  23
ENDBRANCH  15  17
ENDBRANCH  14  15
ENDBRANCH   3  14
TORSDOF 8
