REMARK SMILES O=C(Nc1cccc(OCC2CCCO2)c1)c1c[nH]nc1C1CC1
REMARK SMILES IDX 4 1 5 2 6 3 7 4 8 5 16 6 3 7 2 8 1 9 17 11 18 12 21 13 19 14
REMARK SMILES IDX 20 15 22 17 23 18 24 19 9 20 10 21 11 22 12 23 15 24 13 25
REMARK SMILES IDX 14 26
REMARK H PARENT 3 10 19 16
ROOT
ATOM      1  C   UNL     1      -1.653   0.355   0.991  1.00  0.00     0.045 A 
ATOM      2  C   UNL     1      -1.540  -1.021   1.229  1.00  0.00     0.026 A 
ATOM      3  C   UNL     1      -0.897  -1.853   0.311  1.00  0.00     0.006 A 
ATOM      4  C   UNL     1      -0.369  -1.319  -0.864  1.00  0.00     0.046 A 
ATOM      5  C   UNL     1      -0.496   0.043  -1.124  1.00  0.00     0.121 A 
ATOM      6  C   UNL     1      -1.120   0.878  -0.189  1.00  0.00     0.072 A 
ENDROOT
BRANCH   1   7
ATOM      7  N   UNL     1      -2.308   1.121   1.979  1.00  0.00    -0.322 N 
ATOM      8  C   UNL     1      -2.528   2.488   1.990  1.00  0.00     0.259 C 
ATOM      9  O   UNL     1      -2.159   3.272   1.123  1.00  0.00    -0.269 OA
ATOM     10  H   UNL     1      -2.623   0.608   2.788  1.00  0.00     0.170 HD
BRANCH   8  11
ATOM     11  C   UNL     1      -3.261   2.960   3.165  1.00  0.00     0.081 A 
ATOM     12  C   UNL     1      -3.979   2.227   4.098  1.00  0.00     0.119 A 
ATOM     13  C   UNL     1      -3.428   4.298   3.611  1.00  0.00     0.078 A 
ATOM     14  N   UNL     1      -4.498   3.126   4.987  1.00  0.00    -0.285 N 
ATOM     15  N   UNL     1      -4.178   4.395   4.712  1.00  0.00    -0.180 NA
ATOM     16  H   UNL     1      -5.083   2.945   5.797  1.00  0.00     0.189 HD
BRANCH  13  17
ATOM     17  C   UNL     1      -2.817   5.547   2.915  1.00  0.00     0.041 C 
ATOM     18  C   UNL     1      -1.357   5.857   3.133  1.00  0.00     0.011 C 
ATOM     19  C   UNL     1      -2.406   6.743   3.737  1.00  0.00     0.011 C 
ENDBRANCH  13  17
ENDBRANCH   8  11
ENDBRANCH   1   7
BRANCH   5  20
ATOM     20  O   UNL     1       0.017   0.669  -2.226  1.00  0.00    -0.491 OA
BRANCH  20  21
ATOM     21  C   UNL     1      -0.071  -0.037  -3.471  1.00  0.00     0.261 C 
BRANCH  21  22
ATOM     22  C   UNL     1       1.329  -0.361  -3.994  1.00  0.00     0.156 C 
ATOM     23  C   UNL     1       1.345  -0.703  -5.475  1.00  0.00     0.038 C 
ATOM     24  O   UNL     1       1.880  -1.523  -3.337  1.00  0.00    -0.375 OA
ATOM     25  C   UNL     1       2.625  -1.492  -5.590  1.00  0.00     0.031 C 
ATOM     26  C   UNL     1       2.626  -2.284  -4.299  1.00  0.00     0.161 C 
ENDBRANCH  21  22
ENDBRANCH  20  21
ENDBRANCH   5  20
TORSDOF 6
