REMARK SMILES Cc1nc(CC2CC2)sc1C(=O)Nc1cccc2[nH]cnc12
REMARK SMILES IDX 1 1 2 2 3 3 4 4 9 5 10 6 11 7 13 8 12 9 14 11 15 12 22 13
REMARK SMILES IDX 16 14 21 15 18 16 17 17 20 18 19 19 5 21 6 22 7 23 8 24
REMARK H PARENT 13 10 19 20
ROOT
ATOM      1  C   UNL     1       0.250   0.540  -2.099  1.00  0.00     0.068 C 
ATOM      2  C   UNL     1      -0.379   1.475  -1.126  1.00  0.00     0.061 A 
ATOM      3  N   UNL     1      -0.448   2.813  -1.490  1.00  0.00    -0.246 NA
ATOM      4  C   UNL     1      -1.078   3.507  -0.567  1.00  0.00     0.094 A 
ATOM      5  S   UNL     1      -1.624   2.603   0.784  1.00  0.00    -0.113 S 
ATOM      6  C   UNL     1      -0.938   1.178   0.110  1.00  0.00     0.115 A 
ENDROOT
BRANCH   6   7
ATOM      7  C   UNL     1      -1.043  -0.071   0.847  1.00  0.00     0.267 C 
ATOM      8  N   UNL     1       0.056  -0.894   0.702  1.00  0.00    -0.319 N 
ATOM      9  O   UNL     1      -2.014  -0.343   1.547  1.00  0.00    -0.268 OA
ATOM     10  H   UNL     1       0.865  -0.538   0.203  1.00  0.00     0.170 HD
BRANCH   8  11
ATOM     11  C   UNL     1       0.262  -2.182   1.235  1.00  0.00     0.069 A 
ATOM     12  C   UNL     1      -0.661  -2.907   1.998  1.00  0.00     0.028 A 
ATOM     13  C   UNL     1       1.507  -2.786   0.959  1.00  0.00     0.112 A 
ATOM     14  C   UNL     1      -0.351  -4.187   2.476  1.00  0.00     0.004 A 
ATOM     15  N   UNL     1       2.572  -2.293   0.231  1.00  0.00    -0.235 NA
ATOM     16  C   UNL     1       1.786  -4.057   1.448  1.00  0.00     0.067 A 
ATOM     17  C   UNL     1       0.883  -4.794   2.213  1.00  0.00     0.028 A 
ATOM     18  C   UNL     1       3.483  -3.239   0.278  1.00  0.00     0.197 A 
ATOM     19  N   UNL     1       3.056  -4.320   0.999  1.00  0.00    -0.345 N 
ATOM     20  H   UNL     1       3.583  -5.163   1.170  1.00  0.00     0.168 HD
ENDBRANCH   8  11
ENDBRANCH   6   7
BRANCH   4  21
ATOM     21  C   UNL     1      -1.334   4.985  -0.647  1.00  0.00     0.071 C 
BRANCH  21  22
ATOM     22  C   UNL     1      -0.335   5.834   0.095  1.00  0.00    -0.004 C 
ATOM     23  C   UNL     1      -0.057   7.247  -0.351  1.00  0.00     0.004 C 
ATOM     24  C   UNL     1       0.990   6.183  -0.534  1.00  0.00     0.004 C 
ENDBRANCH  21  22
ENDBRANCH   4  21
TORSDOF 4
