REMARK SMILES Cc1nc(Nc2ccc(Nc3ncccn3)cc2)c2cc[nH]c2n1
REMARK SMILES IDX 6 1 7 2 8 3 9 4 17 5 18 6 5 7 4 9 2 10 3 11 24 12 23 13
REMARK SMILES IDX 19 14 22 15 20 16 21 17 1 18 10 20 11 22 12 23 16 24 13 25
REMARK SMILES IDX 15 26 14 27
REMARK H PARENT 5 8 22 19 10 21
ROOT
ATOM      1  C   UNL     1      -0.432  -0.527   1.134  1.00  0.00     0.040 A 
ATOM      2  C   UNL     1      -0.218   0.156  -0.064  1.00  0.00     0.028 A 
ATOM      3  C   UNL     1      -1.282   0.762  -0.750  1.00  0.00     0.028 A 
ATOM      4  C   UNL     1      -2.587   0.714  -0.257  1.00  0.00     0.041 A 
ATOM      5  C   UNL     1      -2.791   0.045   0.959  1.00  0.00     0.028 A 
ATOM      6  C   UNL     1      -1.731  -0.559   1.647  1.00  0.00     0.028 A 
ENDROOT
BRANCH   1   7
ATOM      7  N   UNL     1       0.601  -1.127   1.882  1.00  0.00    -0.340 N 
ATOM      8  H   UNL     1       0.725  -0.647   2.770  1.00  0.00     0.168 HD
BRANCH   7   9
ATOM      9  C   UNL     1       1.884  -1.495   1.448  1.00  0.00     0.143 A 
ATOM     10  C   UNL     1       4.178  -1.520   1.916  1.00  0.00     0.130 A 
ATOM     11  N   UNL     1       2.917  -1.177   2.268  1.00  0.00    -0.215 NA
ATOM     12  N   UNL     1       4.552  -2.167   0.796  1.00  0.00    -0.215 NA
ATOM     13  C   UNL     1       3.502  -2.493   0.031  1.00  0.00     0.143 A 
ATOM     14  C   UNL     1       2.168  -2.210   0.274  1.00  0.00     0.061 A 
ATOM     15  N   UNL     1       3.588  -3.182  -1.148  1.00  0.00    -0.346 N 
ATOM     16  C   UNL     1       1.432  -2.786  -0.803  1.00  0.00     0.033 A 
ATOM     17  C   UNL     1       2.333  -3.372  -1.667  1.00  0.00     0.085 A 
ATOM     18  C   UNL     1       5.273  -1.095   2.846  1.00  0.00     0.090 C 
ATOM     19  H   UNL     1       4.458  -3.504  -1.547  1.00  0.00     0.167 HD
ENDBRANCH   7   9
ENDBRANCH   1   7
BRANCH   4  20
ATOM     20  N   UNL     1      -3.686   1.299  -0.890  1.00  0.00    -0.324 N 
ATOM     21  H   UNL     1      -4.587   1.180  -0.453  1.00  0.00     0.170 HD
BRANCH  20  22
ATOM     22  C   UNL     1      -3.857   2.023  -2.067  1.00  0.00     0.227 A 
ATOM     23  N   UNL     1      -2.831   2.328  -2.875  1.00  0.00    -0.221 NA
ATOM     24  N   UNL     1      -5.126   2.389  -2.322  1.00  0.00    -0.221 NA
ATOM     25  C   UNL     1      -3.105   3.034  -3.988  1.00  0.00     0.117 A 
ATOM     26  C   UNL     1      -5.353   3.094  -3.447  1.00  0.00     0.117 A 
ATOM     27  C   UNL     1      -4.366   3.450  -4.330  1.00  0.00     0.040 A 
ENDBRANCH  20  22
ENDBRANCH   4  20
TORSDOF 4
