REMARK SMILES c1ccc(-n2cnnc2C[NH+]2CCCCC2c2nc[nH]n2)cc1
REMARK SMILES IDX 11 1 12 2 13 3 14 4 15 5 16 6 10 8 9 9 5 10 6 11 7 12 8 13
REMARK SMILES IDX 4 14 1 15 2 16 23 17 3 18 22 19 17 20 18 21 21 22 19 23
REMARK SMILES IDX 20 24
REMARK H PARENT 11 7 20 25
ROOT
ATOM      1  N   UNL     1      -0.253   0.724  -2.101  1.00  0.00    -0.320 N 
ATOM      2  C   UNL     1      -1.176   0.663  -3.288  1.00  0.00     0.263 C 
ATOM      3  C   UNL     1      -2.592   1.109  -2.921  1.00  0.00     0.062 C 
ATOM      4  C   UNL     1      -2.971   0.778  -1.482  1.00  0.00     0.012 C 
ATOM      5  C   UNL     1      -1.994   1.385  -0.467  1.00  0.00     0.074 C 
ATOM      6  C   UNL     1      -0.651   1.785  -1.087  1.00  0.00     0.255 C 
ATOM      7  H   UNL     1       0.663   1.053  -2.452  1.00  0.00     0.349 HD
ENDROOT
BRANCH   1   8
ATOM      8  C   UNL     1       0.099  -0.638  -1.511  1.00  0.00     0.342 C 
BRANCH   8   9
ATOM      9  C   UNL     1       1.156  -1.314  -2.310  1.00  0.00     0.192 A 
ATOM     10  N   UNL     1       1.997  -2.337  -1.894  1.00  0.00    -0.281 N 
ATOM     11  C   UNL     1       2.905  -2.447  -2.923  1.00  0.00     0.231 A 
ATOM     12  N   UNL     1       2.619  -1.606  -3.888  1.00  0.00    -0.138 NA
ATOM     13  N   UNL     1       1.523  -0.897  -3.508  1.00  0.00    -0.129 NA
BRANCH  10  14
ATOM     14  C   UNL     1       1.993  -3.103  -0.697  1.00  0.00     0.049 A 
ATOM     15  C   UNL     1       2.041  -4.621   1.665  1.00  0.00     0.000 A 
ATOM     16  C   UNL     1       3.205  -4.455   0.921  1.00  0.00     0.002 A 
ATOM     17  C   UNL     1       0.852  -4.046   1.228  1.00  0.00     0.002 A 
ATOM     18  C   UNL     1       3.184  -3.706  -0.258  1.00  0.00     0.027 A 
ATOM     19  C   UNL     1       0.822  -3.292   0.050  1.00  0.00     0.027 A 
ENDBRANCH  10  14
ENDBRANCH   8   9
ENDBRANCH   1   8
BRANCH   6  20
ATOM     20  C   UNL     1       0.430   2.099  -0.084  1.00  0.00     0.208 A 
ATOM     21  N   UNL     1       0.182   2.601   1.161  1.00  0.00    -0.215 NA
ATOM     22  N   UNL     1       1.728   1.881  -0.356  1.00  0.00    -0.152 NA
ATOM     23  C   UNL     1       1.383   2.748   1.672  1.00  0.00     0.217 A 
ATOM     24  N   UNL     1       2.316   2.336   0.772  1.00  0.00    -0.266 N 
ATOM     25  H   UNL     1       3.329   2.333   0.855  1.00  0.00     0.191 HD
ENDBRANCH   6  20
TORSDOF 4
