REMARK SMILES c1ccc(Oc2ccnc(N3CCC(OCC4CCCCO4)CC3)n2)cc1
REMARK SMILES IDX 11 1 12 2 13 3 14 4 23 5 24 6 10 7 6 8 7 9 25 10 8 11 9 12
REMARK SMILES IDX 5 13 4 14 1 15 2 16 27 17 3 18 26 19 15 20 16 21 17 22 18 23
REMARK SMILES IDX 22 24 19 25 21 26 20 27
REMARK H PARENT
ROOT
ATOM      1  N   UNL     1      -1.047  -1.426  -1.839  1.00  0.00    -0.341 N 
ATOM      2  C   UNL     1      -0.153  -1.548  -2.982  1.00  0.00     0.122 C 
ATOM      3  C   UNL     1       0.611  -0.244  -3.207  1.00  0.00     0.053 C 
ATOM      4  C   UNL     1      -0.298   0.997  -3.143  1.00  0.00     0.121 C 
ATOM      5  C   UNL     1      -1.779   0.613  -3.040  1.00  0.00     0.053 C 
ATOM      6  C   UNL     1      -2.019  -0.330  -1.858  1.00  0.00     0.122 C 
ENDROOT
BRANCH   1   7
ATOM      7  C   UNL     1      -0.533  -1.755  -0.588  1.00  0.00     0.228 A 
ATOM      8  C   UNL     1      -0.728  -1.784   1.700  1.00  0.00     0.224 A 
ATOM      9  C   UNL     1       0.486  -2.401   1.867  1.00  0.00     0.089 A 
ATOM     10  N   UNL     1      -1.244  -1.446   0.506  1.00  0.00    -0.177 NA
ATOM     11  C   UNL     1       1.136  -2.697   0.703  1.00  0.00     0.121 A 
ATOM     12  N   UNL     1       0.649  -2.395  -0.514  1.00  0.00    -0.221 NA
BRANCH   8  13
ATOM     13  O   UNL     1      -1.469  -1.396   2.799  1.00  0.00    -0.439 OA
BRANCH  13  14
ATOM     14  C   UNL     1      -1.933  -2.415   3.600  1.00  0.00     0.129 A 
ATOM     15  C   UNL     1      -2.885  -4.376   5.336  1.00  0.00     0.000 A 
ATOM     16  C   UNL     1      -2.284  -3.226   5.848  1.00  0.00     0.004 A 
ATOM     17  C   UNL     1      -3.025  -4.539   3.957  1.00  0.00     0.004 A 
ATOM     18  C   UNL     1      -1.814  -2.241   4.979  1.00  0.00     0.047 A 
ATOM     19  C   UNL     1      -2.556  -3.555   3.086  1.00  0.00     0.047 A 
ENDBRANCH  13  14
ENDBRANCH   8  13
ENDBRANCH   1   7
BRANCH   4  20
ATOM     20  O   UNL     1       0.122   1.763  -2.006  1.00  0.00    -0.375 OA
BRANCH  20  21
ATOM     21  C   UNL     1      -0.233   3.142  -2.051  1.00  0.00     0.192 C 
BRANCH  21  22
ATOM     22  C   UNL     1       0.285   3.911  -0.816  1.00  0.00     0.144 C 
ATOM     23  C   UNL     1       1.760   3.668  -0.470  1.00  0.00     0.034 C 
ATOM     24  O   UNL     1      -0.557   3.734   0.334  1.00  0.00    -0.376 OA
ATOM     25  C   UNL     1       2.003   2.391   0.327  1.00  0.00     0.005 C 
ATOM     26  C   UNL     1      -0.412   2.473   0.984  1.00  0.00     0.160 C 
ATOM     27  C   UNL     1       1.012   2.270   1.475  1.00  0.00     0.029 C 
ENDBRANCH  21  22
ENDBRANCH  20  21
ENDBRANCH   4  20
TORSDOF 6
