REMARK SMILES O=C(NCc1noc2ccccc12)c1ccccc1OCC1CC1
REMARK SMILES IDX 14 1 15 2 16 3 17 4 18 5 19 6 2 7 3 8 1 9 4 11 5 12 6 13
REMARK SMILES IDX 13 14 7 15 12 16 8 17 11 18 9 19 10 20 20 21 21 22 22 23
REMARK SMILES IDX 23 24 24 25
REMARK H PARENT 3 10
ROOT
ATOM      1  C   UNL     1       2.327  -0.066   1.722  1.00  0.00     0.081 A 
ATOM      2  C   UNL     1       3.511   0.095   2.459  1.00  0.00     0.018 A 
ATOM      3  C   UNL     1       3.499   0.001   3.852  1.00  0.00     0.001 A 
ATOM      4  C   UNL     1       2.304  -0.250   4.523  1.00  0.00     0.004 A 
ATOM      5  C   UNL     1       1.116  -0.396   3.803  1.00  0.00     0.047 A 
ATOM      6  C   UNL     1       1.124  -0.281   2.409  1.00  0.00     0.132 A 
ENDROOT
BRANCH   1   7
ATOM      7  C   UNL     1       2.424   0.054   0.240  1.00  0.00     0.255 C 
ATOM      8  N   UNL     1       1.477  -0.604  -0.506  1.00  0.00    -0.346 N 
ATOM      9  O   UNL     1       3.324   0.712  -0.268  1.00  0.00    -0.269 OA
ATOM     10  H   UNL     1       0.725  -1.094  -0.034  1.00  0.00     0.164 HD
BRANCH   8  11
ATOM     11  C   UNL     1       1.498  -0.544  -1.949  1.00  0.00     0.177 C 
BRANCH  11  12
ATOM     12  C   UNL     1       0.402  -1.377  -2.518  1.00  0.00     0.111 A 
ATOM     13  N   UNL     1       0.554  -2.710  -2.637  1.00  0.00    -0.082 NA
ATOM     14  C   UNL     1      -0.867  -0.952  -3.004  1.00  0.00     0.047 A 
ATOM     15  O   UNL     1      -0.615  -3.174  -3.218  1.00  0.00    -0.356 OA
ATOM     16  C   UNL     1      -1.578   0.255  -3.133  1.00  0.00     0.014 A 
ATOM     17  C   UNL     1      -1.462  -2.128  -3.434  1.00  0.00     0.167 A 
ATOM     18  C   UNL     1      -2.866   0.217  -3.701  1.00  0.00     0.001 A 
ATOM     19  C   UNL     1      -2.730  -2.207  -3.999  1.00  0.00     0.051 A 
ATOM     20  C   UNL     1      -3.429  -0.993  -4.126  1.00  0.00     0.004 A 
ENDBRANCH  11  12
ENDBRANCH   8  11
ENDBRANCH   1   7
BRANCH   6  21
ATOM     21  O   UNL     1      -0.058  -0.418   1.732  1.00  0.00    -0.492 OA
BRANCH  21  22
ATOM     22  C   UNL     1      -0.846   0.777   1.851  1.00  0.00     0.233 C 
BRANCH  22  23
ATOM     23  C   UNL     1      -1.895   0.746   0.785  1.00  0.00     0.027 C 
ATOM     24  C   UNL     1      -3.133  -0.102   0.940  1.00  0.00     0.007 C 
ATOM     25  C   UNL     1      -3.237   1.398   1.003  1.00  0.00     0.007 C 
ENDBRANCH  22  23
ENDBRANCH  21  22
ENDBRANCH   6  21
TORSDOF 6
