REMARK SMILES CC(c1nc(N)nc(Nc2ccccc2)n1)[NH+]1CCN(c2ncccn2)CC1
REMARK SMILES IDX 3 1 4 2 5 3 7 4 8 5 16 6 2 7 1 8 17 9 18 10 28 11 19 12
REMARK SMILES IDX 27 13 20 14 21 16 22 17 26 18 23 19 25 20 24 21 6 22 9 25
REMARK SMILES IDX 10 27 11 28 15 29 12 30 14 31 13 32
REMARK H PARENT 17 15 6 23 6 24 9 26
ROOT
ATOM      1  C   UNL     1       0.948  -1.030  -0.584  1.00  0.00     0.193 A 
ATOM      2  N   UNL     1       1.576  -2.128  -0.166  1.00  0.00    -0.191 NA
ATOM      3  C   UNL     1       0.835  -3.225  -0.174  1.00  0.00     0.225 A 
ATOM      4  N   UNL     1      -0.440  -3.273  -0.522  1.00  0.00    -0.177 NA
ATOM      5  C   UNL     1      -1.006  -2.123  -0.876  1.00  0.00     0.232 A 
ATOM      6  N   UNL     1      -0.341  -0.974  -0.904  1.00  0.00    -0.191 NA
ENDROOT
BRANCH   1   7
ATOM      7  C   UNL     1       1.687   0.302  -0.452  1.00  0.00     0.250 C 
ATOM      8  C   UNL     1       3.031   0.214  -1.181  1.00  0.00     0.084 C 
BRANCH   7   9
ATOM      9  N   UNL     1       1.921   0.692   1.033  1.00  0.00    -0.323 N 
ATOM     10  C   UNL     1       2.651   2.002   1.256  1.00  0.00     0.284 C 
ATOM     11  C   UNL     1       0.621   0.748   1.839  1.00  0.00     0.284 C 
ATOM     12  C   UNL     1       1.819   3.229   0.825  1.00  0.00     0.181 C 
ATOM     13  C   UNL     1      -0.287   1.923   1.415  1.00  0.00     0.181 C 
ATOM     14  N   UNL     1       0.411   2.908   0.583  1.00  0.00    -0.330 N 
ATOM     15  H   UNL     1       2.479  -0.078   1.424  1.00  0.00     0.348 HD
BRANCH  14  16
ATOM     16  C   UNL     1      -0.374   3.974   0.151  1.00  0.00     0.225 A 
ATOM     17  N   UNL     1      -1.709   3.858   0.219  1.00  0.00    -0.221 NA
ATOM     18  N   UNL     1       0.237   5.061  -0.344  1.00  0.00    -0.221 NA
ATOM     19  C   UNL     1      -2.451   4.893  -0.226  1.00  0.00     0.117 A 
ATOM     20  C   UNL     1      -0.542   6.072  -0.780  1.00  0.00     0.117 A 
ATOM     21  C   UNL     1      -1.912   6.041  -0.744  1.00  0.00     0.040 A 
ENDBRANCH  14  16
ENDBRANCH   7   9
ENDBRANCH   1   7
BRANCH   3  22
ATOM     22  N   UNL     1       1.431  -4.397   0.228  1.00  0.00    -0.368 N 
ATOM     23  H   UNL     1       0.915  -5.204  -0.102  1.00  0.00     0.159 HD
ATOM     24  H   UNL     1       2.427  -4.404   0.059  1.00  0.00     0.159 HD
ENDBRANCH   3  22
BRANCH   5  25
ATOM     25  N   UNL     1      -2.361  -2.184  -1.177  1.00  0.00    -0.324 N 
ATOM     26  H   UNL     1      -2.689  -3.138  -1.097  1.00  0.00     0.170 HD
BRANCH  25  27
ATOM     27  C   UNL     1      -3.328  -1.227  -1.514  1.00  0.00     0.041 A 
ATOM     28  C   UNL     1      -4.657  -1.651  -1.684  1.00  0.00     0.026 A 
ATOM     29  C   UNL     1      -3.058   0.136  -1.686  1.00  0.00     0.026 A 
ATOM     30  C   UNL     1      -5.675  -0.750  -2.010  1.00  0.00     0.002 A 
ATOM     31  C   UNL     1      -4.073   1.042  -2.015  1.00  0.00     0.002 A 
ATOM     32  C   UNL     1      -5.382   0.599  -2.176  1.00  0.00     0.000 A 
ENDBRANCH  25  27
ENDBRANCH   5  25
TORSDOF 6
