REMARK SMILES COC(=O)C1CCCC[NH+]1Cc1nc2ccccc2c(=O)[nH]1
REMARK SMILES IDX 5 1 6 2 7 3 8 4 9 5 10 6 3 8 4 9 2 10 1 11 11 12 12 13 13 14
REMARK SMILES IDX 22 15 14 16 20 17 15 18 19 19 16 20 18 21 17 22 21 24
REMARK H PARENT 10 7 22 23
ROOT
ATOM      1  C   UNL     1      -0.299  -1.166  -1.003  1.00  0.00     0.295 C 
ATOM      2  C   UNL     1      -1.184  -2.170  -1.740  1.00  0.00     0.078 C 
ATOM      3  C   UNL     1      -0.961  -3.600  -1.258  1.00  0.00     0.013 C 
ATOM      4  C   UNL     1       0.511  -3.938  -1.029  1.00  0.00     0.062 C 
ATOM      5  C   UNL     1       1.440  -2.952  -1.713  1.00  0.00     0.263 C 
ATOM      6  N   UNL     1       1.210  -1.568  -1.173  1.00  0.00    -0.317 N 
ATOM      7  H   UNL     1       1.545  -0.905  -1.897  1.00  0.00     0.349 HD
ENDROOT
BRANCH   1   8
ATOM      8  C   UNL     1      -0.507   0.236  -1.583  1.00  0.00     0.364 C 
ATOM      9  O   UNL     1       0.377   0.777  -2.244  1.00  0.00    -0.245 OA
BRANCH   8  10
ATOM     10  O   UNL     1      -1.719   0.747  -1.274  1.00  0.00    -0.465 OA
ATOM     11  C   UNL     1      -1.937   2.076  -1.758  1.00  0.00     0.282 C 
ENDBRANCH   8  10
ENDBRANCH   1   8
BRANCH   6  12
ATOM     12  C   UNL     1       2.049  -1.260   0.072  1.00  0.00     0.339 C 
BRANCH  12  13
ATOM     13  C   UNL     1       2.016   0.216   0.460  1.00  0.00     0.165 C 
ATOM     14  N   UNL     1       0.960   0.696   1.035  1.00  0.00    -0.229 NA
ATOM     15  N   UNL     1       3.102   0.975   0.122  1.00  0.00    -0.305 N 
ATOM     16  C   UNL     1       0.944   2.070   1.343  1.00  0.00     0.078 A 
ATOM     17  C   UNL     1       3.180   2.324   0.372  1.00  0.00     0.258 C 
ATOM     18  C   UNL     1      -0.180   2.608   1.972  1.00  0.00     0.029 A 
ATOM     19  C   UNL     1       2.009   2.922   1.032  1.00  0.00     0.065 A 
ATOM     20  C   UNL     1      -0.234   3.971   2.279  1.00  0.00     0.002 A 
ATOM     21  C   UNL     1       1.966   4.285   1.334  1.00  0.00     0.016 A 
ATOM     22  C   UNL     1       0.837   4.808   1.960  1.00  0.00     0.001 A 
ATOM     23  H   UNL     1       3.932   0.599  -0.317  1.00  0.00     0.171 HD
ATOM     24  O   UNL     1       4.170   2.969   0.058  1.00  0.00    -0.269 OA
ENDBRANCH  12  13
ENDBRANCH   6  12
TORSDOF 4
