REMARK SMILES Cc1ccc(-c2noc(C[NH+]3CCCC(C(=O)Nc4ccccc4)C3)n2)cc1
REMARK SMILES IDX 10 1 9 2 6 3 7 4 26 5 8 6 5 7 2 8 3 9 28 10 4 11 27 12 1 13
REMARK SMILES IDX 11 14 12 15 25 16 13 17 15 18 14 19 16 21 18 22 17 23 19 25
REMARK SMILES IDX 20 26 24 27 21 28 23 29 22 30
REMARK H PARENT 11 20 18 24
ROOT
ATOM      1  C   UNL     1      -3.390   1.481   0.453  1.00  0.00     0.364 C 
ENDROOT
BRANCH   1   2
ATOM      2  C   UNL     1      -2.991   1.375  -0.974  1.00  0.00     0.282 A 
ATOM      3  C   UNL     1      -2.110   1.053  -2.858  1.00  0.00     0.202 A 
ATOM      4  N   UNL     1      -3.212   1.777  -3.127  1.00  0.00    -0.057 NA
ATOM      5  N   UNL     1      -1.950   0.785  -1.511  1.00  0.00    -0.186 NA
ATOM      6  O   UNL     1      -3.796   1.988  -1.883  1.00  0.00    -0.333 OA
BRANCH   3   7
ATOM      7  C   UNL     1      -1.158   0.590  -3.861  1.00  0.00     0.023 A 
ATOM      8  C   UNL     1       0.693  -0.322  -5.787  1.00  0.00    -0.051 A 
ATOM      9  C   UNL     1       0.883  -0.606  -4.432  1.00  0.00     0.004 A 
ATOM     10  C   UNL     1      -0.416   0.438  -6.173  1.00  0.00     0.004 A 
ATOM     11  C   UNL     1      -0.035  -0.157  -3.477  1.00  0.00     0.012 A 
ATOM     12  C   UNL     1      -1.337   0.885  -5.219  1.00  0.00     0.012 A 
ATOM     13  C   UNL     1       1.697  -0.776  -6.807  1.00  0.00     0.044 C 
ENDBRANCH   3   7
ENDBRANCH   1   2
BRANCH   1  14
ATOM     14  N   UNL     1      -2.303   1.208   1.505  1.00  0.00    -0.326 N 
ATOM     15  C   UNL     1      -1.102   2.105   1.342  1.00  0.00     0.262 C 
ATOM     16  C   UNL     1      -1.906  -0.262   1.570  1.00  0.00     0.276 C 
ATOM     17  C   UNL     1      -0.237   2.016   2.597  1.00  0.00     0.062 C 
ATOM     18  C   UNL     1      -0.668  -0.495   2.455  1.00  0.00     0.134 C 
ATOM     19  C   UNL     1      -0.375   0.698   3.369  1.00  0.00     0.025 C 
ATOM     20  H   UNL     1      -2.739   1.449   2.402  1.00  0.00     0.348 HD
BRANCH  18  21
ATOM     21  C   UNL     1       0.558  -0.826   1.603  1.00  0.00     0.233 C 
ATOM     22  N   UNL     1       1.580  -1.411   2.325  1.00  0.00    -0.326 N 
ATOM     23  O   UNL     1       0.581  -0.523   0.415  1.00  0.00    -0.274 OA
ATOM     24  H   UNL     1       1.430  -1.585   3.312  1.00  0.00     0.169 HD
BRANCH  22  25
ATOM     25  C   UNL     1       2.848  -1.810   1.845  1.00  0.00     0.041 A 
ATOM     26  C   UNL     1       3.252  -1.703   0.513  1.00  0.00     0.026 A 
ATOM     27  C   UNL     1       3.742  -2.346   2.781  1.00  0.00     0.026 A 
ATOM     28  C   UNL     1       4.529  -2.122   0.123  1.00  0.00     0.002 A 
ATOM     29  C   UNL     1       5.017  -2.766   2.392  1.00  0.00     0.002 A 
ATOM     30  C   UNL     1       5.411  -2.651   1.062  1.00  0.00     0.000 A 
ENDBRANCH  22  25
ENDBRANCH  18  21
ENDBRANCH   1  14
TORSDOF 5
