REMARK SMILES O=C(Nc1ccccc1)C1CCC[NH+](Cc2nc(-c3ccc(F)cc3)no2)C1
REMARK SMILES IDX 15 1 14 2 10 3 11 4 28 5 12 6 13 7 2 9 3 10 1 11 4 13 5 14
REMARK SMILES IDX 9 15 6 16 8 17 7 18 16 19 17 20 27 21 18 22 26 23 19 24
REMARK SMILES IDX 20 25 25 26 21 27 24 28 22 29 23 30
REMARK H PARENT 14 8 3 12
ROOT
ATOM      1  C   UNL     1       3.062  -1.777   0.393  1.00  0.00     0.364 C 
ENDROOT
BRANCH   1   2
ATOM      2  N   UNL     1       2.666  -0.415   0.987  1.00  0.00    -0.326 N 
ATOM      3  C   UNL     1       1.452   1.753   0.650  1.00  0.00     0.134 C 
ATOM      4  C   UNL     1       2.653   2.501   1.231  1.00  0.00     0.025 C 
ATOM      5  C   UNL     1       1.887   0.438  -0.008  1.00  0.00     0.276 C 
ATOM      6  C   UNL     1       3.457   1.610   2.174  1.00  0.00     0.062 C 
ATOM      7  C   UNL     1       3.881   0.308   1.512  1.00  0.00     0.262 C 
ATOM      8  H   UNL     1       2.040  -0.622   1.776  1.00  0.00     0.348 HD
BRANCH   3   9
ATOM      9  C   UNL     1       0.722   2.589  -0.396  1.00  0.00     0.233 C 
ATOM     10  N   UNL     1       0.109   3.709   0.131  1.00  0.00    -0.326 N 
ATOM     11  O   UNL     1       0.723   2.231  -1.568  1.00  0.00    -0.274 OA
ATOM     12  H   UNL     1       0.231   3.903   1.117  1.00  0.00     0.169 HD
BRANCH  10  13
ATOM     13  C   UNL     1      -0.685   4.654  -0.558  1.00  0.00     0.041 A 
ATOM     14  C   UNL     1      -1.016   4.562  -1.911  1.00  0.00     0.026 A 
ATOM     15  C   UNL     1      -1.172   5.738   0.186  1.00  0.00     0.026 A 
ATOM     16  C   UNL     1      -1.821   5.536  -2.511  1.00  0.00     0.002 A 
ATOM     17  C   UNL     1      -1.975   6.713  -0.414  1.00  0.00     0.002 A 
ATOM     18  C   UNL     1      -2.301   6.610  -1.763  1.00  0.00     0.000 A 
ENDBRANCH  10  13
ENDBRANCH   3   9
ENDBRANCH   1   2
BRANCH   1  19
ATOM     19  C   UNL     1       1.930  -2.694   0.102  1.00  0.00     0.282 A 
ATOM     20  N   UNL     1       0.950  -2.565  -0.762  1.00  0.00    -0.186 NA
ATOM     21  O   UNL     1       1.852  -3.831   0.842  1.00  0.00    -0.333 OA
ATOM     22  C   UNL     1       0.227  -3.731  -0.576  1.00  0.00     0.202 A 
ATOM     23  N   UNL     1       0.725  -4.512   0.398  1.00  0.00    -0.057 NA
BRANCH  22  24
ATOM     24  C   UNL     1      -0.954  -4.054  -1.371  1.00  0.00     0.023 A 
ATOM     25  C   UNL     1      -1.362  -3.199  -2.410  1.00  0.00     0.015 A 
ATOM     26  C   UNL     1      -1.696  -5.224  -1.126  1.00  0.00     0.015 A 
ATOM     27  C   UNL     1      -2.483  -3.508  -3.186  1.00  0.00     0.040 A 
ATOM     28  C   UNL     1      -2.820  -5.528  -1.901  1.00  0.00     0.040 A 
ATOM     29  C   UNL     1      -3.201  -4.668  -2.924  1.00  0.00     0.123 A 
ATOM     30  F   UNL     1      -4.273  -4.964  -3.671  1.00  0.00    -0.207 F 
ENDBRANCH  22  24
ENDBRANCH   1  19
TORSDOF 5
