REMARK SMILES Cc1ccccc1-c1noc(C[NH+]2CCCC(C(=O)Nc3ccccc3)C2)n1
REMARK SMILES IDX 12 1 11 2 8 3 9 4 28 5 10 6 7 7 2 8 3 9 4 10 6 11 5 12 1 13
REMARK SMILES IDX 13 14 14 15 27 16 15 17 17 18 16 19 18 21 20 22 19 23 21 25
REMARK SMILES IDX 22 26 26 27 23 28 25 29 24 30
REMARK H PARENT 13 20 20 24
ROOT
ATOM      1  C   UNL     1       1.216  -1.640  -0.885  1.00  0.00     0.364 C 
ENDROOT
BRANCH   1   2
ATOM      2  C   UNL     1       1.744  -2.391   0.284  1.00  0.00     0.282 A 
ATOM      3  C   UNL     1       2.167  -3.334   2.120  1.00  0.00     0.202 A 
ATOM      4  N   UNL     1       3.307  -3.442   1.419  1.00  0.00    -0.057 NA
ATOM      5  N   UNL     1       1.164  -2.672   1.428  1.00  0.00    -0.186 NA
ATOM      6  O   UNL     1       3.032  -2.818   0.210  1.00  0.00    -0.333 OA
BRANCH   3   7
ATOM      7  C   UNL     1       1.952  -3.861   3.468  1.00  0.00     0.026 A 
ATOM      8  C   UNL     1       2.983  -4.015   4.422  1.00  0.00    -0.040 A 
ATOM      9  C   UNL     1       2.670  -4.550   5.687  1.00  0.00     0.004 A 
ATOM     10  C   UNL     1       1.363  -4.909   6.016  1.00  0.00     0.000 A 
ATOM     11  C   UNL     1       0.637  -4.224   3.825  1.00  0.00     0.012 A 
ATOM     12  C   UNL     1       0.345  -4.743   5.087  1.00  0.00     0.001 A 
ATOM     13  C   UNL     1       4.419  -3.647   4.153  1.00  0.00     0.045 C 
ENDBRANCH   3   7
ENDBRANCH   1   2
BRANCH   1  14
ATOM     14  N   UNL     1       0.585  -0.288  -0.566  1.00  0.00    -0.326 N 
ATOM     15  C   UNL     1       1.575   0.758  -0.125  1.00  0.00     0.262 C 
ATOM     16  C   UNL     1      -0.655  -0.384   0.301  1.00  0.00     0.276 C 
ATOM     17  C   UNL     1       0.977   1.698   0.919  1.00  0.00     0.062 C 
ATOM     18  C   UNL     1      -1.387   0.964   0.277  1.00  0.00     0.134 C 
ATOM     19  C   UNL     1      -0.448   2.141   0.590  1.00  0.00     0.025 C 
ATOM     20  H   UNL     1       0.207   0.024  -1.484  1.00  0.00     0.348 HD
BRANCH  18  21
ATOM     21  C   UNL     1      -1.994   1.158  -1.108  1.00  0.00     0.233 C 
ATOM     22  N   UNL     1      -3.034   2.061  -1.133  1.00  0.00    -0.326 N 
ATOM     23  O   UNL     1      -1.479   0.578  -2.064  1.00  0.00    -0.274 OA
ATOM     24  H   UNL     1      -3.303   2.502  -0.260  1.00  0.00     0.169 HD
BRANCH  22  25
ATOM     25  C   UNL     1      -3.779   2.475  -2.260  1.00  0.00     0.041 A 
ATOM     26  C   UNL     1      -3.592   1.975  -3.550  1.00  0.00     0.026 A 
ATOM     27  C   UNL     1      -4.765   3.448  -2.048  1.00  0.00     0.026 A 
ATOM     28  C   UNL     1      -4.373   2.445  -4.611  1.00  0.00     0.002 A 
ATOM     29  C   UNL     1      -5.544   3.918  -3.108  1.00  0.00     0.002 A 
ATOM     30  C   UNL     1      -5.346   3.417  -4.392  1.00  0.00     0.000 A 
ENDBRANCH  22  25
ENDBRANCH  18  21
ENDBRANCH   1  14
TORSDOF 5
