REMARK SMILES CC(SC(C)c1nc(N)nc(Nc2ccccc2)n1)C(=O)Nc1ccc2c(c1)CCC2
REMARK SMILES IDX 3 1 2 2 1 3 20 4 22 5 21 6 23 8 24 9 28 10 25 11 27 12 26 13
REMARK SMILES IDX 29 14 31 15 30 16 4 17 5 18 6 19 7 20 19 21 8 22 11 23 10 24
REMARK SMILES IDX 9 25 12 28 13 30 14 31 18 32 15 33 17 34 16 35
REMARK H PARENT 22 7 9 26 9 27 12 29
ROOT
ATOM      1  S   UNL     1       1.110   3.114   2.273  1.00  0.00    -0.138 SA
ENDROOT
BRANCH   1   2
ATOM      2  C   UNL     1       2.564   2.121   1.736  1.00  0.00     0.133 C 
ATOM      3  C   UNL     1       3.830   2.748   2.305  1.00  0.00     0.030 C 
BRANCH   2   4
ATOM      4  C   UNL     1       2.597   2.026   0.201  1.00  0.00     0.237 C 
ATOM      5  N   UNL     1       1.440   1.454  -0.315  1.00  0.00    -0.325 N 
ATOM      6  O   UNL     1       3.585   2.361  -0.446  1.00  0.00    -0.273 OA
ATOM      7  H   UNL     1       0.673   1.349   0.337  1.00  0.00     0.169 HD
BRANCH   5   8
ATOM      8  C   UNL     1       1.180   1.066  -1.644  1.00  0.00     0.041 A 
ATOM      9  C   UNL     1       2.114   1.168  -2.686  1.00  0.00     0.026 A 
ATOM     10  C   UNL     1      -0.084   0.516  -1.905  1.00  0.00     0.030 A 
ATOM     11  C   UNL     1       1.808   0.724  -3.979  1.00  0.00     0.006 A 
ATOM     12  C   UNL     1      -0.381   0.086  -3.188  1.00  0.00    -0.043 A 
ATOM     13  C   UNL     1       0.557   0.187  -4.215  1.00  0.00    -0.045 A 
ATOM     14  C   UNL     1      -1.633  -0.578  -3.669  1.00  0.00     0.036 C 
ATOM     15  C   UNL     1       0.025  -0.401  -5.484  1.00  0.00     0.036 C 
ATOM     16  C   UNL     1      -1.482  -0.433  -5.190  1.00  0.00     0.010 C 
ENDBRANCH   5   8
ENDBRANCH   2   4
ENDBRANCH   1   2
BRANCH   1  17
ATOM     17  C   UNL     1       0.520   2.058   3.662  1.00  0.00     0.113 C 
ATOM     18  C   UNL     1      -0.523   2.830   4.469  1.00  0.00     0.028 C 
BRANCH  17  19
ATOM     19  C   UNL     1      -0.052   0.739   3.176  1.00  0.00     0.149 A 
ATOM     20  N   UNL     1       0.513  -0.377   3.630  1.00  0.00    -0.197 NA
ATOM     21  N   UNL     1      -1.051   0.765   2.290  1.00  0.00    -0.196 NA
ATOM     22  C   UNL     1      -0.011  -1.499   3.166  1.00  0.00     0.225 A 
ATOM     23  C   UNL     1      -1.513  -0.416   1.889  1.00  0.00     0.232 A 
ATOM     24  N   UNL     1      -0.999  -1.571   2.292  1.00  0.00    -0.177 NA
BRANCH  22  25
ATOM     25  N   UNL     1       0.547  -2.685   3.596  1.00  0.00    -0.368 N 
ATOM     26  H   UNL     1       1.493  -2.546   3.914  1.00  0.00     0.159 HD
ATOM     27  H   UNL     1       0.396  -3.415   2.911  1.00  0.00     0.159 HD
ENDBRANCH  22  25
BRANCH  23  28
ATOM     28  N   UNL     1      -2.559  -0.347   0.972  1.00  0.00    -0.324 N 
ATOM     29  H   UNL     1      -2.834   0.618   0.853  1.00  0.00     0.170 HD
BRANCH  28  30
ATOM     30  C   UNL     1      -3.370  -1.302   0.348  1.00  0.00     0.041 A 
ATOM     31  C   UNL     1      -3.258  -2.679   0.555  1.00  0.00     0.026 A 
ATOM     32  C   UNL     1      -4.324  -0.859  -0.585  1.00  0.00     0.026 A 
ATOM     33  C   UNL     1      -4.084  -3.583  -0.121  1.00  0.00     0.002 A 
ATOM     34  C   UNL     1      -5.151  -1.757  -1.265  1.00  0.00     0.002 A 
ATOM     35  C   UNL     1      -5.033  -3.123  -1.029  1.00  0.00     0.000 A 
ENDBRANCH  28  30
ENDBRANCH  23  28
ENDBRANCH  17  19
ENDBRANCH   1  17
TORSDOF 8
