REMARK SMILES Nc1nc(Cn2nnn(-c3ccccc3Cl)c2=O)nc(Nc2ccccc2)n1
REMARK SMILES IDX 5 1 4 2 2 3 3 4 28 5 20 6 19 7 1 8 21 11 22 13 23 14 27 15
REMARK SMILES IDX 24 16 26 17 25 18 6 19 7 20 17 21 8 22 9 23 18 24 10 25
REMARK SMILES IDX 11 26 15 27 12 28 14 29 13 30 16 31
REMARK H PARENT 1 9 1 10 21 12
ROOT
ATOM      1  C   UNL     1       3.409  -0.980  -0.494  1.00  0.00     0.229 C 
ENDROOT
BRANCH   1   2
ATOM      2  C   UNL     1       2.623  -1.668   0.597  1.00  0.00     0.158 A 
ATOM      3  C   UNL     1       1.795  -3.531   1.517  1.00  0.00     0.225 A 
ATOM      4  N   UNL     1       2.505  -2.994   0.539  1.00  0.00    -0.196 NA
ATOM      5  N   UNL     1       1.198  -2.859   2.485  1.00  0.00    -0.177 NA
ATOM      6  C   UNL     1       1.363  -1.542   2.471  1.00  0.00     0.232 A 
ATOM      7  N   UNL     1       2.069  -0.905   1.541  1.00  0.00    -0.195 NA
BRANCH   3   8
ATOM      8  N   UNL     1       1.631  -4.902   1.499  1.00  0.00    -0.368 N 
ATOM      9  H   UNL     1       1.739  -5.259   0.560  1.00  0.00     0.159 HD
ATOM     10  H   UNL     1       0.790  -5.158   1.998  1.00  0.00     0.159 HD
ENDBRANCH   3   8
BRANCH   6  11
ATOM     11  N   UNL     1       0.785  -0.711   3.427  1.00  0.00    -0.324 N 
ATOM     12  H   UNL     1       1.031   0.248   3.223  1.00  0.00     0.170 HD
BRANCH  11  13
ATOM     13  C   UNL     1       0.047  -0.935   4.595  1.00  0.00     0.041 A 
ATOM     14  C   UNL     1      -0.252  -2.204   5.099  1.00  0.00     0.026 A 
ATOM     15  C   UNL     1      -0.458   0.177   5.290  1.00  0.00     0.026 A 
ATOM     16  C   UNL     1      -1.015  -2.361   6.263  1.00  0.00     0.002 A 
ATOM     17  C   UNL     1      -1.221   0.026   6.453  1.00  0.00     0.002 A 
ATOM     18  C   UNL     1      -1.498  -1.246   6.940  1.00  0.00     0.000 A 
ENDBRANCH  11  13
ENDBRANCH   6  11
ENDBRANCH   1   2
BRANCH   1  19
ATOM     19  N   UNL     1       2.561  -0.268  -1.417  1.00  0.00    -0.185 N 
ATOM     20  N   UNL     1       1.777  -0.910  -2.332  1.00  0.00    -0.043 NA
ATOM     21  C   UNL     1       2.129   1.040  -1.261  1.00  0.00     0.368 C 
ATOM     22  N   UNL     1       0.951  -0.080  -2.818  1.00  0.00    -0.039 NA
ATOM     23  N   UNL     1       1.149   1.154  -2.243  1.00  0.00    -0.159 N 
ATOM     24  O   UNL     1       2.503   1.824  -0.405  1.00  0.00    -0.244 OA
BRANCH  23  25
ATOM     25  C   UNL     1       0.284   2.224  -2.556  1.00  0.00     0.091 A 
ATOM     26  C   UNL     1      -1.009   1.915  -3.027  1.00  0.00     0.030 A 
ATOM     27  C   UNL     1       0.628   3.583  -2.439  1.00  0.00     0.067 A 
ATOM     28  C   UNL     1      -1.945   2.915  -3.307  1.00  0.00     0.002 A 
ATOM     29  C   UNL     1      -0.319   4.583  -2.717  1.00  0.00     0.023 A 
ATOM     30  C   UNL     1      -1.604   4.250  -3.139  1.00  0.00     0.002 A 
ATOM     31  Cl  UNL     1       2.237   4.149  -2.149  1.00  0.00    -0.082 Cl
ENDBRANCH  23  25
ENDBRANCH   1  19
TORSDOF 6
