REMARK SMILES COc1ccc(OCc2noc(C[NH+]3CCCC(C(=O)Nc4ccccc4)C3)n2)cc1
REMARK SMILES IDX 9 1 10 2 11 3 12 4 29 5 8 6 7 7 6 8 3 9 4 10 31 11 5 12
REMARK SMILES IDX 30 13 2 14 1 15 13 16 14 17 15 18 28 19 16 20 18 21 17 22
REMARK SMILES IDX 19 24 21 25 20 26 22 28 23 29 27 30 24 31 26 32 25 33
REMARK H PARENT 14 23 21 27
ROOT
ATOM      1  C   UNL     1      -2.524   3.001  -2.258  1.00  0.00     0.209 A 
ATOM      2  N   UNL     1      -2.749   3.915  -1.303  1.00  0.00    -0.058 NA
ATOM      3  O   UNL     1      -3.658   3.293  -0.457  1.00  0.00    -0.333 OA
ATOM      4  C   UNL     1      -3.899   2.062  -0.984  1.00  0.00     0.281 A 
ATOM      5  N   UNL     1      -3.236   1.828  -2.096  1.00  0.00    -0.187 NA
ENDROOT
BRANCH   1   6
ATOM      6  C   UNL     1      -1.587   3.248  -3.395  1.00  0.00     0.310 C 
BRANCH   6   7
ATOM      7  O   UNL     1      -0.202   3.214  -3.012  1.00  0.00    -0.485 OA
BRANCH   7   8
ATOM      8  C   UNL     1       0.340   1.993  -2.723  1.00  0.00     0.120 A 
ATOM      9  C   UNL     1       1.638  -0.383  -1.984  1.00  0.00     0.119 A 
ATOM     10  C   UNL     1       1.996   0.822  -1.381  1.00  0.00     0.050 A 
ATOM     11  C   UNL     1       0.636  -0.394  -2.958  1.00  0.00     0.050 A 
ATOM     12  C   UNL     1       1.354   2.006  -1.761  1.00  0.00     0.050 A 
ATOM     13  C   UNL     1      -0.008   0.790  -3.335  1.00  0.00     0.050 A 
BRANCH   9  14
ATOM     14  O   UNL     1       2.164  -1.606  -1.672  1.00  0.00    -0.497 OA
ATOM     15  C   UNL     1       3.504  -1.587  -1.190  1.00  0.00     0.278 C 
ENDBRANCH   9  14
ENDBRANCH   7   8
ENDBRANCH   6   7
ENDBRANCH   1   6
BRANCH   4  16
ATOM     16  C   UNL     1      -4.845   1.205  -0.221  1.00  0.00     0.364 C 
BRANCH  16  17
ATOM     17  N   UNL     1      -4.281  -0.056   0.454  1.00  0.00    -0.326 N 
ATOM     18  C   UNL     1      -4.018  -1.204  -0.480  1.00  0.00     0.262 C 
ATOM     19  C   UNL     1      -3.187   0.242   1.471  1.00  0.00     0.276 C 
ATOM     20  C   UNL     1      -2.622  -1.190  -1.078  1.00  0.00     0.062 C 
ATOM     21  C   UNL     1      -1.974  -0.682   1.324  1.00  0.00     0.134 C 
ATOM     22  C   UNL     1      -1.526  -0.712  -0.133  1.00  0.00     0.025 C 
ATOM     23  H   UNL     1      -5.077  -0.379   1.020  1.00  0.00     0.348 HD
BRANCH  21  24
ATOM     24  C   UNL     1      -0.873  -0.165   2.248  1.00  0.00     0.233 C 
ATOM     25  N   UNL     1       0.279  -0.924   2.221  1.00  0.00    -0.326 N 
ATOM     26  O   UNL     1      -1.083   0.821   2.949  1.00  0.00    -0.274 OA
ATOM     27  H   UNL     1       0.286  -1.765   1.652  1.00  0.00     0.169 HD
BRANCH  25  28
ATOM     28  C   UNL     1       1.481  -0.679   2.920  1.00  0.00     0.041 A 
ATOM     29  C   UNL     1       1.711   0.448   3.710  1.00  0.00     0.026 A 
ATOM     30  C   UNL     1       2.503  -1.633   2.791  1.00  0.00     0.026 A 
ATOM     31  C   UNL     1       2.935   0.617   4.365  1.00  0.00     0.002 A 
ATOM     32  C   UNL     1       3.725  -1.461   3.446  1.00  0.00     0.002 A 
ATOM     33  C   UNL     1       3.939  -0.338   4.238  1.00  0.00     0.000 A 
ENDBRANCH  25  28
ENDBRANCH  21  24
ENDBRANCH  16  17
ENDBRANCH   4  16
TORSDOF 8
