REMARK SMILES Cc1cc(COc2ccccc2C(=O)NC2CCCC2)ncn1
REMARK SMILES IDX 6 1 5 2 4 3 2 4 3 5 23 6 22 7 21 8 1 9 7 10 8 11 12 12 9 13
REMARK SMILES IDX 11 14 10 15 13 16 15 17 14 18 16 20 17 21 20 22 18 23 19 24
REMARK H PARENT 15 19
ROOT
ATOM      1  O   UNL     1      -0.222   0.056  -0.289  1.00  0.00    -0.486 OA
ENDROOT
BRANCH   1   2
ATOM      2  C   UNL     1       0.707  -0.540   0.627  1.00  0.00     0.285 C 
BRANCH   2   3
ATOM      3  C   UNL     1       0.413  -0.164   2.061  1.00  0.00     0.081 A 
ATOM      4  C   UNL     1      -1.059   0.130   3.880  1.00  0.00     0.041 A 
ATOM      5  C   UNL     1      -0.880  -0.221   2.555  1.00  0.00     0.051 A 
ATOM      6  N   UNL     1      -0.034   0.502   4.672  1.00  0.00    -0.242 NA
ATOM      7  C   UNL     1       1.180   0.519   4.104  1.00  0.00     0.222 A 
ATOM      8  N   UNL     1       1.462   0.202   2.831  1.00  0.00    -0.238 NA
ATOM      9  C   UNL     1      -2.429   0.107   4.489  1.00  0.00     0.067 C 
ENDBRANCH   2   3
ENDBRANCH   1   2
BRANCH   1  10
ATOM     10  C   UNL     1       0.111   1.250  -0.877  1.00  0.00     0.132 A 
ATOM     11  C   UNL     1       1.057   2.133  -0.337  1.00  0.00     0.047 A 
ATOM     12  C   UNL     1      -0.557   1.609  -2.068  1.00  0.00     0.081 A 
ATOM     13  C   UNL     1       1.364   3.336  -0.981  1.00  0.00     0.004 A 
ATOM     14  C   UNL     1      -0.229   2.818  -2.708  1.00  0.00     0.018 A 
ATOM     15  C   UNL     1       0.727   3.676  -2.168  1.00  0.00     0.001 A 
BRANCH  12  16
ATOM     16  C   UNL     1      -1.610   0.774  -2.735  1.00  0.00     0.255 C 
ATOM     17  N   UNL     1      -2.212  -0.203  -1.974  1.00  0.00    -0.349 N 
ATOM     18  O   UNL     1      -1.914   0.982  -3.906  1.00  0.00    -0.269 OA
ATOM     19  H   UNL     1      -1.790  -0.399  -1.074  1.00  0.00     0.164 HD
BRANCH  17  20
ATOM     20  C   UNL     1      -3.114  -1.185  -2.549  1.00  0.00     0.082 C 
ATOM     21  C   UNL     1      -3.928  -1.887  -1.467  1.00  0.00     0.025 C 
ATOM     22  C   UNL     1      -2.351  -2.343  -3.188  1.00  0.00     0.025 C 
ATOM     23  C   UNL     1      -3.002  -2.973  -0.921  1.00  0.00     0.002 C 
ATOM     24  C   UNL     1      -1.969  -3.242  -2.015  1.00  0.00     0.002 C 
ENDBRANCH  17  20
ENDBRANCH  12  16
ENDBRANCH   1  10
TORSDOF 5
