REMARK SMILES COCC1CCCCN(c2nc(N(C)C)c3ccccc3n2)C1
REMARK SMILES IDX 23 1 4 2 3 3 2 4 1 5 5 6 6 7 9 9 8 10 7 11 10 13 11 14 22 15
REMARK SMILES IDX 12 16 21 17 16 18 20 19 17 20 19 21 18 22 13 23 14 24 15 25
REMARK H PARENT
REMARK Flexibility Score:   35.900
ROOT
ATOM      1  C   UNL     1      -2.623   0.706  -0.242  1.00  0.00     0.125 C 
ENDROOT
BRANCH   1   2
ATOM      2  C   UNL     1      -1.961   2.089  -0.339  1.00  0.00     0.034 C 
BRANCH   2   3
ATOM      3  C   UNL     1      -2.817   3.108   0.435  1.00  0.00     0.165 C 
BRANCH   3   4
ATOM      4  O   UNL     1      -2.299   4.438   0.376  1.00  0.00    -0.384 OA
ATOM      5  C   UNL     1      -1.174   4.639   1.222  1.00  0.00     0.194 C 
ENDBRANCH   3   4
ENDBRANCH   2   3
BRANCH   2   6
ATOM      6  C   UNL     1      -1.764   2.543  -1.798  1.00  0.00     0.008 C 
BRANCH   6   7
ATOM      7  C   UNL     1      -0.947   1.590  -2.678  1.00  0.00     0.002 CG0
ATOM      8  G   UNL     1      -1.637   0.250  -2.942  1.00  0.00     0.000 G0
ENDBRANCH   6   7
ENDBRANCH   2   6
ENDBRANCH   1   2
BRANCH   1   9
ATOM      9  N   UNL     1      -1.641  -0.329  -0.513  1.00  0.00    -0.340 N 
BRANCH   9  10
ATOM     10  C   UNL     1      -1.378  -0.801  -1.861  1.00  0.00     0.119 C 
BRANCH  10  11
ATOM     11  C   UNL     1      -1.637   0.250  -2.942  1.00  0.00     0.022 CG0
ATOM     12  G   UNL     1      -0.947   1.590  -2.678  1.00  0.00     0.000 G0
ENDBRANCH  10  11
ENDBRANCH   9  10
BRANCH   9  13
ATOM     13  C   UNL     1      -1.075  -1.015   0.547  1.00  0.00     0.227 A 
ATOM     14  N   UNL     1      -0.354  -2.115   0.291  1.00  0.00    -0.195 NA
ATOM     15  N   UNL     1      -1.251  -0.539   1.788  1.00  0.00    -0.213 NA
ATOM     16  C   UNL     1       0.212  -2.776   1.319  1.00  0.00     0.141 A 
ATOM     17  C   UNL     1      -0.703  -1.197   2.813  1.00  0.00     0.078 A 
ATOM     18  C   UNL     1       0.057  -2.354   2.648  1.00  0.00     0.043 A 
ATOM     19  C   UNL     1      -0.899  -0.711   4.101  1.00  0.00     0.029 A 
ATOM     20  C   UNL     1       0.590  -3.013   3.786  1.00  0.00     0.014 A 
ATOM     21  C   UNL     1      -0.367  -1.350   5.225  1.00  0.00     0.002 A 
ATOM     22  C   UNL     1       0.380  -2.510   5.067  1.00  0.00     0.001 A 
BRANCH  16  23
ATOM     23  N   UNL     1       1.010  -3.925   1.036  1.00  0.00    -0.362 N 
ATOM     24  C   UNL     1       2.404  -3.499   0.867  1.00  0.00     0.145 C 
ATOM     25  C   UNL     1       0.491  -4.656  -0.123  1.00  0.00     0.145 C 
ENDBRANCH  16  23
ENDBRANCH   9  13
ENDBRANCH   1   9
TORSDOF 4
