REMARK SMILES Cc1ccc(-c2noc(C[NH+]3CC[NH+](C(C)c4nc(N)nc(Nc5ccccc5)n4)CC3)n2)cc1
REMARK SMILES IDX 11 1 12 2 13 3 14 4 31 5 32 6 10 9 9 10 6 11 7 12 33 13 8 14
REMARK SMILES IDX 5 15 2 16 3 17 35 18 4 19 34 20 1 21 15 22 16 23 17 24 18 25
REMARK SMILES IDX 30 26 19 27 22 28 21 29 20 30 23 33 24 35 25 36 29 37 26 38
REMARK SMILES IDX 28 39 27 40
REMARK H PARENT 11 7 14 8 20 31 20 32 23 34
ROOT
ATOM      1  N   UNL     1      -2.382  -0.816  -3.332  1.00  0.00    -0.318 N 
ATOM      2  C   UNL     1      -0.882  -0.490  -3.414  1.00  0.00     0.325 C 
ATOM      3  C   UNL     1      -0.671   0.922  -4.026  1.00  0.00     0.325 C 
ATOM      4  N   UNL     1      -1.292   2.024  -3.143  1.00  0.00    -0.317 N 
ATOM      5  C   UNL     1      -2.533   1.552  -2.370  1.00  0.00     0.325 C 
ATOM      6  C   UNL     1      -3.273   0.421  -3.135  1.00  0.00     0.325 C 
ATOM      7  H   UNL     1      -2.641  -1.211  -4.250  1.00  0.00     0.348 HD
ATOM      8  H   UNL     1      -1.607   2.765  -3.788  1.00  0.00     0.349 HD
ENDROOT
BRANCH   1   9
ATOM      9  C   UNL     1      -2.681  -1.987  -2.355  1.00  0.00     0.364 C 
BRANCH   9  10
ATOM     10  C   UNL     1      -2.923  -1.604  -0.941  1.00  0.00     0.282 A 
ATOM     11  C   UNL     1      -2.936  -0.961   1.060  1.00  0.00     0.202 A 
ATOM     12  N   UNL     1      -4.210  -0.820   0.659  1.00  0.00    -0.057 NA
ATOM     13  N   UNL     1      -2.085  -1.361   0.039  1.00  0.00    -0.186 NA
ATOM     14  O   UNL     1      -4.214  -1.307  -0.633  1.00  0.00    -0.333 OA
BRANCH  11  15
ATOM     15  C   UNL     1      -2.495  -0.678   2.415  1.00  0.00     0.023 A 
ATOM     16  C   UNL     1      -1.695  -0.182   5.071  1.00  0.00    -0.051 A 
ATOM     17  C   UNL     1      -1.160  -1.260   4.358  1.00  0.00     0.004 A 
ATOM     18  C   UNL     1      -2.652   0.631   4.457  1.00  0.00     0.004 A 
ATOM     19  C   UNL     1      -1.547  -1.500   3.034  1.00  0.00     0.012 A 
ATOM     20  C   UNL     1      -3.050   0.386   3.139  1.00  0.00     0.012 A 
ATOM     21  C   UNL     1      -1.307   0.065   6.501  1.00  0.00     0.044 C 
ENDBRANCH  11  15
ENDBRANCH   9  10
ENDBRANCH   1   9
BRANCH   4  22
ATOM     22  C   UNL     1      -0.266   2.764  -2.196  1.00  0.00     0.250 C 
ATOM     23  C   UNL     1       0.450   3.832  -3.029  1.00  0.00     0.084 C 
BRANCH  22  24
ATOM     24  C   UNL     1       0.717   1.849  -1.470  1.00  0.00     0.193 A 
ATOM     25  N   UNL     1       1.664   1.280  -2.218  1.00  0.00    -0.191 NA
ATOM     26  N   UNL     1       0.454   1.522  -0.207  1.00  0.00    -0.191 NA
ATOM     27  C   UNL     1       2.397   0.368  -1.606  1.00  0.00     0.225 A 
ATOM     28  C   UNL     1       1.275   0.620   0.338  1.00  0.00     0.232 A 
ATOM     29  N   UNL     1       2.217  -0.008  -0.360  1.00  0.00    -0.177 NA
BRANCH  27  30
ATOM     30  N   UNL     1       3.371  -0.271  -2.346  1.00  0.00    -0.368 N 
ATOM     31  H   UNL     1       3.892   0.412  -2.885  1.00  0.00     0.159 HD
ATOM     32  H   UNL     1       3.973  -0.779  -1.701  1.00  0.00     0.159 HD
ENDBRANCH  27  30
BRANCH  28  33
ATOM     33  N   UNL     1       1.122   0.377   1.699  1.00  0.00    -0.324 N 
ATOM     34  H   UNL     1       0.500   1.037   2.147  1.00  0.00     0.170 HD
BRANCH  33  35
ATOM     35  C   UNL     1       1.849  -0.450   2.570  1.00  0.00     0.041 A 
ATOM     36  C   UNL     1       2.457  -1.645   2.163  1.00  0.00     0.026 A 
ATOM     37  C   UNL     1       2.027  -0.042   3.902  1.00  0.00     0.026 A 
ATOM     38  C   UNL     1       3.192  -2.428   3.061  1.00  0.00     0.002 A 
ATOM     39  C   UNL     1       2.771  -0.816   4.799  1.00  0.00     0.002 A 
ATOM     40  C   UNL     1       3.354  -2.007   4.377  1.00  0.00     0.000 A 
ENDBRANCH  33  35
ENDBRANCH  28  33
ENDBRANCH  22  24
ENDBRANCH   4  22
TORSDOF 8
