REMARK SMILES O=C(CSc1nc(Nc2ccccc2)c2ccccc2n1)NCC1CCCO1
REMARK SMILES IDX 3 1 2 2 22 3 1 4 23 6 24 7 25 8 28 9 26 10 27 11 4 12 5 13
REMARK SMILES IDX 6 14 21 15 7 16 20 17 15 18 19 19 16 20 18 21 17 22 8 23
REMARK SMILES IDX 9 25 10 26 14 27 11 28 13 29 12 30
REMARK H PARENT 22 5 8 24
ROOT
ATOM      1  C   UNL     1       3.969  -1.647   1.297  1.00  0.00     0.178 C 
ENDROOT
BRANCH   1   2
ATOM      2  C   UNL     1       2.691  -2.461   1.104  1.00  0.00     0.230 C 
ATOM      3  N   UNL     1       1.737  -2.032   0.218  1.00  0.00    -0.353 N 
ATOM      4  O   UNL     1       2.519  -3.487   1.770  1.00  0.00    -0.274 OA
ATOM      5  H   UNL     1       1.839  -1.128  -0.240  1.00  0.00     0.163 HD
BRANCH   3   6
ATOM      6  C   UNL     1       0.443  -2.684   0.098  1.00  0.00     0.147 C 
BRANCH   6   7
ATOM      7  C   UNL     1      -0.474  -2.430   1.303  1.00  0.00     0.137 C 
ATOM      8  C   UNL     1      -1.663  -3.372   1.341  1.00  0.00     0.036 C 
ATOM      9  O   UNL     1      -1.066  -1.107   1.268  1.00  0.00    -0.376 OA
ATOM     10  C   UNL     1      -2.592  -2.637   2.273  1.00  0.00     0.031 C 
ATOM     11  C   UNL     1      -2.355  -1.188   1.901  1.00  0.00     0.160 C 
ENDBRANCH   6   7
ENDBRANCH   3   6
ENDBRANCH   1   2
BRANCH   1  12
ATOM     12  S   UNL     1       4.275  -0.288   0.142  1.00  0.00    -0.076 SA
BRANCH  12  13
ATOM     13  C   UNL     1       3.001   0.801   0.704  1.00  0.00     0.190 A 
ATOM     14  N   UNL     1       1.902   0.805  -0.053  1.00  0.00    -0.204 NA
ATOM     15  N   UNL     1       3.134   1.391   1.894  1.00  0.00    -0.222 NA
ATOM     16  C   UNL     1       0.822   1.432   0.438  1.00  0.00     0.142 A 
ATOM     17  C   UNL     1       2.066   2.045   2.361  1.00  0.00     0.077 A 
ATOM     18  C   UNL     1       0.845   2.094   1.676  1.00  0.00     0.043 A 
ATOM     19  C   UNL     1       2.160   2.684   3.591  1.00  0.00     0.029 A 
ATOM     20  C   UNL     1      -0.254   2.784   2.246  1.00  0.00     0.014 A 
ATOM     21  C   UNL     1       1.077   3.366   4.156  1.00  0.00     0.002 A 
ATOM     22  C   UNL     1      -0.136   3.416   3.482  1.00  0.00     0.001 A 
BRANCH  16  23
ATOM     23  N   UNL     1      -0.414   1.294  -0.255  1.00  0.00    -0.340 N 
ATOM     24  H   UNL     1      -0.977   0.671   0.335  1.00  0.00     0.168 HD
BRANCH  23  25
ATOM     25  C   UNL     1      -0.575   0.918  -1.614  1.00  0.00     0.040 A 
ATOM     26  C   UNL     1       0.332   1.296  -2.612  1.00  0.00     0.026 A 
ATOM     27  C   UNL     1      -1.752   0.264  -2.005  1.00  0.00     0.026 A 
ATOM     28  C   UNL     1       0.112   0.955  -3.950  1.00  0.00     0.002 A 
ATOM     29  C   UNL     1      -1.976  -0.078  -3.342  1.00  0.00     0.002 A 
ATOM     30  C   UNL     1      -1.036   0.260  -4.314  1.00  0.00     0.000 A 
ENDBRANCH  23  25
ENDBRANCH  16  23
ENDBRANCH  12  13
ENDBRANCH   1  12
TORSDOF 7
