REMARK SMILES O=C(CSc1nc(Nc2ccccc2)c2ccccc2n1)N1CCCC1
REMARK SMILES IDX 4 1 3 2 2 3 22 4 23 5 26 6 24 7 25 8 1 9 5 10 6 11 21 12
REMARK SMILES IDX 7 13 20 14 15 15 19 16 16 17 18 18 17 19 8 20 9 22 10 23
REMARK SMILES IDX 14 24 11 25 13 26 12 27
REMARK H PARENT 8 21
ROOT
ATOM      1  S   UNL     1       2.303   1.271   0.361  1.00  0.00    -0.076 SA
ENDROOT
BRANCH   1   2
ATOM      2  C   UNL     1       2.071   0.171  -1.072  1.00  0.00     0.178 C 
BRANCH   2   3
ATOM      3  C   UNL     1       1.219   0.875  -2.115  1.00  0.00     0.233 C 
ATOM      4  N   UNL     1       1.873   1.591  -3.097  1.00  0.00    -0.342 N 
ATOM      5  C   UNL     1       1.134   2.263  -4.152  1.00  0.00     0.119 C 
ATOM      6  C   UNL     1       3.302   1.822  -3.223  1.00  0.00     0.119 C 
ATOM      7  C   UNL     1       2.202   2.689  -5.149  1.00  0.00     0.023 C 
ATOM      8  C   UNL     1       3.415   2.930  -4.262  1.00  0.00     0.023 C 
ATOM      9  O   UNL     1      -0.012   0.801  -2.090  1.00  0.00    -0.274 OA
ENDBRANCH   2   3
ENDBRANCH   1   2
BRANCH   1  10
ATOM     10  C   UNL     1       1.565   0.320   1.662  1.00  0.00     0.190 A 
ATOM     11  N   UNL     1       0.754  -0.691   1.353  1.00  0.00    -0.204 NA
ATOM     12  N   UNL     1       1.883   0.685   2.909  1.00  0.00    -0.222 NA
ATOM     13  C   UNL     1       0.200  -1.388   2.358  1.00  0.00     0.142 A 
ATOM     14  C   UNL     1       1.330  -0.001   3.910  1.00  0.00     0.077 A 
ATOM     15  C   UNL     1       0.453  -1.072   3.704  1.00  0.00     0.043 A 
ATOM     16  C   UNL     1       1.638   0.366   5.215  1.00  0.00     0.029 A 
ATOM     17  C   UNL     1      -0.110  -1.738   4.825  1.00  0.00     0.014 A 
ATOM     18  C   UNL     1       1.095  -0.297   6.319  1.00  0.00     0.002 A 
ATOM     19  C   UNL     1       0.214  -1.350   6.123  1.00  0.00     0.001 A 
BRANCH  13  20
ATOM     20  N   UNL     1      -0.652  -2.484   2.053  1.00  0.00    -0.340 N 
ATOM     21  H   UNL     1      -0.328  -3.306   2.548  1.00  0.00     0.168 HD
BRANCH  20  22
ATOM     22  C   UNL     1      -1.222  -2.824   0.804  1.00  0.00     0.040 A 
ATOM     23  C   UNL     1      -1.599  -4.154   0.566  1.00  0.00     0.026 A 
ATOM     24  C   UNL     1      -1.537  -1.872  -0.172  1.00  0.00     0.026 A 
ATOM     25  C   UNL     1      -2.207  -4.531  -0.637  1.00  0.00     0.002 A 
ATOM     26  C   UNL     1      -2.143  -2.243  -1.376  1.00  0.00     0.002 A 
ATOM     27  C   UNL     1      -2.471  -3.575  -1.612  1.00  0.00     0.000 A 
ENDBRANCH  20  22
ENDBRANCH  13  20
ENDBRANCH   1  10
TORSDOF 5
