REMARK SMILES O=C(CSc1nnc(Nc2ccccc2)s1)NC1CCCc2ccccc21
REMARK SMILES IDX 4 1 3 2 2 3 17 4 1 5 18 7 19 8 27 9 20 10 26 11 22 12 21 13
REMARK SMILES IDX 25 14 23 15 24 16 5 17 6 18 16 19 7 20 8 21 9 22 10 24 11 25
REMARK SMILES IDX 15 26 12 27 14 28 13 29
REMARK H PARENT 17 6 9 23
ROOT
ATOM      1  S   UNL     1      -3.032  -4.598  -0.622  1.00  0.00    -0.084 SA
ENDROOT
BRANCH   1   2
ATOM      2  C   UNL     1      -1.621  -4.322  -1.723  1.00  0.00     0.177 C 
BRANCH   2   3
ATOM      3  C   UNL     1      -0.320  -4.220  -0.945  1.00  0.00     0.230 C 
ATOM      4  N   UNL     1       0.251  -2.964  -0.957  1.00  0.00    -0.349 N 
ATOM      5  O   UNL     1       0.187  -5.183  -0.377  1.00  0.00    -0.274 OA
ATOM      6  H   UNL     1      -0.268  -2.172  -1.303  1.00  0.00     0.164 HD
BRANCH   4   7
ATOM      7  C   UNL     1       1.503  -2.683  -0.263  1.00  0.00     0.112 C 
ATOM      8  C   UNL     1       1.281  -2.495   1.247  1.00  0.00     0.030 C 
ATOM      9  C   UNL     1       2.157  -1.476  -0.916  1.00  0.00    -0.022 A 
ATOM     10  C   UNL     1       0.694  -1.119   1.550  1.00  0.00     0.007 C 
ATOM     11  C   UNL     1       2.715  -1.614  -2.202  1.00  0.00     0.006 A 
ATOM     12  C   UNL     1       2.184  -0.214  -0.290  1.00  0.00    -0.043 A 
ATOM     13  C   UNL     1       1.652  -0.014   1.109  1.00  0.00     0.036 C 
ATOM     14  C   UNL     1       3.302  -0.525  -2.851  1.00  0.00     0.000 A 
ATOM     15  C   UNL     1       2.786   0.872  -0.951  1.00  0.00     0.004 A 
ATOM     16  C   UNL     1       3.338   0.717  -2.225  1.00  0.00     0.000 A 
ENDBRANCH   4   7
ENDBRANCH   2   3
ENDBRANCH   1   2
BRANCH   1  17
ATOM     17  C   UNL     1      -3.036  -3.100   0.275  1.00  0.00     0.176 A 
ATOM     18  N   UNL     1      -2.678  -3.052   1.537  1.00  0.00    -0.130 NA
ATOM     19  S   UNL     1      -3.508  -1.594  -0.387  1.00  0.00    -0.068 S 
ATOM     20  N   UNL     1      -2.758  -1.771   2.043  1.00  0.00    -0.119 NA
ATOM     21  C   UNL     1      -3.131  -0.882   1.144  1.00  0.00     0.210 A 
BRANCH  21  22
ATOM     22  N   UNL     1      -3.269   0.437   1.430  1.00  0.00    -0.330 N 
ATOM     23  H   UNL     1      -3.184   0.628   2.426  1.00  0.00     0.169 HD
BRANCH  22  24
ATOM     24  C   UNL     1      -2.743   1.532   0.699  1.00  0.00     0.040 A 
ATOM     25  C   UNL     1      -3.166   2.822   1.066  1.00  0.00     0.026 A 
ATOM     26  C   UNL     1      -1.847   1.415  -0.372  1.00  0.00     0.026 A 
ATOM     27  C   UNL     1      -2.694   3.957   0.397  1.00  0.00     0.002 A 
ATOM     28  C   UNL     1      -1.369   2.549  -1.041  1.00  0.00     0.002 A 
ATOM     29  C   UNL     1      -1.793   3.820  -0.656  1.00  0.00     0.000 A 
ENDBRANCH  22  24
ENDBRANCH  21  22
ENDBRANCH   1  17
TORSDOF 6
