REMARK SMILES O=C(Cn1c(NCc2ccccc2)nc2ccccc21)NC1CCCCC1
REMARK SMILES IDX 4 1 5 2 14 3 15 4 16 5 17 6 18 7 19 8 20 9 3 10 2 11 21 12
REMARK SMILES IDX 1 13 22 15 23 16 27 17 24 18 26 19 25 20 6 21 7 23 8 24 9 25
REMARK SMILES IDX 13 26 10 27 12 28 11 29
REMARK H PARENT 21 14 6 22
ROOT
ATOM      1  N   UNL     1      -2.799   0.686   0.370  1.00  0.00    -0.301 N 
ATOM      2  C   UNL     1      -2.778   0.692  -1.007  1.00  0.00     0.204 A 
ATOM      3  N   UNL     1      -2.460   1.883  -1.459  1.00  0.00    -0.213 NA
ATOM      4  C   UNL     1      -2.252   2.668  -0.356  1.00  0.00     0.091 A 
ATOM      5  C   UNL     1      -1.885   4.019  -0.277  1.00  0.00     0.031 A 
ATOM      6  C   UNL     1      -1.721   4.599   0.986  1.00  0.00     0.002 A 
ATOM      7  C   UNL     1      -1.916   3.848   2.147  1.00  0.00     0.002 A 
ATOM      8  C   UNL     1      -2.284   2.500   2.087  1.00  0.00     0.028 A 
ATOM      9  C   UNL     1      -2.448   1.943   0.813  1.00  0.00     0.070 A 
ENDROOT
BRANCH   1  10
ATOM     10  C   UNL     1      -3.123  -0.430   1.233  1.00  0.00     0.225 C 
BRANCH  10  11
ATOM     11  C   UNL     1      -1.888  -1.039   1.857  1.00  0.00     0.240 C 
ATOM     12  N   UNL     1      -0.945  -1.514   0.965  1.00  0.00    -0.352 N 
ATOM     13  O   UNL     1      -1.770  -1.138   3.076  1.00  0.00    -0.273 OA
ATOM     14  H   UNL     1      -0.991  -1.172   0.009  1.00  0.00     0.163 HD
BRANCH  12  15
ATOM     15  C   UNL     1       0.356  -1.988   1.432  1.00  0.00     0.082 C 
ATOM     16  C   UNL     1       1.289  -0.813   1.786  1.00  0.00     0.025 C 
ATOM     17  C   UNL     1       0.989  -2.916   0.393  1.00  0.00     0.025 C 
ATOM     18  C   UNL     1       2.313  -0.481   0.696  1.00  0.00     0.002 C 
ATOM     19  C   UNL     1       1.365  -2.191  -0.903  1.00  0.00     0.002 C 
ATOM     20  C   UNL     1       1.765  -0.729  -0.701  1.00  0.00     0.000 C 
ENDBRANCH  12  15
ENDBRANCH  10  11
ENDBRANCH   1  10
BRANCH   2  21
ATOM     21  N   UNL     1      -3.042  -0.408  -1.738  1.00  0.00    -0.352 N 
ATOM     22  H   UNL     1      -3.198  -1.330  -1.361  1.00  0.00     0.163 HD
BRANCH  21  23
ATOM     23  C   UNL     1      -3.041  -0.335  -3.189  1.00  0.00     0.151 C 
BRANCH  23  24
ATOM     24  C   UNL     1      -1.837  -1.062  -3.735  1.00  0.00    -0.029 A 
ATOM     25  C   UNL     1      -1.885  -2.439  -4.000  1.00  0.00     0.005 A 
ATOM     26  C   UNL     1      -0.639  -0.369  -3.962  1.00  0.00     0.005 A 
ATOM     27  C   UNL     1      -0.763  -3.102  -4.501  1.00  0.00     0.000 A 
ATOM     28  C   UNL     1       0.479  -1.033  -4.469  1.00  0.00     0.000 A 
ATOM     29  C   UNL     1       0.416  -2.399  -4.739  1.00  0.00     0.000 A 
ENDBRANCH  23  24
ENDBRANCH  21  23
ENDBRANCH   2  21
TORSDOF 6
