REMARK SMILES FCC1CN(c2nc(Nc3ccccc3)c3[nH]cnc3n2)CCO1
REMARK SMILES IDX 6 1 7 2 8 3 16 4 17 5 18 6 19 7 20 8 21 9 5 11 3 12 4 13
REMARK SMILES IDX 24 14 23 15 22 16 2 17 1 18 9 19 10 21 11 22 15 23 12 24
REMARK SMILES IDX 14 25 13 26
REMARK H PARENT 17 10 9 20
ROOT
ATOM      1  C   UNL     1      -0.877   0.853   0.617  1.00  0.00     0.229 A 
ATOM      2  N   UNL     1      -0.460   0.026  -0.371  1.00  0.00    -0.193 NA
ATOM      3  C   UNL     1       0.584  -0.808  -0.186  1.00  0.00     0.162 A 
ATOM      4  C   UNL     1       1.159  -0.800   1.063  1.00  0.00     0.128 A 
ATOM      5  N   UNL     1       2.166  -1.499   1.667  1.00  0.00    -0.340 N 
ATOM      6  C   UNL     1       2.277  -1.032   2.947  1.00  0.00     0.199 A 
ATOM      7  N   UNL     1       1.397  -0.087   3.198  1.00  0.00    -0.217 NA
ATOM      8  C   UNL     1       0.692   0.059   2.031  1.00  0.00     0.184 A 
ATOM      9  N   UNL     1      -0.322   0.911   1.833  1.00  0.00    -0.191 NA
ATOM     10  H   UNL     1       2.723  -2.223   1.235  1.00  0.00     0.168 HD
ENDROOT
BRANCH   1  11
ATOM     11  N   UNL     1      -1.938   1.724   0.329  1.00  0.00    -0.336 N 
ATOM     12  C   UNL     1      -3.922   2.298  -1.033  1.00  0.00     0.168 C 
ATOM     13  C   UNL     1      -2.842   1.239  -0.730  1.00  0.00     0.154 C 
ATOM     14  O   UNL     1      -4.626   2.687   0.165  1.00  0.00    -0.372 OA
ATOM     15  C   UNL     1      -3.707   3.246   1.117  1.00  0.00     0.182 C 
ATOM     16  C   UNL     1      -2.630   2.231   1.525  1.00  0.00     0.148 C 
BRANCH  12  17
ATOM     17  C   UNL     1      -4.935   1.748  -2.029  1.00  0.00     0.248 C 
ATOM     18  F   UNL     1      -4.312   1.439  -3.197  1.00  0.00    -0.248 F 
ENDBRANCH  12  17
ENDBRANCH   1  11
BRANCH   3  19
ATOM     19  N   UNL     1       0.969  -1.650  -1.238  1.00  0.00    -0.338 N 
ATOM     20  H   UNL     1       0.391  -1.395  -2.038  1.00  0.00     0.168 HD
BRANCH  19  21
ATOM     21  C   UNL     1       2.286  -1.944  -1.654  1.00  0.00     0.040 A 
ATOM     22  C   UNL     1       3.352  -1.052  -1.482  1.00  0.00     0.026 A 
ATOM     23  C   UNL     1       2.515  -3.133  -2.356  1.00  0.00     0.026 A 
ATOM     24  C   UNL     1       4.629  -1.369  -1.951  1.00  0.00     0.002 A 
ATOM     25  C   UNL     1       3.791  -3.453  -2.826  1.00  0.00     0.002 A 
ATOM     26  C   UNL     1       4.849  -2.572  -2.618  1.00  0.00     0.000 A 
ENDBRANCH  19  21
ENDBRANCH   3  19
TORSDOF 4
