REMARK SMILES OCC1CCCN(c2nc(Nc3ccccc3)c3[nH]cnc3n2)C1
REMARK SMILES IDX 3 1 4 2 5 3 6 4 7 5 24 6 2 7 1 8 8 10 9 11 23 12 10 13 22 14
REMARK SMILES IDX 18 15 21 16 19 17 20 18 11 20 12 22 13 23 17 24 14 25 16 26
REMARK SMILES IDX 15 27
REMARK H PARENT 1 9 19 19 11 21
ROOT
ATOM      1  C   UNL     1       1.052   0.324  -1.593  1.00  0.00     0.034 C 
ATOM      2  C   UNL     1       0.497   0.394  -3.027  1.00  0.00     0.009 C 
ATOM      3  C   UNL     1      -0.712  -0.529  -3.215  1.00  0.00     0.022 C 
ATOM      4  C   UNL     1      -0.401  -1.958  -2.759  1.00  0.00     0.119 C 
ATOM      5  N   UNL     1       0.107  -1.945  -1.386  1.00  0.00    -0.340 N 
ATOM      6  C   UNL     1       1.317  -1.140  -1.198  1.00  0.00     0.125 C 
ENDROOT
BRANCH   1   7
ATOM      7  C   UNL     1       2.318   1.171  -1.459  1.00  0.00     0.161 C 
BRANCH   7   8
ATOM      8  O   UNL     1       2.825   1.138  -0.132  1.00  0.00    -0.396 OA
ATOM      9  H   UNL     1       2.096   1.367   0.474  1.00  0.00     0.210 HD
ENDBRANCH   7   8
ENDBRANCH   1   7
BRANCH   5  10
ATOM     10  C   UNL     1      -0.863  -1.871  -0.382  1.00  0.00     0.229 A 
ATOM     11  N   UNL     1      -0.533  -1.264   0.781  1.00  0.00    -0.193 NA
ATOM     12  N   UNL     1      -2.063  -2.401  -0.627  1.00  0.00    -0.191 NA
ATOM     13  C   UNL     1      -1.411  -1.136   1.803  1.00  0.00     0.162 A 
ATOM     14  C   UNL     1      -2.939  -2.303   0.379  1.00  0.00     0.184 A 
ATOM     15  C   UNL     1      -2.657  -1.691   1.582  1.00  0.00     0.128 A 
ATOM     16  N   UNL     1      -4.226  -2.775   0.353  1.00  0.00    -0.217 NA
ATOM     17  N   UNL     1      -3.810  -1.815   2.308  1.00  0.00    -0.340 N 
ATOM     18  C   UNL     1      -4.723  -2.472   1.530  1.00  0.00     0.199 A 
ATOM     19  H   UNL     1      -3.964  -1.498   3.254  1.00  0.00     0.168 HD
BRANCH  13  20
ATOM     20  N   UNL     1      -1.103  -0.447   2.982  1.00  0.00    -0.338 N 
ATOM     21  H   UNL     1      -1.888  -0.271   3.588  1.00  0.00     0.168 HD
BRANCH  20  22
ATOM     22  C   UNL     1       0.101   0.124   3.432  1.00  0.00     0.040 A 
ATOM     23  C   UNL     1       1.354  -0.205   2.909  1.00  0.00     0.026 A 
ATOM     24  C   UNL     1       0.049   1.116   4.426  1.00  0.00     0.026 A 
ATOM     25  C   UNL     1       2.518   0.427   3.358  1.00  0.00     0.002 A 
ATOM     26  C   UNL     1       1.209   1.751   4.880  1.00  0.00     0.002 A 
ATOM     27  C   UNL     1       2.445   1.406   4.343  1.00  0.00     0.000 A 
ENDBRANCH  20  22
ENDBRANCH  13  20
ENDBRANCH   5  10
TORSDOF 5
