REMARK SMILES CNC(=O)C1CCCN(c2nc(Nc3ccccc3)c3[nH]cnc3n2)C1
REMARK SMILES IDX 10 1 11 2 12 3 20 4 21 5 22 6 23 7 24 8 25 9 9 11 5 12 6 13
REMARK SMILES IDX 26 14 7 15 8 16 3 17 2 18 1 19 4 21 13 22 14 24 15 25 19 26
REMARK SMILES IDX 16 27 18 28 17 29
REMARK H PARENT 21 10 2 20 13 23
ROOT
ATOM      1  C   UNL     1      -0.119   0.710  -1.187  1.00  0.00     0.229 A 
ATOM      2  N   UNL     1       0.734  -0.116  -0.538  1.00  0.00    -0.193 NA
ATOM      3  C   UNL     1       1.863  -0.587  -1.116  1.00  0.00     0.162 A 
ATOM      4  C   UNL     1       2.076  -0.170  -2.417  1.00  0.00     0.128 A 
ATOM      5  N   UNL     1       3.040  -0.390  -3.363  1.00  0.00    -0.340 N 
ATOM      6  C   UNL     1       2.684   0.302  -4.488  1.00  0.00     0.199 A 
ATOM      7  N   UNL     1       1.553   0.947  -4.321  1.00  0.00    -0.217 NA
ATOM      8  C   UNL     1       1.165   0.658  -3.037  1.00  0.00     0.184 A 
ATOM      9  N   UNL     1       0.053   1.111  -2.449  1.00  0.00    -0.191 NA
ATOM     10  H   UNL     1       3.861  -0.968  -3.264  1.00  0.00     0.168 HD
ENDROOT
BRANCH   1  11
ATOM     11  N   UNL     1      -1.265   1.131  -0.493  1.00  0.00    -0.340 N 
ATOM     12  C   UNL     1      -2.274   1.807   1.697  1.00  0.00     0.098 C 
ATOM     13  C   UNL     1      -3.548   1.687   0.857  1.00  0.00     0.017 C 
ATOM     14  C   UNL     1      -1.062   1.203   0.964  1.00  0.00     0.133 C 
ATOM     15  C   UNL     1      -3.395   2.339  -0.519  1.00  0.00     0.022 C 
ATOM     16  C   UNL     1      -1.978   2.253  -1.097  1.00  0.00     0.120 C 
BRANCH  12  17
ATOM     17  C   UNL     1      -2.030   3.252   2.131  1.00  0.00     0.224 C 
ATOM     18  N   UNL     1      -3.009   3.751   2.968  1.00  0.00    -0.359 N 
ATOM     19  C   UNL     1      -2.895   5.071   3.536  1.00  0.00     0.142 C 
ATOM     20  H   UNL     1      -3.669   3.107   3.385  1.00  0.00     0.163 HD
ATOM     21  O   UNL     1      -1.064   3.919   1.777  1.00  0.00    -0.275 OA
ENDBRANCH  12  17
ENDBRANCH   1  11
BRANCH   3  22
ATOM     22  N   UNL     1       2.772  -1.410  -0.441  1.00  0.00    -0.338 N 
ATOM     23  H   UNL     1       3.650  -1.547  -0.914  1.00  0.00     0.168 HD
BRANCH  22  24
ATOM     24  C   UNL     1       2.683  -2.075   0.795  1.00  0.00     0.040 A 
ATOM     25  C   UNL     1       3.860  -2.576   1.377  1.00  0.00     0.026 A 
ATOM     26  C   UNL     1       1.489  -2.238   1.504  1.00  0.00     0.026 A 
ATOM     27  C   UNL     1       3.840  -3.226   2.615  1.00  0.00     0.002 A 
ATOM     28  C   UNL     1       1.462  -2.889   2.742  1.00  0.00     0.002 A 
ATOM     29  C   UNL     1       2.638  -3.383   3.298  1.00  0.00     0.000 A 
ENDBRANCH  22  24
ENDBRANCH   3  22
TORSDOF 4
