REMARK SMILES COCC1CCN(c2nc(Nc3ccccc3)c3[nH]cnc3n2)C1
REMARK SMILES IDX 4 1 5 2 6 3 7 4 24 5 3 6 2 7 1 8 8 9 9 10 23 11 10 12 22 13
REMARK SMILES IDX 18 14 21 15 19 16 20 17 11 19 12 21 13 22 17 23 14 24 16 25
REMARK SMILES IDX 15 26
REMARK H PARENT 19 18 11 20
ROOT
ATOM      1  C   UNL     1      -0.279  -2.888   0.807  1.00  0.00     0.036 C 
ATOM      2  C   UNL     1      -1.136  -3.357   1.983  1.00  0.00     0.029 C 
ATOM      3  C   UNL     1      -1.235  -2.099   2.842  1.00  0.00     0.120 C 
ATOM      4  N   UNL     1      -1.307  -1.044   1.850  1.00  0.00    -0.340 N 
ATOM      5  C   UNL     1      -0.759  -1.449   0.562  1.00  0.00     0.125 C 
ENDROOT
BRANCH   1   6
ATOM      6  C   UNL     1      -0.408  -3.778  -0.422  1.00  0.00     0.165 C 
BRANCH   6   7
ATOM      7  O   UNL     1       0.318  -3.260  -1.537  1.00  0.00    -0.384 OA
ATOM      8  C   UNL     1       1.714  -3.519  -1.473  1.00  0.00     0.194 C 
ENDBRANCH   6   7
ENDBRANCH   1   6
BRANCH   4   9
ATOM      9  C   UNL     1      -1.272   0.274   2.241  1.00  0.00     0.229 A 
ATOM     10  N   UNL     1      -1.085   1.205   1.281  1.00  0.00    -0.193 NA
ATOM     11  N   UNL     1      -1.445   0.550   3.535  1.00  0.00    -0.191 NA
ATOM     12  C   UNL     1      -1.056   2.527   1.560  1.00  0.00     0.162 A 
ATOM     13  C   UNL     1      -1.418   1.855   3.831  1.00  0.00     0.184 A 
ATOM     14  C   UNL     1      -1.230   2.850   2.894  1.00  0.00     0.128 A 
ATOM     15  N   UNL     1      -1.567   2.381   5.089  1.00  0.00    -0.217 NA
ATOM     16  N   UNL     1      -1.277   4.012   3.615  1.00  0.00    -0.340 N 
ATOM     17  C   UNL     1      -1.480   3.681   4.926  1.00  0.00     0.199 A 
ATOM     18  H   UNL     1      -1.187   4.950   3.254  1.00  0.00     0.168 HD
BRANCH  12  19
ATOM     19  N   UNL     1      -0.842   3.505   0.581  1.00  0.00    -0.338 N 
ATOM     20  H   UNL     1      -0.769   4.445   0.935  1.00  0.00     0.168 HD
BRANCH  19  21
ATOM     21  C   UNL     1      -0.717   3.423  -0.819  1.00  0.00     0.040 A 
ATOM     22  C   UNL     1      -0.940   2.256  -1.556  1.00  0.00     0.026 A 
ATOM     23  C   UNL     1      -0.314   4.570  -1.525  1.00  0.00     0.026 A 
ATOM     24  C   UNL     1      -0.778   2.232  -2.946  1.00  0.00     0.002 A 
ATOM     25  C   UNL     1      -0.151   4.552  -2.914  1.00  0.00     0.002 A 
ATOM     26  C   UNL     1      -0.384   3.380  -3.625  1.00  0.00     0.000 A 
ENDBRANCH  19  21
ENDBRANCH  12  19
ENDBRANCH   4   9
TORSDOF 5
