REMARK SMILES O=C(c1ncnc2[nH]ccc12)N1CCCC(OCC2CC2)C1
REMARK SMILES IDX 12 1 13 2 14 3 15 4 16 5 22 6 2 7 1 8 3 9 4 10 11 11 5 12
REMARK SMILES IDX 10 13 7 14 6 15 9 16 8 17 17 19 18 20 19 21 20 22 21 23
REMARK H PARENT 8 18
ROOT
ATOM      1  N   UNL     1      -0.937  -0.994  -0.702  1.00  0.00    -0.335 N 
ATOM      2  C   UNL     1      -0.302  -1.467  -1.927  1.00  0.00     0.120 C 
ATOM      3  C   UNL     1       1.004  -0.735  -2.237  1.00  0.00     0.024 C 
ATOM      4  C   UNL     1       1.813  -0.482  -0.963  1.00  0.00     0.036 C 
ATOM      5  C   UNL     1       1.012   0.312   0.091  1.00  0.00     0.137 C 
ATOM      6  C   UNL     1      -0.494   0.311  -0.218  1.00  0.00     0.151 C 
ENDROOT
BRANCH   1   7
ATOM      7  C   UNL     1      -2.047  -1.700  -0.230  1.00  0.00     0.273 C 
ATOM      8  O   UNL     1      -2.564  -2.606  -0.887  1.00  0.00    -0.267 OA
BRANCH   7   9
ATOM      9  C   UNL     1      -2.608  -1.390   1.112  1.00  0.00     0.141 A 
ATOM     10  N   UNL     1      -1.750  -1.067   2.121  1.00  0.00    -0.230 NA
ATOM     11  C   UNL     1      -3.976  -1.501   1.372  1.00  0.00     0.050 A 
ATOM     12  C   UNL     1      -2.278  -0.843   3.337  1.00  0.00     0.225 A 
ATOM     13  C   UNL     1      -5.163  -1.817   0.651  1.00  0.00     0.032 A 
ATOM     14  C   UNL     1      -4.364  -1.237   2.676  1.00  0.00     0.141 A 
ATOM     15  N   UNL     1      -3.570  -0.901   3.703  1.00  0.00    -0.219 NA
ATOM     16  C   UNL     1      -6.224  -1.734   1.529  1.00  0.00     0.085 A 
ATOM     17  N   UNL     1      -5.723  -1.380   2.756  1.00  0.00    -0.346 N 
ATOM     18  H   UNL     1      -6.254  -1.246   3.605  1.00  0.00     0.167 HD
ENDBRANCH   7   9
ENDBRANCH   1   7
BRANCH   5  19
ATOM     19  O   UNL     1       1.446   1.677   0.114  1.00  0.00    -0.376 OA
BRANCH  19  20
ATOM     20  C   UNL     1       2.592   1.881   0.941  1.00  0.00     0.164 C 
BRANCH  20  21
ATOM     21  C   UNL     1       3.081   3.294   0.831  1.00  0.00     0.015 C 
ATOM     22  C   UNL     1       2.133   4.452   0.642  1.00  0.00     0.006 C 
ATOM     23  C   UNL     1       3.051   4.041  -0.479  1.00  0.00     0.006 C 
ENDBRANCH  20  21
ENDBRANCH  19  20
ENDBRANCH   5  19
TORSDOF 5
