REMARK SMILES c1ccc2nc(NC3CCC([NH+]4CCCCC4)CC3)ncc2c1
REMARK SMILES IDX 8 1 9 2 10 3 11 4 18 5 19 6 7 7 6 9 1 10 2 11 23 12 3 13
REMARK SMILES IDX 22 14 4 15 21 16 5 17 20 18 12 19 13 20 17 21 14 22 16 23
REMARK SMILES IDX 15 24
REMARK H PARENT 7 8 12 25
ROOT
ATOM      1  C   UNL     1      -0.558   0.108  -0.187  1.00  0.00     0.082 C 
ATOM      2  C   UNL     1       0.846   0.020   0.437  1.00  0.00     0.031 C 
ATOM      3  C   UNL     1       1.944   0.432  -0.547  1.00  0.00     0.067 C 
ATOM      4  C   UNL     1       1.755   1.850  -1.105  1.00  0.00     0.184 C 
ATOM      5  C   UNL     1       0.331   1.981  -1.690  1.00  0.00     0.067 C 
ATOM      6  C   UNL     1      -0.778   1.532  -0.730  1.00  0.00     0.031 C 
ENDROOT
BRANCH   1   7
ATOM      7  N   UNL     1      -0.686  -0.830  -1.293  1.00  0.00    -0.351 N 
ATOM      8  H   UNL     1      -1.355  -0.581  -2.021  1.00  0.00     0.163 HD
BRANCH   7   9
ATOM      9  C   UNL     1      -1.094  -2.118  -0.952  1.00  0.00     0.223 A 
ATOM     10  C   UNL     1      -3.223  -6.588  -1.128  1.00  0.00     0.001 A 
ATOM     11  C   UNL     1      -3.551  -5.931  -2.309  1.00  0.00     0.002 A 
ATOM     12  C   UNL     1      -2.430  -5.944  -0.183  1.00  0.00     0.012 A 
ATOM     13  C   UNL     1      -3.084  -4.632  -2.539  1.00  0.00     0.029 A 
ATOM     14  C   UNL     1      -1.969  -4.635  -0.432  1.00  0.00     0.019 A 
ATOM     15  C   UNL     1      -2.291  -3.965  -1.613  1.00  0.00     0.076 A 
ATOM     16  C   UNL     1      -1.179  -3.917   0.448  1.00  0.00     0.125 A 
ATOM     17  N   UNL     1      -1.862  -2.719  -1.868  1.00  0.00    -0.213 NA
ATOM     18  N   UNL     1      -0.737  -2.666   0.213  1.00  0.00    -0.221 NA
ENDBRANCH   7   9
ENDBRANCH   1   7
BRANCH   4  19
ATOM     19  N   UNL     1       1.981   2.944  -0.036  1.00  0.00    -0.333 N 
ATOM     20  C   UNL     1       3.151   2.738   0.905  1.00  0.00     0.262 C 
ATOM     21  C   UNL     1       2.000   4.357  -0.632  1.00  0.00     0.262 C 
ATOM     22  C   UNL     1       4.474   2.875   0.165  1.00  0.00     0.062 C 
ATOM     23  C   UNL     1       3.362   5.035  -0.508  1.00  0.00     0.062 C 
ATOM     24  C   UNL     1       4.503   4.068  -0.788  1.00  0.00     0.012 C 
ATOM     25  H   UNL     1       1.157   2.914   0.575  1.00  0.00     0.348 HD
ENDBRANCH   4  19
TORSDOF 3
