REMARK SMILES [NH3+]CC(NC(=O)c1nc2ccccc2c(=O)[nH]1)C1CCCCC1
REMARK SMILES IDX 3 1 2 2 1 3 4 7 5 8 6 10 7 11 8 12 17 13 9 14 15 15 10 16
REMARK SMILES IDX 14 17 11 18 13 19 12 20 16 22 18 23 19 24 23 25 20 26 22 27
REMARK SMILES IDX 21 28
REMARK H PARENT 1 4 1 5 1 6 4 9 17 21
ROOT
ATOM      1  C   UNL     1       1.618  -1.215  -0.315  1.00  0.00     0.140 C 
ENDROOT
BRANCH   1   2
ATOM      2  C   UNL     1       2.864  -1.005  -1.227  1.00  0.00     0.284 C 
BRANCH   2   3
ATOM      3  N   UNL     1       2.476  -0.717  -2.632  1.00  0.00    -0.356 N 
ATOM      4  H   UNL     1       1.723  -1.327  -2.970  1.00  0.00     0.344 HD
ATOM      5  H   UNL     1       3.268  -0.767  -3.279  1.00  0.00     0.344 HD
ATOM      6  H   UNL     1       2.117   0.256  -2.661  1.00  0.00     0.344 HD
ENDBRANCH   2   3
ENDBRANCH   1   2
BRANCH   1   7
ATOM      7  N   UNL     1       0.485  -0.316  -0.591  1.00  0.00    -0.341 N 
ATOM      8  C   UNL     1       0.573   1.008  -0.949  1.00  0.00     0.287 C 
ATOM      9  H   UNL     1      -0.410  -0.542  -0.144  1.00  0.00     0.164 HD
ATOM     10  O   UNL     1       1.529   1.494  -1.536  1.00  0.00    -0.266 OA
BRANCH   8  11
ATOM     11  C   UNL     1      -0.684   1.826  -0.660  1.00  0.00     0.199 C 
ATOM     12  N   UNL     1      -1.702   1.246  -0.109  1.00  0.00    -0.225 NA
ATOM     13  N   UNL     1      -0.633   3.140  -1.026  1.00  0.00    -0.302 N 
ATOM     14  C   UNL     1      -2.838   2.050   0.119  1.00  0.00     0.078 A 
ATOM     15  C   UNL     1      -1.696   3.989  -0.871  1.00  0.00     0.259 C 
ATOM     16  C   UNL     1      -3.968   1.472   0.704  1.00  0.00     0.029 A 
ATOM     17  C   UNL     1      -2.888   3.404  -0.231  1.00  0.00     0.065 A 
ATOM     18  C   UNL     1      -5.117   2.235   0.936  1.00  0.00     0.002 A 
ATOM     19  C   UNL     1      -4.029   4.177   0.002  1.00  0.00     0.016 A 
ATOM     20  C   UNL     1      -5.147   3.585   0.587  1.00  0.00     0.001 A 
ATOM     21  H   UNL     1       0.200   3.532  -1.445  1.00  0.00     0.172 HD
ATOM     22  O   UNL     1      -1.660   5.148  -1.265  1.00  0.00    -0.269 OA
ENDBRANCH   8  11
ENDBRANCH   1   7
BRANCH   1  23
ATOM     23  C   UNL     1       2.006  -1.168   1.199  1.00  0.00     0.017 C 
ATOM     24  C   UNL     1       3.176  -2.104   1.568  1.00  0.00     0.006 C 
ATOM     25  C   UNL     1       0.821  -1.503   2.135  1.00  0.00     0.006 C 
ATOM     26  C   UNL     1       2.795  -3.580   1.455  1.00  0.00     0.000 C 
ATOM     27  C   UNL     1       0.403  -2.969   2.061  1.00  0.00     0.000 C 
ATOM     28  C   UNL     1       1.577  -3.912   2.315  1.00  0.00     0.000 C 
ENDBRANCH   1  23
TORSDOF 5
