REMARK SMILES C[NH+]1CC[NH+](C2CCN(c3nc(Nc4ccccc4)c4[nH]cnc4n3)C2)CC1
REMARK SMILES IDX 10 1 11 2 12 3 20 4 21 5 22 6 23 7 24 8 25 9 9 11 6 12 7 13
REMARK SMILES IDX 26 14 8 15 5 16 2 17 3 18 28 19 4 20 27 21 1 22 13 25 14 27
REMARK SMILES IDX 15 28 19 29 16 30 18 31 17 32
REMARK H PARENT 21 10 2 23 5 24 13 26
ROOT
ATOM      1  C   UNL     1      -1.195   1.778  -0.808  1.00  0.00     0.229 A 
ATOM      2  N   UNL     1      -1.376   0.543  -0.282  1.00  0.00    -0.193 NA
ATOM      3  C   UNL     1      -2.225   0.377   0.766  1.00  0.00     0.162 A 
ATOM      4  C   UNL     1      -2.849   1.517   1.243  1.00  0.00     0.128 A 
ATOM      5  N   UNL     1      -3.735   1.801   2.248  1.00  0.00    -0.340 N 
ATOM      6  C   UNL     1      -3.949   3.152   2.242  1.00  0.00     0.199 A 
ATOM      7  N   UNL     1      -3.243   3.746   1.305  1.00  0.00    -0.217 NA
ATOM      8  C   UNL     1      -2.560   2.745   0.682  1.00  0.00     0.184 A 
ATOM      9  N   UNL     1      -1.711   2.907  -0.343  1.00  0.00    -0.191 NA
ATOM     10  H   UNL     1      -4.147   1.143   2.903  1.00  0.00     0.168 HD
ENDROOT
BRANCH   1  11
ATOM     11  N   UNL     1      -0.335   1.803  -1.899  1.00  0.00    -0.335 N 
ATOM     12  C   UNL     1       0.277   1.269  -4.030  1.00  0.00     0.205 C 
ATOM     13  C   UNL     1       0.535   2.775  -3.873  1.00  0.00     0.088 C 
ATOM     14  C   UNL     1      -0.849   1.030  -3.022  1.00  0.00     0.184 C 
ATOM     15  C   UNL     1       0.051   3.117  -2.442  1.00  0.00     0.126 C 
BRANCH  12  16
ATOM     16  N   UNL     1       1.552   0.419  -3.719  1.00  0.00    -0.322 N 
ATOM     17  N   UNL     1       1.171  -0.909  -1.202  1.00  0.00    -0.328 N 
ATOM     18  C   UNL     1       1.351  -1.818  -2.395  1.00  0.00     0.324 C 
ATOM     19  C   UNL     1       2.158   0.235  -1.174  1.00  0.00     0.324 C 
ATOM     20  C   UNL     1       1.298  -1.091  -3.773  1.00  0.00     0.324 C 
ATOM     21  C   UNL     1       2.489   0.814  -2.574  1.00  0.00     0.324 C 
ATOM     22  C   UNL     1       1.188  -1.692   0.097  1.00  0.00     0.333 C 
ATOM     23  H   UNL     1       0.225  -0.467  -1.187  1.00  0.00     0.348 HD
ATOM     24  H   UNL     1       2.121   0.614  -4.559  1.00  0.00     0.348 HD
ENDBRANCH  12  16
ENDBRANCH   1  11
BRANCH   3  25
ATOM     25  N   UNL     1      -2.427  -0.909   1.283  1.00  0.00    -0.338 N 
ATOM     26  H   UNL     1      -3.419  -1.058   1.466  1.00  0.00     0.168 HD
BRANCH  25  27
ATOM     27  C   UNL     1      -1.723  -1.443   2.396  1.00  0.00     0.040 A 
ATOM     28  C   UNL     1      -2.045  -2.738   2.823  1.00  0.00     0.026 A 
ATOM     29  C   UNL     1      -0.676  -0.768   3.038  1.00  0.00     0.026 A 
ATOM     30  C   UNL     1      -1.352  -3.338   3.876  1.00  0.00     0.002 A 
ATOM     31  C   UNL     1       0.017  -1.372   4.090  1.00  0.00     0.002 A 
ATOM     32  C   UNL     1      -0.321  -2.656   4.508  1.00  0.00     0.000 A 
ENDBRANCH  25  27
ENDBRANCH   3  25
TORSDOF 4
