REMARK SMILES O=S(=O)(c1c[nH]c2ncncc12)N(CC1CCC1)c1ccccc1
REMARK SMILES IDX 1 1 2 2 3 3 4 4 5 5 12 6 6 7 11 8 7 9 10 10 8 11 9 12 13 14
REMARK SMILES IDX 14 15 15 16 16 17 18 18 17 19 19 20 20 21 24 22 21 23 23 24
REMARK SMILES IDX 22 25
REMARK H PARENT 6 13
ROOT
ATOM      1  O   UNL     1       0.568   2.320  -0.491  1.00  0.00    -0.201 OA
ATOM      2  S   UNL     1       0.593   1.298   0.532  1.00  0.00     0.266 S 
ATOM      3  O   UNL     1       0.188   1.562   1.897  1.00  0.00    -0.201 OA
ENDROOT
BRANCH   2   4
ATOM      4  C   UNL     1       2.274   0.909   0.639  1.00  0.00     0.116 A 
ATOM      5  C   UNL     1       2.994   0.180  -0.292  1.00  0.00     0.107 A 
ATOM      6  C   UNL     1       3.161   1.299   1.676  1.00  0.00     0.058 A 
ATOM      7  N   UNL     1       4.288   0.108   0.154  1.00  0.00    -0.345 N 
ATOM      8  C   UNL     1       3.105   2.028   2.863  1.00  0.00     0.126 A 
ATOM      9  C   UNL     1       4.403   0.775   1.344  1.00  0.00     0.142 A 
ATOM     10  N   UNL     1       4.226   2.174   3.610  1.00  0.00    -0.244 NA
ATOM     11  N   UNL     1       5.542   0.887   2.042  1.00  0.00    -0.219 NA
ATOM     12  C   UNL     1       5.363   1.606   3.164  1.00  0.00     0.224 A 
ATOM     13  H   UNL     1       5.062  -0.349  -0.308  1.00  0.00     0.168 HD
ENDBRANCH   2   4
BRANCH   2  14
ATOM     14  N   UNL     1      -0.234  -0.111  -0.016  1.00  0.00    -0.266 N 
BRANCH  14  15
ATOM     15  C   UNL     1      -0.187  -1.259   0.941  1.00  0.00     0.139 C 
BRANCH  15  16
ATOM     16  C   UNL     1      -0.115  -2.634   0.278  1.00  0.00     0.010 C 
ATOM     17  C   UNL     1       0.772  -2.840  -0.980  1.00  0.00     0.005 C 
ATOM     18  C   UNL     1      -1.292  -3.195  -0.566  1.00  0.00     0.005 C 
ATOM     19  C   UNL     1      -0.231  -3.929  -1.414  1.00  0.00     0.001 C 
ENDBRANCH  15  16
ENDBRANCH  14  15
BRANCH  14  20
ATOM     20  C   UNL     1      -1.527   0.213  -0.569  1.00  0.00     0.052 A 
ATOM     21  C   UNL     1      -2.628   0.513   0.239  1.00  0.00     0.027 A 
ATOM     22  C   UNL     1      -1.638   0.311  -1.958  1.00  0.00     0.027 A 
ATOM     23  C   UNL     1      -3.847   0.862  -0.346  1.00  0.00     0.002 A 
ATOM     24  C   UNL     1      -2.857   0.660  -2.540  1.00  0.00     0.002 A 
ATOM     25  C   UNL     1      -3.963   0.930  -1.734  1.00  0.00     0.000 A 
ENDBRANCH  14  20
ENDBRANCH   2  14
TORSDOF 5
