REMARK SMILES COCCN(Cc1nc2ccccc2c(=O)[nH]1)C(=O)CCC1CCCC1
REMARK SMILES IDX 5 1 4 2 3 3 2 4 1 5 6 6 7 7 8 8 17 9 9 10 15 11 10 12 14 13
REMARK SMILES IDX 11 14 13 15 12 16 16 18 18 19 19 20 20 21 21 22 22 23 23 24
REMARK SMILES IDX 26 25 24 26 25 27
REMARK H PARENT 17 17
ROOT
ATOM      1  N   UNL     1      -1.266   0.063  -0.806  1.00  0.00    -0.333 N 
ENDROOT
BRANCH   1   2
ATOM      2  C   UNL     1      -2.215  -0.160   0.302  1.00  0.00     0.148 C 
BRANCH   2   3
ATOM      3  C   UNL     1      -3.682   0.048  -0.107  1.00  0.00     0.181 C 
BRANCH   3   4
ATOM      4  O   UNL     1      -3.959   1.448  -0.229  1.00  0.00    -0.383 OA
ATOM      5  C   UNL     1      -5.318   1.676  -0.599  1.00  0.00     0.194 C 
ENDBRANCH   3   4
ENDBRANCH   2   3
ENDBRANCH   1   2
BRANCH   1   6
ATOM      6  C   UNL     1      -1.088   1.435  -1.314  1.00  0.00     0.194 C 
BRANCH   6   7
ATOM      7  C   UNL     1      -0.748   2.459  -0.236  1.00  0.00     0.129 C 
ATOM      8  N   UNL     1       0.482   2.720   0.072  1.00  0.00    -0.233 NA
ATOM      9  N   UNL     1      -1.815   3.062   0.379  1.00  0.00    -0.308 N 
ATOM     10  C   UNL     1       0.723   3.676   1.072  1.00  0.00     0.078 A 
ATOM     11  C   UNL     1      -1.689   3.950   1.414  1.00  0.00     0.258 C 
ATOM     12  C   UNL     1       2.043   4.002   1.388  1.00  0.00     0.029 A 
ATOM     13  C   UNL     1      -0.307   4.314   1.767  1.00  0.00     0.065 A 
ATOM     14  C   UNL     1       2.325   4.946   2.379  1.00  0.00     0.002 A 
ATOM     15  C   UNL     1      -0.039   5.258   2.763  1.00  0.00     0.016 A 
ATOM     16  C   UNL     1       1.285   5.573   3.067  1.00  0.00     0.001 A 
ATOM     17  H   UNL     1      -2.760   2.750   0.166  1.00  0.00     0.171 HD
ATOM     18  O   UNL     1      -2.655   4.399   2.018  1.00  0.00    -0.269 OA
ENDBRANCH   6   7
ENDBRANCH   1   6
BRANCH   1  19
ATOM     19  C   UNL     1      -0.790  -0.961  -1.618  1.00  0.00     0.223 C 
ATOM     20  O   UNL     1      -0.337  -0.743  -2.740  1.00  0.00    -0.275 OA
BRANCH  19  21
ATOM     21  C   UNL     1      -0.869  -2.379  -1.065  1.00  0.00     0.100 C 
BRANCH  21  22
ATOM     22  C   UNL     1      -0.027  -3.387  -1.855  1.00  0.00     0.013 C 
BRANCH  22  23
ATOM     23  C   UNL     1       1.485  -3.181  -1.692  1.00  0.00    -0.011 C 
ATOM     24  C   UNL     1       2.311  -4.183  -2.505  1.00  0.00     0.003 C 
ATOM     25  C   UNL     1       2.002  -3.382  -0.268  1.00  0.00     0.003 C 
ATOM     26  C   UNL     1       3.636  -4.335  -1.756  1.00  0.00     0.000 C 
ATOM     27  C   UNL     1       3.502  -3.525  -0.473  1.00  0.00     0.000 C 
ENDBRANCH  22  23
ENDBRANCH  21  22
ENDBRANCH  19  21
ENDBRANCH   1  19
TORSDOF 9
