REMARK SMILES O=C(C1CCC1)N(Cc1nc2ccccc2c(=O)[nH]1)CC1CCCO1
REMARK SMILES IDX 7 1 2 2 1 3 3 4 4 5 6 6 5 7 8 8 9 9 10 10 19 11 11 12 17 13
REMARK SMILES IDX 12 14 16 15 13 16 15 17 14 18 18 20 20 21 21 22 22 23 25 24
REMARK SMILES IDX 23 25 24 26
REMARK H PARENT 19 19
ROOT
ATOM      1  N   UNL     1      -0.750  -1.940  -1.113  1.00  0.00    -0.332 N 
ENDROOT
BRANCH   1   2
ATOM      2  C   UNL     1       0.049  -2.518  -2.114  1.00  0.00     0.226 C 
ATOM      3  O   UNL     1       0.716  -3.531  -1.832  1.00  0.00    -0.275 OA
BRANCH   2   4
ATOM      4  C   UNL     1       0.152  -1.967  -3.542  1.00  0.00     0.078 C 
ATOM      5  C   UNL     1       0.350  -0.474  -3.872  1.00  0.00     0.013 C 
ATOM      6  C   UNL     1      -1.057  -1.979  -4.502  1.00  0.00     0.013 C 
ATOM      7  C   UNL     1      -0.493  -0.696  -5.144  1.00  0.00     0.002 C 
ENDBRANCH   2   4
ENDBRANCH   1   2
BRANCH   1   8
ATOM      8  C   UNL     1      -1.795  -0.937  -1.341  1.00  0.00     0.194 C 
BRANCH   8   9
ATOM      9  C   UNL     1      -1.613   0.308  -0.476  1.00  0.00     0.129 C 
ATOM     10  N   UNL     1      -0.726   1.201  -0.779  1.00  0.00    -0.233 NA
ATOM     11  N   UNL     1      -2.429   0.409   0.622  1.00  0.00    -0.308 N 
ATOM     12  C   UNL     1      -0.595   2.318   0.063  1.00  0.00     0.078 A 
ATOM     13  C   UNL     1      -2.383   1.461   1.501  1.00  0.00     0.258 C 
ATOM     14  C   UNL     1       0.366   3.283  -0.243  1.00  0.00     0.029 A 
ATOM     15  C   UNL     1      -1.386   2.500   1.200  1.00  0.00     0.065 A 
ATOM     16  C   UNL     1       0.529   4.407   0.574  1.00  0.00     0.002 A 
ATOM     17  C   UNL     1      -1.233   3.618   2.025  1.00  0.00     0.016 A 
ATOM     18  C   UNL     1      -0.270   4.575   1.706  1.00  0.00     0.001 A 
ATOM     19  H   UNL     1      -3.108  -0.305   0.843  1.00  0.00     0.171 HD
ATOM     20  O   UNL     1      -3.123   1.523   2.475  1.00  0.00    -0.269 OA
ENDBRANCH   8   9
ENDBRANCH   1   8
BRANCH   1  21
ATOM     21  C   UNL     1      -0.750  -2.599   0.204  1.00  0.00     0.152 C 
BRANCH  21  22
ATOM     22  C   UNL     1       0.599  -2.655   0.953  1.00  0.00     0.137 C 
ATOM     23  C   UNL     1       1.342  -1.329   1.055  1.00  0.00     0.036 C 
ATOM     24  O   UNL     1       0.321  -3.067   2.316  1.00  0.00    -0.376 OA
ATOM     25  C   UNL     1       0.901  -0.788   2.391  1.00  0.00     0.031 C 
ATOM     26  C   UNL     1       0.795  -2.052   3.210  1.00  0.00     0.160 C 
ENDBRANCH  21  22
ENDBRANCH   1  21
TORSDOF 6
