REMARK SMILES Cc1ccc(NC(=O)c2c(Cl)cccc2OCC2CC2)c(C)n1
REMARK SMILES IDX 9 1 10 2 11 3 12 4 13 5 14 6 15 7 7 8 6 9 8 11 5 12 2 13
REMARK SMILES IDX 3 14 23 15 4 16 21 17 1 18 22 19 16 20 17 21 18 22 19 23
REMARK SMILES IDX 20 24
REMARK H PARENT 6 10
ROOT
ATOM      1  C   UNL     1      -0.060   0.975  -2.039  1.00  0.00     0.100 A 
ATOM      2  C   UNL     1      -0.143   0.936  -3.437  1.00  0.00     0.057 A 
ATOM      3  Cl  UNL     1      -1.447   0.181  -4.284  1.00  0.00    -0.083 Cl
ATOM      4  C   UNL     1       0.890   1.476  -4.214  1.00  0.00     0.021 A 
ATOM      5  C   UNL     1       2.011   2.046  -3.608  1.00  0.00     0.005 A 
ATOM      6  C   UNL     1       2.106   2.081  -2.219  1.00  0.00     0.047 A 
ATOM      7  C   UNL     1       1.068   1.564  -1.442  1.00  0.00     0.133 A 
ENDROOT
BRANCH   1   8
ATOM      8  C   UNL     1      -1.158   0.442  -1.192  1.00  0.00     0.261 C 
ATOM      9  N   UNL     1      -0.745  -0.400  -0.179  1.00  0.00    -0.320 N 
ATOM     10  H   UNL     1       0.243  -0.336   0.046  1.00  0.00     0.170 HD
ATOM     11  O   UNL     1      -2.295   0.840  -1.399  1.00  0.00    -0.269 OA
BRANCH   9  12
ATOM     12  C   UNL     1      -1.544  -1.061   0.781  1.00  0.00     0.062 A 
ATOM     13  C   UNL     1      -2.903  -2.339   2.830  1.00  0.00     0.038 A 
ATOM     14  C   UNL     1      -1.586  -1.967   3.035  1.00  0.00     0.025 A 
ATOM     15  N   UNL     1      -3.535  -2.127   1.656  1.00  0.00    -0.256 NA
ATOM     16  C   UNL     1      -0.906  -1.333   2.000  1.00  0.00     0.030 A 
ATOM     17  C   UNL     1      -2.863  -1.511   0.637  1.00  0.00     0.061 A 
ATOM     18  C   UNL     1      -3.681  -3.012   3.919  1.00  0.00     0.067 C 
ATOM     19  C   UNL     1      -3.648  -1.452  -0.638  1.00  0.00     0.069 C 
ENDBRANCH   9  12
ENDBRANCH   1   8
BRANCH   7  20
ATOM     20  O   UNL     1       1.212   1.573  -0.077  1.00  0.00    -0.492 OA
BRANCH  20  21
ATOM     21  C   UNL     1       0.802   2.838   0.464  1.00  0.00     0.233 C 
BRANCH  21  22
ATOM     22  C   UNL     1       0.533   2.642   1.924  1.00  0.00     0.027 C 
ATOM     23  C   UNL     1       1.669   2.518   2.906  1.00  0.00     0.007 C 
ATOM     24  C   UNL     1       0.804   3.749   2.910  1.00  0.00     0.007 C 
ENDBRANCH  21  22
ENDBRANCH  20  21
ENDBRANCH   7  20
TORSDOF 5
