REMARK SMILES COc1ccncc1NC(=O)c1c(Cl)cccc1OCC1CC1
REMARK SMILES IDX 12 1 13 2 14 3 15 4 16 5 17 6 18 7 10 8 9 9 11 11 8 12 3 13
REMARK SMILES IDX 4 14 5 15 7 16 6 17 2 18 1 19 19 20 20 21 21 22 22 23 23 24
REMARK H PARENT 9 10
ROOT
ATOM      1  C   UNL     1       0.117  -2.347   0.860  1.00  0.00     0.100 A 
ATOM      2  C   UNL     1      -0.202  -3.669   1.199  1.00  0.00     0.057 A 
ATOM      3  Cl  UNL     1      -1.208  -4.085   2.542  1.00  0.00    -0.083 Cl
ATOM      4  C   UNL     1       0.351  -4.731   0.471  1.00  0.00     0.021 A 
ATOM      5  C   UNL     1       1.228  -4.483  -0.585  1.00  0.00     0.005 A 
ATOM      6  C   UNL     1       1.554  -3.172  -0.922  1.00  0.00     0.047 A 
ATOM      7  C   UNL     1       0.984  -2.106  -0.218  1.00  0.00     0.133 A 
ENDROOT
BRANCH   1   8
ATOM      8  C   UNL     1      -0.478  -1.212   1.609  1.00  0.00     0.261 C 
ATOM      9  N   UNL     1       0.437  -0.303   2.093  1.00  0.00    -0.317 N 
ATOM     10  H   UNL     1       1.408  -0.403   1.809  1.00  0.00     0.170 HD
ATOM     11  O   UNL     1      -1.695  -1.151   1.728  1.00  0.00    -0.269 OA
BRANCH   9  12
ATOM     12  C   UNL     1       0.174   0.855   2.856  1.00  0.00     0.102 A 
ATOM     13  C   UNL     1       1.253   1.712   3.133  1.00  0.00     0.145 A 
ATOM     14  C   UNL     1       1.038   2.866   3.883  1.00  0.00     0.069 A 
ATOM     15  C   UNL     1      -0.247   3.128   4.330  1.00  0.00     0.115 A 
ATOM     16  C   UNL     1      -1.074   1.212   3.353  1.00  0.00     0.141 A 
ATOM     17  N   UNL     1      -1.306   2.332   4.085  1.00  0.00    -0.262 NA
BRANCH  13  18
ATOM     18  O   UNL     1       2.469   1.320   2.620  1.00  0.00    -0.494 OA
ATOM     19  C   UNL     1       3.554   2.228   2.768  1.00  0.00     0.278 C 
ENDBRANCH  13  18
ENDBRANCH   9  12
ENDBRANCH   1   8
BRANCH   7  20
ATOM     20  O   UNL     1       1.342  -0.820  -0.535  1.00  0.00    -0.492 OA
BRANCH  20  21
ATOM     21  C   UNL     1       0.860  -0.436  -1.831  1.00  0.00     0.233 C 
BRANCH  21  22
ATOM     22  C   UNL     1       1.043   1.039  -2.055  1.00  0.00     0.027 C 
ATOM     23  C   UNL     1       0.614   2.047  -1.019  1.00  0.00     0.007 C 
ATOM     24  C   UNL     1       2.078   1.850  -1.312  1.00  0.00     0.007 C 
ENDBRANCH  21  22
ENDBRANCH  20  21
ENDBRANCH   7  20
TORSDOF 6
