REMARK SMILES CN(Cc1nc2ccccc2c(=O)[nH]1)C(=O)CCC1CCCC1
REMARK SMILES IDX 1 1 2 2 3 3 4 4 5 5 14 6 6 7 12 8 7 9 11 10 8 11 10 12 9 13
REMARK SMILES IDX 13 15 15 16 16 17 17 18 18 19 19 20 20 21 23 22 21 23 22 24
REMARK H PARENT 14 14
ROOT
ATOM      1  C   UNL     1      -0.918   2.340  -0.430  1.00  0.00     0.147 C 
ATOM      2  N   UNL     1      -0.026   1.259  -0.826  1.00  0.00    -0.338 N 
ENDROOT
BRANCH   2   3
ATOM      3  C   UNL     1      -0.278   0.610  -2.116  1.00  0.00     0.194 C 
BRANCH   3   4
ATOM      4  C   UNL     1      -1.592  -0.166  -2.086  1.00  0.00     0.129 C 
ATOM      5  N   UNL     1      -1.647  -1.383  -1.651  1.00  0.00    -0.233 NA
ATOM      6  N   UNL     1      -2.702   0.523  -2.511  1.00  0.00    -0.308 N 
ATOM      7  C   UNL     1      -2.895  -2.026  -1.627  1.00  0.00     0.078 A 
ATOM      8  C   UNL     1      -3.964  -0.010  -2.520  1.00  0.00     0.258 C 
ATOM      9  C   UNL     1      -2.968  -3.342  -1.168  1.00  0.00     0.029 A 
ATOM     10  C   UNL     1      -4.073  -1.398  -2.042  1.00  0.00     0.065 A 
ATOM     11  C   UNL     1      -4.194  -4.014  -1.126  1.00  0.00     0.002 A 
ATOM     12  C   UNL     1      -5.305  -2.058  -2.005  1.00  0.00     0.016 A 
ATOM     13  C   UNL     1      -5.361  -3.373  -1.545  1.00  0.00     0.001 A 
ATOM     14  H   UNL     1      -2.631   1.471  -2.851  1.00  0.00     0.171 HD
ATOM     15  O   UNL     1      -4.935   0.634  -2.899  1.00  0.00    -0.269 OA
ENDBRANCH   3   4
ENDBRANCH   2   3
BRANCH   2  16
ATOM     16  C   UNL     1       0.862   0.632   0.048  1.00  0.00     0.222 C 
ATOM     17  O   UNL     1       1.568  -0.313  -0.302  1.00  0.00    -0.275 OA
BRANCH  16  18
ATOM     18  C   UNL     1       0.943   1.196   1.462  1.00  0.00     0.100 C 
BRANCH  18  19
ATOM     19  C   UNL     1       1.840   0.351   2.372  1.00  0.00     0.013 C 
BRANCH  19  20
ATOM     20  C   UNL     1       1.831   0.837   3.833  1.00  0.00    -0.011 C 
ATOM     21  C   UNL     1       2.642  -0.092   4.740  1.00  0.00     0.003 C 
ATOM     22  C   UNL     1       2.541   2.174   4.048  1.00  0.00     0.003 C 
ATOM     23  C   UNL     1       4.089   0.368   4.589  1.00  0.00     0.000 C 
ATOM     24  C   UNL     1       4.024   1.824   4.132  1.00  0.00     0.000 C 
ENDBRANCH  19  20
ENDBRANCH  18  19
ENDBRANCH  16  18
ENDBRANCH   2  16
TORSDOF 6
