REMARK SMILES Cc1n[nH]c(NC(=O)c2c(Cl)cccc2OCC2CC2)c1C
REMARK SMILES IDX 9 1 10 2 11 3 12 4 13 5 14 6 15 7 7 8 6 9 8 11 5 12 2 13
REMARK SMILES IDX 3 14 21 15 4 16 1 17 22 18 16 20 17 21 18 22 19 23 20 24
REMARK H PARENT 6 10 4 19
ROOT
ATOM      1  C   UNL     1      -0.098  -0.696   1.962  1.00  0.00     0.100 A 
ATOM      2  C   UNL     1      -0.423  -1.817   2.739  1.00  0.00     0.057 A 
ATOM      3  Cl  UNL     1      -1.693  -2.918   2.332  1.00  0.00    -0.083 Cl
ATOM      4  C   UNL     1       0.337  -2.128   3.876  1.00  0.00     0.021 A 
ATOM      5  C   UNL     1       1.424  -1.334   4.242  1.00  0.00     0.005 A 
ATOM      6  C   UNL     1       1.762  -0.227   3.470  1.00  0.00     0.047 A 
ATOM      7  C   UNL     1       0.993   0.102   2.348  1.00  0.00     0.133 A 
ENDROOT
BRANCH   1   8
ATOM      8  C   UNL     1      -0.911  -0.333   0.772  1.00  0.00     0.262 C 
ATOM      9  N   UNL     1      -0.186  -0.005  -0.362  1.00  0.00    -0.307 N 
ATOM     10  H   UNL     1       0.824   0.067  -0.303  1.00  0.00     0.171 HD
ATOM     11  O   UNL     1      -2.137  -0.311   0.846  1.00  0.00    -0.269 OA
BRANCH   9  12
ATOM     12  C   UNL     1      -0.801   0.371  -1.539  1.00  0.00     0.131 A 
ATOM     13  C   UNL     1      -1.376   1.039  -3.570  1.00  0.00     0.064 A 
ATOM     14  N   UNL     1      -2.533   0.771  -2.952  1.00  0.00    -0.179 NA
ATOM     15  C   UNL     1      -0.251   0.815  -2.724  1.00  0.00     0.014 A 
ATOM     16  N   UNL     1      -2.158   0.372  -1.726  1.00  0.00    -0.262 N 
ATOM     17  C   UNL     1      -1.384   1.520  -4.975  1.00  0.00     0.069 C 
ATOM     18  C   UNL     1       1.182   1.017  -3.039  1.00  0.00     0.050 C 
ATOM     19  H   UNL     1      -2.862   0.115  -1.038  1.00  0.00     0.192 HD
ENDBRANCH   9  12
ENDBRANCH   1   8
BRANCH   7  20
ATOM     20  O   UNL     1       1.376   1.178   1.589  1.00  0.00    -0.492 OA
BRANCH  20  21
ATOM     21  C   UNL     1       1.048   2.428   2.217  1.00  0.00     0.233 C 
BRANCH  21  22
ATOM     22  C   UNL     1      -0.027   3.101   1.419  1.00  0.00     0.027 C 
ATOM     23  C   UNL     1       0.288   3.748   0.094  1.00  0.00     0.007 C 
ATOM     24  C   UNL     1      -0.066   4.602   1.281  1.00  0.00     0.007 C 
ENDBRANCH  21  22
ENDBRANCH  20  21
ENDBRANCH   7  20
TORSDOF 5
