REMARK SMILES O=C(NC(c1ncccn1)C1CC1)c1ccccc1OCC1CC1
REMARK SMILES IDX 14 1 15 2 16 3 17 4 18 5 19 6 2 7 3 8 1 9 4 11 5 12 6 13
REMARK SMILES IDX 10 14 7 15 9 16 8 17 11 18 12 19 13 20 20 21 21 22 22 23
REMARK SMILES IDX 23 24 24 25
REMARK H PARENT 3 10
ROOT
ATOM      1  C   UNL     1      -2.084  -0.841   1.820  1.00  0.00     0.081 A 
ATOM      2  C   UNL     1      -2.924  -1.531   2.714  1.00  0.00     0.018 A 
ATOM      3  C   UNL     1      -2.932  -1.227   4.075  1.00  0.00     0.001 A 
ATOM      4  C   UNL     1      -2.102  -0.225   4.563  1.00  0.00     0.004 A 
ATOM      5  C   UNL     1      -1.259   0.470   3.692  1.00  0.00     0.047 A 
ATOM      6  C   UNL     1      -1.230   0.161   2.323  1.00  0.00     0.132 A 
ENDROOT
BRANCH   1   7
ATOM      7  C   UNL     1      -2.161  -1.260   0.379  1.00  0.00     0.255 C 
ATOM      8  N   UNL     1      -1.415  -0.557  -0.527  1.00  0.00    -0.342 N 
ATOM      9  O   UNL     1      -2.879  -2.202   0.052  1.00  0.00    -0.269 OA
ATOM     10  H   UNL     1      -0.829   0.210  -0.211  1.00  0.00     0.164 HD
BRANCH   8  11
ATOM     11  C   UNL     1      -1.341  -0.887  -1.942  1.00  0.00     0.154 C 
BRANCH  11  12
ATOM     12  C   UNL     1      -1.152   0.367  -2.800  1.00  0.00     0.150 A 
ATOM     13  N   UNL     1      -0.342   1.346  -2.325  1.00  0.00    -0.239 NA
ATOM     14  N   UNL     1      -1.777   0.418  -3.997  1.00  0.00    -0.239 NA
ATOM     15  C   UNL     1      -0.183   2.428  -3.108  1.00  0.00     0.115 A 
ATOM     16  C   UNL     1      -1.579   1.525  -4.734  1.00  0.00     0.115 A 
ATOM     17  C   UNL     1      -0.784   2.572  -4.335  1.00  0.00     0.040 A 
ENDBRANCH  11  12
BRANCH  11  18
ATOM     18  C   UNL     1      -0.166  -1.817  -2.155  1.00  0.00     0.019 C 
ATOM     19  C   UNL     1      -0.295  -3.299  -1.889  1.00  0.00     0.006 C 
ATOM     20  C   UNL     1      -0.156  -2.802  -3.300  1.00  0.00     0.006 C 
ENDBRANCH  11  18
ENDBRANCH   8  11
ENDBRANCH   1   7
BRANCH   6  21
ATOM     21  O   UNL     1      -0.428   0.841   1.443  1.00  0.00    -0.492 OA
BRANCH  21  22
ATOM     22  C   UNL     1       0.818   1.320   1.951  1.00  0.00     0.233 C 
BRANCH  22  23
ATOM     23  C   UNL     1       1.684   1.657   0.775  1.00  0.00     0.027 C 
ATOM     24  C   UNL     1       3.185   1.561   0.865  1.00  0.00     0.007 C 
ATOM     25  C   UNL     1       2.418   0.569   0.034  1.00  0.00     0.007 C 
ENDBRANCH  22  23
ENDBRANCH  21  22
ENDBRANCH   6  21
TORSDOF 7
