REMARK SMILES O=c1[nH]cnc2ccc(NS(=O)(=O)CC3CCCCO3)cc12
REMARK SMILES IDX 10 1 9 3 2 4 3 5 22 6 4 7 21 8 6 9 5 10 7 11 8 12 1 13 11 15
REMARK SMILES IDX 12 16 13 17 14 18 15 19 16 20 20 21 17 22 19 23 18 24
REMARK H PARENT 10 2 3 14
ROOT
ATOM      1  N   UNL     1       0.554  -0.075   0.223  1.00  0.00    -0.283 N 
ATOM      2  H   UNL     1       1.306   0.592   0.047  1.00  0.00     0.180 HD
ENDROOT
BRANCH   1   3
ATOM      3  C   UNL     1      -0.381  -0.240  -0.838  1.00  0.00     0.049 A 
ATOM      4  C   UNL     1      -2.190   1.826  -3.411  1.00  0.00     0.258 C 
ATOM      5  N   UNL     1      -3.153   1.535  -4.343  1.00  0.00    -0.313 N 
ATOM      6  C   UNL     1      -1.740   0.691  -2.587  1.00  0.00     0.068 A 
ATOM      7  C   UNL     1      -3.647   0.276  -4.529  1.00  0.00     0.200 C 
ATOM      8  C   UNL     1      -0.782   0.865  -1.585  1.00  0.00     0.042 A 
ATOM      9  C   UNL     1      -2.312  -0.560  -2.848  1.00  0.00     0.078 A 
ATOM     10  N   UNL     1      -3.279  -0.755  -3.849  1.00  0.00    -0.238 NA
ATOM     11  C   UNL     1      -1.904  -1.652  -2.082  1.00  0.00     0.031 A 
ATOM     12  C   UNL     1      -0.945  -1.494  -1.075  1.00  0.00     0.029 A 
ATOM     13  O   UNL     1      -1.726   2.952  -3.282  1.00  0.00    -0.269 OA
ATOM     14  H   UNL     1      -3.469   2.305  -4.914  1.00  0.00     0.171 HD
ENDBRANCH   1   3
BRANCH   1  15
ATOM     15  S   UNL     1      -0.058   0.166   1.772  1.00  0.00     0.235 S 
ATOM     16  O   UNL     1      -1.427   0.630   1.678  1.00  0.00    -0.207 OA
ATOM     17  O   UNL     1       0.928   0.974   2.459  1.00  0.00    -0.207 OA
BRANCH  15  18
ATOM     18  C   UNL     1      -0.076  -1.456   2.513  1.00  0.00     0.191 C 
BRANCH  18  19
ATOM     19  C   UNL     1       1.220  -2.259   2.492  1.00  0.00     0.135 C 
ATOM     20  C   UNL     1       2.447  -1.597   3.138  1.00  0.00     0.033 C 
ATOM     21  O   UNL     1       1.471  -2.745   1.168  1.00  0.00    -0.377 OA
ATOM     22  C   UNL     1       3.479  -1.155   2.110  1.00  0.00     0.005 C 
ATOM     23  C   UNL     1       2.757  -3.345   1.042  1.00  0.00     0.160 C 
ATOM     24  C   UNL     1       3.849  -2.289   1.157  1.00  0.00     0.029 C 
ENDBRANCH  18  19
ENDBRANCH  15  18
ENDBRANCH   1  15
TORSDOF 4
