REMARK SMILES O=c1[nH]cnc2ccc(NS(=O)(=O)CCOCC3CC3)cc12
REMARK SMILES IDX 14 1 11 2 12 3 13 4 10 5 9 7 2 8 3 9 22 10 4 11 21 12 6 13
REMARK SMILES IDX 5 14 7 15 8 16 1 17 15 19 16 20 17 21 18 22 19 23 20 24
REMARK H PARENT 10 6 3 18
ROOT
ATOM      1  C   UNL     1      -2.333   0.884   1.683  1.00  0.00     0.188 C 
ENDROOT
BRANCH   1   2
ATOM      2  S   UNL     1      -1.522   1.139   3.255  1.00  0.00     0.234 S 
ATOM      3  O   UNL     1      -1.597  -0.076   4.036  1.00  0.00    -0.207 OA
ATOM      4  O   UNL     1      -2.057   2.377   3.788  1.00  0.00    -0.207 OA
BRANCH   2   5
ATOM      5  N   UNL     1       0.065   1.498   2.860  1.00  0.00    -0.283 N 
ATOM      6  H   UNL     1       0.183   2.465   2.556  1.00  0.00     0.180 HD
BRANCH   5   7
ATOM      7  C   UNL     1       0.975   0.532   2.350  1.00  0.00     0.049 A 
ATOM      8  C   UNL     1       3.487   0.289  -0.450  1.00  0.00     0.258 C 
ATOM      9  N   UNL     1       4.345  -0.698  -0.865  1.00  0.00    -0.313 N 
ATOM     10  C   UNL     1       2.670  -0.037   0.731  1.00  0.00     0.068 A 
ATOM     11  C   UNL     1       4.446  -1.904  -0.235  1.00  0.00     0.200 C 
ATOM     12  C   UNL     1       1.749   0.882   1.244  1.00  0.00     0.042 A 
ATOM     13  C   UNL     1       2.848  -1.297   1.309  1.00  0.00     0.078 A 
ATOM     14  N   UNL     1       3.757  -2.240   0.801  1.00  0.00    -0.238 NA
ATOM     15  C   UNL     1       2.094  -1.620   2.436  1.00  0.00     0.031 A 
ATOM     16  C   UNL     1       1.171  -0.708   2.961  1.00  0.00     0.029 A 
ATOM     17  O   UNL     1       3.407   1.369  -1.022  1.00  0.00    -0.269 OA
ATOM     18  H   UNL     1       4.914  -0.486  -1.672  1.00  0.00     0.171 HD
ENDBRANCH   5   7
ENDBRANCH   2   5
ENDBRANCH   1   2
BRANCH   1  19
ATOM     19  C   UNL     1      -2.046  -0.467   1.060  1.00  0.00     0.178 C 
BRANCH  19  20
ATOM     20  O   UNL     1      -1.035  -0.318   0.061  1.00  0.00    -0.380 OA
BRANCH  20  21
ATOM     21  C   UNL     1      -0.649  -1.561  -0.532  1.00  0.00     0.163 C 
BRANCH  21  22
ATOM     22  C   UNL     1      -1.643  -1.972  -1.571  1.00  0.00     0.015 C 
ATOM     23  C   UNL     1      -1.570  -3.353  -2.173  1.00  0.00     0.006 C 
ATOM     24  C   UNL     1      -2.715  -2.989  -1.270  1.00  0.00     0.006 C 
ENDBRANCH  21  22
ENDBRANCH  20  21
ENDBRANCH  19  20
ENDBRANCH   1  19
TORSDOF 7
