REMARK SMILES O=C(Nc1ncc(Oc2ccccc2)cn1)c1ccn(C2CCCC2)n1
REMARK SMILES IDX 4 1 5 2 6 3 7 4 15 5 16 6 3 7 2 8 1 9 17 11 18 12 26 13
REMARK SMILES IDX 19 14 20 15 21 16 22 17 25 18 23 19 24 20 8 21 9 22 10 23
REMARK SMILES IDX 14 24 11 25 13 26 12 27
REMARK H PARENT 3 10
ROOT
ATOM      1  C   UNL     1       0.887   1.788   0.847  1.00  0.00     0.229 A 
ATOM      2  N   UNL     1      -0.331   2.254   1.133  1.00  0.00    -0.217 NA
ATOM      3  C   UNL     1      -0.481   3.595   1.195  1.00  0.00     0.163 A 
ATOM      4  C   UNL     1       0.544   4.485   0.972  1.00  0.00     0.164 A 
ATOM      5  C   UNL     1       1.761   3.902   0.709  1.00  0.00     0.163 A 
ATOM      6  N   UNL     1       1.962   2.566   0.636  1.00  0.00    -0.217 NA
ENDROOT
BRANCH   1   7
ATOM      7  N   UNL     1       1.158   0.435   0.762  1.00  0.00    -0.289 N 
ATOM      8  C   UNL     1       0.246  -0.587   0.879  1.00  0.00     0.278 C 
ATOM      9  O   UNL     1      -0.962  -0.445   1.036  1.00  0.00    -0.267 OA
ATOM     10  H   UNL     1       2.120   0.247   0.541  1.00  0.00     0.173 HD
BRANCH   8  11
ATOM     11  C   UNL     1       0.866  -1.934   0.778  1.00  0.00     0.150 A 
ATOM     12  C   UNL     1       2.238  -2.298   0.908  1.00  0.00     0.056 A 
ATOM     13  N   UNL     1       0.124  -3.033   0.546  1.00  0.00    -0.167 NA
ATOM     14  C   UNL     1       2.281  -3.662   0.738  1.00  0.00     0.110 A 
ATOM     15  N   UNL     1       0.996  -4.056   0.517  1.00  0.00    -0.269 N 
BRANCH  15  16
ATOM     16  C   UNL     1       0.479  -5.392   0.302  1.00  0.00     0.107 C 
ATOM     17  C   UNL     1      -0.159  -5.577  -1.081  1.00  0.00     0.027 C 
ATOM     18  C   UNL     1       1.487  -6.540   0.369  1.00  0.00     0.027 C 
ATOM     19  C   UNL     1      -0.074  -7.075  -1.384  1.00  0.00     0.002 C 
ATOM     20  C   UNL     1       0.713  -7.700  -0.238  1.00  0.00     0.002 C 
ENDBRANCH  15  16
ENDBRANCH   8  11
ENDBRANCH   1   7
BRANCH   4  21
ATOM     21  O   UNL     1       0.476   5.847   1.044  1.00  0.00    -0.454 OA
BRANCH  21  22
ATOM     22  C   UNL     1      -0.734   6.436   0.766  1.00  0.00     0.127 A 
ATOM     23  C   UNL     1      -1.321   6.336  -0.497  1.00  0.00     0.047 A 
ATOM     24  C   UNL     1      -1.329   7.205   1.766  1.00  0.00     0.047 A 
ATOM     25  C   UNL     1      -2.534   6.977  -0.745  1.00  0.00     0.004 A 
ATOM     26  C   UNL     1      -2.543   7.845   1.514  1.00  0.00     0.004 A 
ATOM     27  C   UNL     1      -3.146   7.728   0.261  1.00  0.00     0.000 A 
ENDBRANCH  21  22
ENDBRANCH   4  21
TORSDOF 5
