REMARK SMILES O=C(CNC(=O)C1CCCCC1)Nc1ccc(OCc2ccccc2)cc1
REMARK SMILES IDX 14 1 15 2 16 3 17 4 26 5 27 6 13 7 2 8 1 9 3 11 4 12 5 13
REMARK SMILES IDX 6 15 7 16 8 17 12 18 9 19 11 20 10 21 18 22 19 23 20 24
REMARK SMILES IDX 21 25 25 26 22 27 24 28 23 29
REMARK H PARENT 13 10 4 14
ROOT
ATOM      1  C   UNL     1       0.714  -1.719   1.183  1.00  0.00     0.041 A 
ATOM      2  C   UNL     1       1.800  -0.853   1.006  1.00  0.00     0.030 A 
ATOM      3  C   UNL     1       3.059  -1.343   0.636  1.00  0.00     0.048 A 
ATOM      4  C   UNL     1       3.245  -2.708   0.433  1.00  0.00     0.119 A 
ATOM      5  C   UNL     1       2.167  -3.574   0.626  1.00  0.00     0.048 A 
ATOM      6  C   UNL     1       0.908  -3.085   0.994  1.00  0.00     0.030 A 
ENDROOT
BRANCH   1   7
ATOM      7  N   UNL     1      -0.512  -1.141   1.555  1.00  0.00    -0.325 N 
ATOM      8  C   UNL     1      -1.736  -1.766   1.721  1.00  0.00     0.243 C 
ATOM      9  O   UNL     1      -1.986  -2.956   1.549  1.00  0.00    -0.273 OA
ATOM     10  H   UNL     1      -0.522  -0.123   1.651  1.00  0.00     0.169 HD
BRANCH   8  11
ATOM     11  C   UNL     1      -2.838  -0.786   2.137  1.00  0.00     0.216 C 
BRANCH  11  12
ATOM     12  N   UNL     1      -3.220   0.071   1.027  1.00  0.00    -0.347 N 
ATOM     13  C   UNL     1      -2.474   1.179   0.693  1.00  0.00     0.223 C 
ATOM     14  H   UNL     1      -3.881  -0.300   0.357  1.00  0.00     0.164 HD
ATOM     15  O   UNL     1      -1.476   1.501   1.334  1.00  0.00    -0.275 OA
BRANCH  13  16
ATOM     16  C   UNL     1      -2.973   1.920  -0.547  1.00  0.00     0.078 C 
ATOM     17  C   UNL     1      -2.279   3.284  -0.711  1.00  0.00     0.013 C 
ATOM     18  C   UNL     1      -2.813   1.021  -1.788  1.00  0.00     0.013 C 
ATOM     19  C   UNL     1      -1.025   3.185  -1.573  1.00  0.00     0.001 C 
ATOM     20  C   UNL     1      -2.600   1.828  -3.062  1.00  0.00     0.001 C 
ATOM     21  C   UNL     1      -1.339   2.688  -2.985  1.00  0.00     0.000 C 
ENDBRANCH  13  16
ENDBRANCH  11  12
ENDBRANCH   8  11
ENDBRANCH   1   7
BRANCH   4  22
ATOM     22  O   UNL     1       4.416  -3.318   0.083  1.00  0.00    -0.489 OA
BRANCH  22  23
ATOM     23  C   UNL     1       5.459  -2.510  -0.468  1.00  0.00     0.265 C 
BRANCH  23  24
ATOM     24  C   UNL     1       6.391  -1.934   0.576  1.00  0.00    -0.011 A 
ATOM     25  C   UNL     1       7.058  -0.726   0.325  1.00  0.00     0.007 A 
ATOM     26  C   UNL     1       6.652  -2.612   1.775  1.00  0.00     0.007 A 
ATOM     27  C   UNL     1       7.946  -0.197   1.262  1.00  0.00     0.000 A 
ATOM     28  C   UNL     1       7.541  -2.082   2.712  1.00  0.00     0.000 A 
ATOM     29  C   UNL     1       8.186  -0.875   2.455  1.00  0.00     0.000 A 
ENDBRANCH  23  24
ENDBRANCH  22  23
ENDBRANCH   4  22
TORSDOF 7
