REMARK SMILES O=C(Nc1cccc(OCC2CCCO2)c1)c1cc2ccccc2[nH]1
REMARK SMILES IDX 4 1 5 2 6 3 7 4 8 5 16 6 3 7 2 8 1 9 17 11 18 12 25 13 19 14
REMARK SMILES IDX 24 15 20 16 23 17 21 18 22 19 9 21 10 22 11 23 12 24 15 25
REMARK SMILES IDX 13 26 14 27
REMARK H PARENT 3 10 25 20
ROOT
ATOM      1  C   UNL     1      -1.715  -1.116  -0.755  1.00  0.00     0.045 A 
ATOM      2  C   UNL     1      -2.555  -2.230  -0.742  1.00  0.00     0.026 A 
ATOM      3  C   UNL     1      -2.148  -3.425  -1.338  1.00  0.00     0.006 A 
ATOM      4  C   UNL     1      -0.899  -3.512  -1.949  1.00  0.00     0.046 A 
ATOM      5  C   UNL     1      -0.045  -2.409  -1.974  1.00  0.00     0.121 A 
ATOM      6  C   UNL     1      -0.458  -1.215  -1.376  1.00  0.00     0.072 A 
ENDROOT
BRANCH   1   7
ATOM      7  N   UNL     1      -2.045   0.129  -0.175  1.00  0.00    -0.321 N 
ATOM      8  C   UNL     1      -3.205   0.478   0.488  1.00  0.00     0.272 C 
ATOM      9  O   UNL     1      -4.163  -0.261   0.685  1.00  0.00    -0.267 OA
ATOM     10  H   UNL     1      -1.344   0.850  -0.258  1.00  0.00     0.170 HD
BRANCH   8  11
ATOM     11  C   UNL     1      -3.232   1.850   0.970  1.00  0.00     0.105 A 
ATOM     12  C   UNL     1      -2.325   2.896   0.907  1.00  0.00     0.042 A 
ATOM     13  N   UNL     1      -4.332   2.336   1.647  1.00  0.00    -0.351 N 
ATOM     14  C   UNL     1      -2.894   4.027   1.558  1.00  0.00     0.000 A 
ATOM     15  C   UNL     1      -4.154   3.647   2.013  1.00  0.00     0.046 A 
ATOM     16  C   UNL     1      -2.452   5.341   1.803  1.00  0.00     0.010 A 
ATOM     17  C   UNL     1      -5.003   4.517   2.705  1.00  0.00     0.026 A 
ATOM     18  C   UNL     1      -3.289   6.226   2.494  1.00  0.00     0.001 A 
ATOM     19  C   UNL     1      -4.545   5.817   2.938  1.00  0.00     0.002 A 
ATOM     20  H   UNL     1      -5.156   1.780   1.840  1.00  0.00     0.167 HD
ENDBRANCH   8  11
ENDBRANCH   1   7
BRANCH   5  21
ATOM     21  O   UNL     1       1.148  -2.636  -2.600  1.00  0.00    -0.491 OA
BRANCH  21  22
ATOM     22  C   UNL     1       2.082  -1.562  -2.712  1.00  0.00     0.261 C 
BRANCH  22  23
ATOM     23  C   UNL     1       2.965  -1.435  -1.463  1.00  0.00     0.156 C 
ATOM     24  C   UNL     1       3.865  -2.644  -1.234  1.00  0.00     0.038 C 
ATOM     25  O   UNL     1       3.833  -0.295  -1.621  1.00  0.00    -0.375 OA
ATOM     26  C   UNL     1       5.151  -2.233  -1.908  1.00  0.00     0.031 C 
ATOM     27  C   UNL     1       5.193  -0.750  -1.619  1.00  0.00     0.161 C 
ENDBRANCH  22  23
ENDBRANCH  21  22
ENDBRANCH   5  21
TORSDOF 5
