REMARK SMILES Cn1ncc2c(Nc3cccc(OCC4CCCO4)c3)ncnc21
REMARK SMILES IDX 8 1 9 2 10 3 11 4 12 5 20 6 7 7 6 9 2 10 3 11 24 12 4 13
REMARK SMILES IDX 23 14 5 15 22 16 21 17 1 18 13 19 14 20 15 21 16 22 19 23
REMARK SMILES IDX 17 24 18 25
REMARK H PARENT 7 8
ROOT
ATOM      1  C   UNL     1       1.296   0.673  -2.785  1.00  0.00     0.043 A 
ATOM      2  C   UNL     1       0.828   0.434  -4.083  1.00  0.00     0.026 A 
ATOM      3  C   UNL     1      -0.295  -0.364  -4.303  1.00  0.00     0.006 A 
ATOM      4  C   UNL     1      -0.963  -0.947  -3.225  1.00  0.00     0.046 A 
ATOM      5  C   UNL     1      -0.503  -0.736  -1.927  1.00  0.00     0.121 A 
ATOM      6  C   UNL     1       0.624   0.069  -1.717  1.00  0.00     0.072 A 
ENDROOT
BRANCH   1   7
ATOM      7  N   UNL     1       2.441   1.479  -2.627  1.00  0.00    -0.339 N 
ATOM      8  H   UNL     1       3.242   1.076  -3.108  1.00  0.00     0.168 HD
BRANCH   7   9
ATOM      9  C   UNL     1       2.924   2.104  -1.469  1.00  0.00     0.144 A 
ATOM     10  N   UNL     1       1.851   4.072   1.234  1.00  0.00    -0.250 N 
ATOM     11  N   UNL     1       0.613   3.985   0.696  1.00  0.00    -0.179 NA
ATOM     12  C   UNL     1       2.810   3.417   0.511  1.00  0.00     0.163 A 
ATOM     13  C   UNL     1       0.807   3.238  -0.397  1.00  0.00     0.149 A 
ATOM     14  N   UNL     1       4.127   3.347   0.777  1.00  0.00    -0.217 NA
ATOM     15  C   UNL     1       2.152   2.842  -0.562  1.00  0.00     0.082 A 
ATOM     16  C   UNL     1       4.777   2.645  -0.165  1.00  0.00     0.226 A 
ATOM     17  N   UNL     1       4.263   2.041  -1.256  1.00  0.00    -0.218 NA
ATOM     18  C   UNL     1       2.044   4.825   2.448  1.00  0.00     0.176 C 
ENDBRANCH   7   9
ENDBRANCH   1   7
BRANCH   5  19
ATOM     19  O   UNL     1      -1.052  -1.251  -0.785  1.00  0.00    -0.491 OA
BRANCH  19  20
ATOM     20  C   UNL     1      -2.175  -2.126  -0.932  1.00  0.00     0.261 C 
BRANCH  20  21
ATOM     21  C   UNL     1      -2.644  -2.616   0.441  1.00  0.00     0.156 C 
ATOM     22  C   UNL     1      -1.551  -3.205   1.323  1.00  0.00     0.038 C 
ATOM     23  O   UNL     1      -3.239  -1.536   1.192  1.00  0.00    -0.375 OA
ATOM     24  C   UNL     1      -2.094  -2.942   2.705  1.00  0.00     0.031 C 
ATOM     25  C   UNL     1      -2.728  -1.580   2.531  1.00  0.00     0.161 C 
ENDBRANCH  20  21
ENDBRANCH  19  20
ENDBRANCH   5  19
TORSDOF 5
