REMARK SMILES O=C(c1cccc(Nc2ncccn2)c1)N1CCCC1c1nnc2ccccn12
REMARK SMILES IDX 3 1 4 2 5 3 6 4 7 5 15 6 2 7 1 8 16 9 17 10 20 11 18 12
REMARK SMILES IDX 19 13 21 14 22 15 29 16 23 17 28 18 24 19 27 20 25 21 26 22
REMARK SMILES IDX 8 23 9 25 10 26 14 27 11 28 13 29 12 30
REMARK H PARENT 8 24
ROOT
ATOM      1  C   UNL     1      -0.933   2.639  -0.541  1.00  0.00     0.042 A 
ATOM      2  C   UNL     1      -0.463   3.132  -1.757  1.00  0.00     0.014 A 
ATOM      3  C   UNL     1       0.904   3.325  -1.929  1.00  0.00     0.003 A 
ATOM      4  C   UNL     1       1.785   3.029  -0.883  1.00  0.00     0.026 A 
ATOM      5  C   UNL     1       1.324   2.558   0.358  1.00  0.00     0.042 A 
ATOM      6  C   UNL     1      -0.053   2.376   0.516  1.00  0.00     0.040 A 
ENDROOT
BRANCH   1   7
ATOM      7  C   UNL     1      -2.380   2.402  -0.380  1.00  0.00     0.254 C 
ATOM      8  O   UNL     1      -3.132   3.372  -0.439  1.00  0.00    -0.269 OA
BRANCH   7   9
ATOM      9  N   UNL     1      -2.817   1.107  -0.172  1.00  0.00    -0.328 N 
ATOM     10  C   UNL     1      -4.222   0.843   0.070  1.00  0.00     0.120 C 
ATOM     11  C   UNL     1      -2.030  -0.135  -0.142  1.00  0.00     0.154 C 
ATOM     12  C   UNL     1      -4.228  -0.505   0.769  1.00  0.00     0.024 C 
ATOM     13  C   UNL     1      -3.077  -1.238   0.093  1.00  0.00     0.035 C 
BRANCH  11  14
ATOM     14  C   UNL     1      -1.297  -0.367  -1.419  1.00  0.00     0.160 A 
ATOM     15  N   UNL     1      -1.797  -0.286  -2.641  1.00  0.00    -0.132 NA
ATOM     16  N   UNL     1       0.036  -0.718  -1.500  1.00  0.00    -0.285 N 
ATOM     17  N   UNL     1      -0.796  -0.562  -3.542  1.00  0.00    -0.130 NA
ATOM     18  C   UNL     1       1.005  -0.954  -0.524  1.00  0.00     0.095 C 
ATOM     19  C   UNL     1       0.298  -0.812  -2.861  1.00  0.00     0.160 A 
ATOM     20  C   UNL     1       2.255  -1.274  -0.901  1.00  0.00     0.019 C 
ATOM     21  C   UNL     1       1.621  -1.150  -3.259  1.00  0.00     0.050 C 
ATOM     22  C   UNL     1       2.561  -1.372  -2.320  1.00  0.00     0.005 C 
ENDBRANCH  11  14
ENDBRANCH   7   9
ENDBRANCH   1   7
BRANCH   5  23
ATOM     23  N   UNL     1       2.263   2.205   1.332  1.00  0.00    -0.324 N 
ATOM     24  H   UNL     1       3.175   2.634   1.264  1.00  0.00     0.170 HD
BRANCH  23  25
ATOM     25  C   UNL     1       2.180   1.490   2.522  1.00  0.00     0.227 A 
ATOM     26  N   UNL     1       3.283   1.528   3.288  1.00  0.00    -0.221 NA
ATOM     27  N   UNL     1       1.084   0.780   2.844  1.00  0.00    -0.221 NA
ATOM     28  C   UNL     1       3.255   0.844   4.448  1.00  0.00     0.117 A 
ATOM     29  C   UNL     1       1.103   0.115   4.015  1.00  0.00     0.117 A 
ATOM     30  C   UNL     1       2.175   0.112   4.869  1.00  0.00     0.040 A 
ENDBRANCH  23  25
ENDBRANCH   5  23
TORSDOF 5
