REMARK SMILES O=C(COc1ccc(Nc2ccccc2)cc1)Nc1nnc[nH]1
REMARK SMILES IDX 3 1 2 2 18 3 1 4 19 6 20 7 23 8 21 9 22 10 4 12 5 13 6 14
REMARK SMILES IDX 17 15 7 16 16 17 8 18 9 19 10 21 11 22 15 23 12 24 14 25
REMARK SMILES IDX 13 26
REMARK H PARENT 18 5 23 11 9 20
ROOT
ATOM      1  C   UNL     1      -0.234   3.899  -1.933  1.00  0.00     0.329 C 
ENDROOT
BRANCH   1   2
ATOM      2  C   UNL     1      -1.621   3.337  -1.597  1.00  0.00     0.264 C 
ATOM      3  N   UNL     1      -2.368   4.195  -0.812  1.00  0.00    -0.292 N 
ATOM      4  O   UNL     1      -2.026   2.243  -1.989  1.00  0.00    -0.271 OA
ATOM      5  H   UNL     1      -2.021   5.097  -0.513  1.00  0.00     0.173 HD
BRANCH   3   6
ATOM      6  C   UNL     1      -3.632   3.878  -0.389  1.00  0.00     0.228 A 
ATOM      7  N   UNL     1      -4.406   4.631   0.358  1.00  0.00    -0.112 NA
ATOM      8  N   UNL     1      -4.289   2.714  -0.683  1.00  0.00    -0.314 N 
ATOM      9  N   UNL     1      -5.589   3.950   0.558  1.00  0.00    -0.137 NA
ATOM     10  C   UNL     1      -5.500   2.802  -0.075  1.00  0.00     0.224 A 
ATOM     11  H   UNL     1      -3.913   1.961  -1.246  1.00  0.00     0.171 HD
ENDBRANCH   3   6
ENDBRANCH   1   2
BRANCH   1  12
ATOM     12  O   UNL     1       0.682   2.973  -2.491  1.00  0.00    -0.484 OA
BRANCH  12  13
ATOM     13  C   UNL     1       1.319   2.107  -1.647  1.00  0.00     0.120 A 
ATOM     14  C   UNL     1       2.250   1.274  -2.268  1.00  0.00     0.048 A 
ATOM     15  C   UNL     1       1.123   1.990  -0.274  1.00  0.00     0.048 A 
ATOM     16  C   UNL     1       2.980   0.339  -1.527  1.00  0.00     0.030 A 
ATOM     17  C   UNL     1       1.855   1.050   0.466  1.00  0.00     0.030 A 
ATOM     18  C   UNL     1       2.798   0.217  -0.144  1.00  0.00     0.039 A 
BRANCH  18  19
ATOM     19  N   UNL     1       3.524  -0.759   0.557  1.00  0.00    -0.356 N 
ATOM     20  H   UNL     1       4.398  -1.022   0.116  1.00  0.00     0.167 HD
BRANCH  19  21
ATOM     21  C   UNL     1       3.249  -1.471   1.737  1.00  0.00     0.038 A 
ATOM     22  C   UNL     1       1.951  -1.685   2.215  1.00  0.00     0.026 A 
ATOM     23  C   UNL     1       4.321  -1.946   2.507  1.00  0.00     0.026 A 
ATOM     24  C   UNL     1       1.727  -2.365   3.416  1.00  0.00     0.002 A 
ATOM     25  C   UNL     1       4.102  -2.625   3.710  1.00  0.00     0.002 A 
ATOM     26  C   UNL     1       2.804  -2.834   4.164  1.00  0.00     0.000 A 
ENDBRANCH  19  21
ENDBRANCH  18  19
ENDBRANCH  12  13
ENDBRANCH   1  12
TORSDOF 6
