REMARK SMILES NS(=O)(=O)c1ccc(Nc2nc(-c3ccccc3)c3ccccc3n2)cc1
REMARK SMILES IDX 5 1 6 2 7 3 8 4 26 5 27 6 2 7 3 8 4 9 1 10 9 13 10 15 11 16
REMARK SMILES IDX 25 17 12 18 24 19 19 20 23 21 20 22 22 23 21 24 13 25 14 26
REMARK SMILES IDX 18 27 15 28 17 29 16 30
REMARK H PARENT 1 11 1 12 9 14
ROOT
ATOM      1  C   UNL     1       1.779  -0.950   3.924  1.00  0.00     0.082 A 
ATOM      2  C   UNL     1       1.640   0.356   4.387  1.00  0.00     0.024 A 
ATOM      3  C   UNL     1       1.252   1.361   3.494  1.00  0.00     0.027 A 
ATOM      4  C   UNL     1       1.010   1.086   2.136  1.00  0.00     0.041 A 
ATOM      5  C   UNL     1       1.164  -0.237   1.701  1.00  0.00     0.027 A 
ATOM      6  C   UNL     1       1.553  -1.253   2.582  1.00  0.00     0.024 A 
ENDROOT
BRANCH   1   7
ATOM      7  S   UNL     1       2.263  -2.243   5.035  1.00  0.00     0.238 S 
ATOM      8  O   UNL     1       3.081  -3.187   4.313  1.00  0.00    -0.207 OA
ATOM      9  O   UNL     1       2.678  -1.646   6.284  1.00  0.00    -0.207 OA
BRANCH   7  10
ATOM     10  N   UNL     1       0.782  -2.976   5.361  1.00  0.00    -0.225 NA
ATOM     11  H   UNL     1       0.565  -2.852   6.351  1.00  0.00     0.137 HD
ATOM     12  H   UNL     1       0.028  -2.644   4.761  1.00  0.00     0.137 HD
ENDBRANCH   7  10
ENDBRANCH   1   7
BRANCH   4  13
ATOM     13  N   UNL     1       0.596   2.135   1.309  1.00  0.00    -0.324 N 
ATOM     14  H   UNL     1       0.638   3.068   1.692  1.00  0.00     0.170 HD
BRANCH  13  15
ATOM     15  C   UNL     1       0.216   2.219  -0.027  1.00  0.00     0.228 A 
ATOM     16  N   UNL     1       0.088   1.135  -0.793  1.00  0.00    -0.212 NA
ATOM     17  N   UNL     1      -0.021   3.463  -0.467  1.00  0.00    -0.213 NA
ATOM     18  C   UNL     1      -0.286   1.307  -2.079  1.00  0.00     0.084 A 
ATOM     19  C   UNL     1      -0.408   3.629  -1.737  1.00  0.00     0.076 A 
ATOM     20  C   UNL     1      -0.570   2.565  -2.627  1.00  0.00     0.027 A 
ATOM     21  C   UNL     1      -0.664   4.918  -2.192  1.00  0.00     0.029 A 
ATOM     22  C   UNL     1      -1.005   2.818  -3.954  1.00  0.00     0.012 A 
ATOM     23  C   UNL     1      -1.083   5.173  -3.501  1.00  0.00     0.002 A 
ATOM     24  C   UNL     1      -1.257   4.118  -4.385  1.00  0.00     0.001 A 
BRANCH  18  25
ATOM     25  C   UNL     1      -0.364   0.050  -2.840  1.00  0.00     0.001 A 
ATOM     26  C   UNL     1      -1.326  -0.920  -2.516  1.00  0.00     0.010 A 
ATOM     27  C   UNL     1       0.531  -0.225  -3.887  1.00  0.00     0.010 A 
ATOM     28  C   UNL     1      -1.408  -2.117  -3.231  1.00  0.00     0.001 A 
ATOM     29  C   UNL     1       0.451  -1.423  -4.602  1.00  0.00     0.001 A 
ATOM     30  C   UNL     1      -0.521  -2.366  -4.276  1.00  0.00     0.000 A 
ENDBRANCH  18  25
ENDBRANCH  13  15
ENDBRANCH   4  13
TORSDOF 5
