REMARK SMILES O=C(Nc1ccc2nncn2c1)c1c(Cl)cccc1OCC1CC1
REMARK SMILES IDX 13 1 14 2 15 3 16 4 17 5 18 6 19 7 2 8 3 9 1 10 4 12 5 13
REMARK SMILES IDX 12 14 6 15 11 16 7 17 10 18 8 19 9 20 20 21 21 22 22 23
REMARK SMILES IDX 23 24 24 25
REMARK H PARENT 3 11
ROOT
ATOM      1  C   UNL     1       2.204  -0.106  -0.866  1.00  0.00     0.100 A 
ATOM      2  C   UNL     1       3.569   0.171  -1.044  1.00  0.00     0.057 A 
ATOM      3  Cl  UNL     1       4.164   1.662  -1.691  1.00  0.00    -0.083 Cl
ATOM      4  C   UNL     1       4.532  -0.755  -0.632  1.00  0.00     0.021 A 
ATOM      5  C   UNL     1       4.146  -1.953  -0.038  1.00  0.00     0.005 A 
ATOM      6  C   UNL     1       2.794  -2.231   0.160  1.00  0.00     0.047 A 
ATOM      7  C   UNL     1       1.814  -1.318  -0.249  1.00  0.00     0.133 A 
ENDROOT
BRANCH   1   8
ATOM      8  C   UNL     1       1.174   0.857  -1.359  1.00  0.00     0.260 C 
ATOM      9  N   UNL     1       0.140   1.121  -0.474  1.00  0.00    -0.320 N 
ATOM     10  O   UNL     1       1.286   1.331  -2.484  1.00  0.00    -0.269 OA
ATOM     11  H   UNL     1       0.122   0.537   0.355  1.00  0.00     0.170 HD
BRANCH   9  12
ATOM     12  C   UNL     1      -0.924   1.975  -0.644  1.00  0.00     0.058 C 
ATOM     13  C   UNL     1      -1.947   1.969   0.408  1.00  0.00     0.031 C 
ATOM     14  C   UNL     1      -1.096   2.811  -1.686  1.00  0.00     0.120 C 
ATOM     15  C   UNL     1      -3.036   2.762   0.353  1.00  0.00     0.052 C 
ATOM     16  N   UNL     1      -2.224   3.622  -1.728  1.00  0.00    -0.287 N 
ATOM     17  C   UNL     1      -3.205   3.636  -0.753  1.00  0.00     0.160 A 
ATOM     18  C   UNL     1      -2.634   4.540  -2.653  1.00  0.00     0.230 A 
ATOM     19  N   UNL     1      -4.137   4.505  -1.078  1.00  0.00    -0.131 NA
ATOM     20  N   UNL     1      -3.775   5.077  -2.280  1.00  0.00    -0.138 NA
ENDBRANCH   9  12
ENDBRANCH   1   8
BRANCH   7  21
ATOM     21  O   UNL     1       0.471  -1.514  -0.063  1.00  0.00    -0.492 OA
BRANCH  21  22
ATOM     22  C   UNL     1       0.021  -2.806   0.342  1.00  0.00     0.233 C 
BRANCH  22  23
ATOM     23  C   UNL     1      -1.477  -2.785   0.324  1.00  0.00     0.027 C 
ATOM     24  C   UNL     1      -2.249  -2.189   1.473  1.00  0.00     0.007 C 
ATOM     25  C   UNL     1      -2.272  -3.676   1.243  1.00  0.00     0.007 C 
ENDBRANCH  22  23
ENDBRANCH  21  22
ENDBRANCH   7  21
TORSDOF 5
