REMARK SMILES O=C(Nc1ccccc1)C1CCC[NH+]1Cc1nc2ccccc2c(=O)[nH]1
REMARK SMILES IDX 10 1 11 2 12 3 13 4 14 5 2 7 3 8 1 9 4 11 5 12 9 13 6 14
REMARK SMILES IDX 8 15 7 16 15 17 16 18 17 19 26 20 18 21 24 22 19 23 23 24
REMARK SMILES IDX 20 25 22 26 21 27 25 29
REMARK H PARENT 14 6 3 10 26 28
ROOT
ATOM      1  C   UNL     1      -1.010  -1.977  -0.730  1.00  0.00     0.275 C 
ATOM      2  C   UNL     1      -0.916  -3.493  -0.895  1.00  0.00     0.081 C 
ATOM      3  C   UNL     1      -1.840  -4.066   0.168  1.00  0.00     0.068 C 
ATOM      4  C   UNL     1      -2.995  -3.089   0.196  1.00  0.00     0.263 C 
ATOM      5  N   UNL     1      -2.313  -1.764   0.084  1.00  0.00    -0.318 N 
ATOM      6  H   UNL     1      -1.947  -1.512   1.025  1.00  0.00     0.349 HD
ENDROOT
BRANCH   1   7
ATOM      7  C   UNL     1       0.171  -1.393   0.067  1.00  0.00     0.282 C 
ATOM      8  N   UNL     1       1.346  -1.274  -0.640  1.00  0.00    -0.321 N 
ATOM      9  O   UNL     1      -0.048  -1.085   1.241  1.00  0.00    -0.268 OA
ATOM     10  H   UNL     1       1.364  -1.583  -1.605  1.00  0.00     0.170 HD
BRANCH   8  11
ATOM     11  C   UNL     1       2.552  -0.694  -0.188  1.00  0.00     0.041 A 
ATOM     12  C   UNL     1       2.731  -0.149   1.085  1.00  0.00     0.026 A 
ATOM     13  C   UNL     1       3.622  -0.662  -1.093  1.00  0.00     0.026 A 
ATOM     14  C   UNL     1       3.957   0.418   1.447  1.00  0.00     0.002 A 
ATOM     15  C   UNL     1       4.847  -0.096  -0.730  1.00  0.00     0.002 A 
ATOM     16  C   UNL     1       5.014   0.444   0.541  1.00  0.00     0.000 A 
ENDBRANCH   8  11
ENDBRANCH   1   7
BRANCH   5  17
ATOM     17  C   UNL     1      -3.175  -0.608  -0.370  1.00  0.00     0.339 C 
BRANCH  17  18
ATOM     18  C   UNL     1      -2.430   0.723  -0.268  1.00  0.00     0.165 C 
ATOM     19  N   UNL     1      -1.468   0.975  -1.097  1.00  0.00    -0.229 NA
ATOM     20  N   UNL     1      -2.787   1.560   0.752  1.00  0.00    -0.305 N 
ATOM     21  C   UNL     1      -0.754   2.179  -0.930  1.00  0.00     0.078 A 
ATOM     22  C   UNL     1      -2.161   2.759   0.991  1.00  0.00     0.258 C 
ATOM     23  C   UNL     1       0.299   2.467  -1.799  1.00  0.00     0.029 A 
ATOM     24  C   UNL     1      -1.050   3.092   0.087  1.00  0.00     0.065 A 
ATOM     25  C   UNL     1       1.040   3.644  -1.650  1.00  0.00     0.002 A 
ATOM     26  C   UNL     1      -0.320   4.273   0.244  1.00  0.00     0.016 A 
ATOM     27  C   UNL     1       0.730   4.545  -0.630  1.00  0.00     0.001 A 
ATOM     28  H   UNL     1      -3.548   1.368   1.391  1.00  0.00     0.171 HD
ATOM     29  O   UNL     1      -2.519   3.489   1.905  1.00  0.00    -0.269 OA
ENDBRANCH  17  18
ENDBRANCH   5  17
TORSDOF 4
