REMARK SMILES c1coc(C(CNc2ncnc3nc[nH]c23)[NH+]2CCCCC2)c1
REMARK SMILES IDX 6 1 5 2 4 3 1 4 2 5 23 6 3 7 17 8 18 9 22 10 19 11 21 12
REMARK SMILES IDX 20 13 7 15 8 17 9 18 16 19 10 20 15 21 12 22 11 23 14 24
REMARK SMILES IDX 13 25
REMARK H PARENT 17 14 7 16 15 26
ROOT
ATOM      1  C   UNL     1       0.379   1.911   0.109  1.00  0.00     0.188 C 
ENDROOT
BRANCH   1   2
ATOM      2  C   UNL     1       0.035   0.507   0.733  1.00  0.00     0.270 C 
BRANCH   2   3
ATOM      3  C   UNL     1       0.131   0.586   2.235  1.00  0.00     0.162 A 
ATOM      4  C   UNL     1       0.112   0.958   4.448  1.00  0.00     0.042 A 
ATOM      5  C   UNL     1       0.684  -0.263   4.183  1.00  0.00     0.195 A 
ATOM      6  C   UNL     1      -0.254   1.507   3.193  1.00  0.00     0.052 A 
ATOM      7  O   UNL     1       0.686  -0.502   2.848  1.00  0.00    -0.463 OA
ENDBRANCH   2   3
BRANCH   2   8
ATOM      8  N   UNL     1      -1.367   0.022   0.254  1.00  0.00    -0.325 N 
ATOM      9  C   UNL     1      -1.984  -1.089   1.087  1.00  0.00     0.262 C 
ATOM     10  C   UNL     1      -1.423  -0.341  -1.218  1.00  0.00     0.262 C 
ATOM     11  C   UNL     1      -1.285  -2.418   0.844  1.00  0.00     0.062 C 
ATOM     12  C   UNL     1      -0.751  -1.680  -1.497  1.00  0.00     0.062 C 
ATOM     13  C   UNL     1      -1.318  -2.797  -0.631  1.00  0.00     0.012 C 
ATOM     14  H   UNL     1      -1.985   0.829   0.388  1.00  0.00     0.348 HD
ENDBRANCH   2   8
ENDBRANCH   1   2
BRANCH   1  15
ATOM     15  N   UNL     1       1.818   2.186   0.101  1.00  0.00    -0.362 N 
ATOM     16  H   UNL     1       2.068   3.166   0.208  1.00  0.00     0.162 HD
BRANCH  15  17
ATOM     17  C   UNL     1       2.540   1.581  -0.926  1.00  0.00     0.155 A 
ATOM     18  N   UNL     1       1.982   0.614  -1.691  1.00  0.00    -0.217 NA
ATOM     19  C   UNL     1       3.850   1.919  -1.216  1.00  0.00     0.128 A 
ATOM     20  C   UNL     1       2.722   0.070  -2.687  1.00  0.00     0.226 A 
ATOM     21  N   UNL     1       4.770   2.780  -0.678  1.00  0.00    -0.340 N 
ATOM     22  C   UNL     1       4.525   1.305  -2.256  1.00  0.00     0.182 A 
ATOM     23  N   UNL     1       3.976   0.360  -3.035  1.00  0.00    -0.215 NA
ATOM     24  C   UNL     1       5.922   2.667  -1.408  1.00  0.00     0.199 A 
ATOM     25  N   UNL     1       5.798   1.785  -2.373  1.00  0.00    -0.217 NA
ATOM     26  H   UNL     1       4.641   3.373   0.129  1.00  0.00     0.168 HD
ENDBRANCH  15  17
ENDBRANCH   1  15
TORSDOF 5
