REMARK SMILES c1ccc(C[NH+]2CCOC(CNc3ncnc4nc[nH]c34)C2)cc1
REMARK SMILES IDX 11 1 10 2 6 3 7 4 22 5 8 6 9 7 5 9 4 10 1 11 2 12 24 13 3 14
REMARK SMILES IDX 23 15 12 16 13 18 14 19 21 20 15 21 20 22 17 23 16 24 19 25
REMARK SMILES IDX 18 26
REMARK H PARENT 6 8 12 17 20 27
ROOT
ATOM      1  C   UNL     1      -1.304   1.142  -1.107  1.00  0.00     0.152 C 
ENDROOT
BRANCH   1   2
ATOM      2  C   UNL     1      -1.326   0.873   0.407  1.00  0.00     0.192 C 
ATOM      3  N   UNL     1       0.195   1.072   2.438  1.00  0.00    -0.327 N 
ATOM      4  C   UNL     1      -0.936   0.240   3.015  1.00  0.00     0.291 C 
ATOM      5  C   UNL     1      -0.218   1.694   1.102  1.00  0.00     0.296 C 
ATOM      6  C   UNL     1      -1.351  -0.870   2.034  1.00  0.00     0.222 C 
ATOM      7  O   UNL     1      -1.129  -0.531   0.655  1.00  0.00    -0.365 OA
ATOM      8  H   UNL     1       0.371   1.837   3.099  1.00  0.00     0.348 HD
BRANCH   3   9
ATOM      9  C   UNL     1       1.511   0.320   2.329  1.00  0.00     0.299 C 
BRANCH   9  10
ATOM     10  C   UNL     1       2.034  -0.156   3.656  1.00  0.00     0.006 A 
ATOM     11  C   UNL     1       2.959  -1.040   6.152  1.00  0.00     0.000 A 
ATOM     12  C   UNL     1       2.975   0.318   5.845  1.00  0.00     0.001 A 
ATOM     13  C   UNL     1       2.491  -1.960   5.217  1.00  0.00     0.001 A 
ATOM     14  C   UNL     1       2.517   0.761   4.604  1.00  0.00     0.009 A 
ATOM     15  C   UNL     1       2.032  -1.523   3.974  1.00  0.00     0.009 A 
ENDBRANCH   9  10
ENDBRANCH   3   9
ENDBRANCH   1   2
BRANCH   1  16
ATOM     16  N   UNL     1      -2.456   0.499  -1.737  1.00  0.00    -0.365 N 
ATOM     17  H   UNL     1      -2.502  -0.501  -1.559  1.00  0.00     0.162 HD
BRANCH  16  18
ATOM     18  C   UNL     1      -2.575   0.770  -3.104  1.00  0.00     0.155 A 
ATOM     19  N   UNL     1      -1.889   1.782  -3.678  1.00  0.00    -0.217 NA
ATOM     20  C   UNL     1      -3.400   0.038  -3.940  1.00  0.00     0.128 A 
ATOM     21  C   UNL     1      -2.032   2.000  -5.005  1.00  0.00     0.226 A 
ATOM     22  N   UNL     1      -4.272  -1.003  -3.768  1.00  0.00    -0.340 N 
ATOM     23  C   UNL     1      -3.479   0.331  -5.290  1.00  0.00     0.182 A 
ATOM     24  N   UNL     1      -2.787   1.323  -5.873  1.00  0.00    -0.215 NA
ATOM     25  C   UNL     1      -4.810  -1.303  -4.989  1.00  0.00     0.199 A 
ATOM     26  N   UNL     1      -4.343  -0.514  -5.930  1.00  0.00    -0.217 NA
ATOM     27  H   UNL     1      -4.501  -1.455  -2.895  1.00  0.00     0.168 HD
ENDBRANCH  16  18
ENDBRANCH   1  16
TORSDOF 5
