REMARK SMILES O=C(c1cccc2nc[nH]c12)N1CC[C@H](Nc2ncc(Cl)cn2)C1
REMARK SMILES IDX 12 1 13 2 14 3 15 4 24 5 2 6 1 7 3 8 4 9 11 10 5 11 10 12
REMARK SMILES IDX 7 13 6 14 9 15 8 16 16 18 17 20 18 21 23 22 19 23 22 24
REMARK SMILES IDX 20 25 21 26
REMARK H PARENT 10 17 16 19
ROOT
ATOM      1  N   UNL     1       1.121  -0.738   1.275  1.00  0.00    -0.336 N 
ATOM      2  C   UNL     1       1.278  -1.524   2.484  1.00  0.00     0.122 C 
ATOM      3  C   UNL     1       0.391  -2.737   2.263  1.00  0.00     0.048 C 
ATOM      4  C   UNL     1      -0.782  -2.159   1.464  1.00  0.00     0.103 C 
ATOM      5  C   UNL     1      -0.088  -1.130   0.553  1.00  0.00     0.144 C 
ENDROOT
BRANCH   1   6
ATOM      6  C   UNL     1       1.834   0.433   1.105  1.00  0.00     0.256 C 
ATOM      7  O   UNL     1       2.666   0.844   1.907  1.00  0.00    -0.269 OA
BRANCH   6   8
ATOM      8  C   UNL     1       1.576   1.220  -0.111  1.00  0.00     0.065 A 
ATOM      9  C   UNL     1       1.041   2.512  -0.017  1.00  0.00     0.016 A 
ATOM     10  C   UNL     1       1.876   0.728  -1.384  1.00  0.00     0.078 A 
ATOM     11  C   UNL     1       0.778   3.257  -1.168  1.00  0.00     0.003 A 
ATOM     12  N   UNL     1       2.455  -0.433  -1.831  1.00  0.00    -0.344 N 
ATOM     13  C   UNL     1       1.619   1.453  -2.542  1.00  0.00     0.089 A 
ATOM     14  C   UNL     1       1.054   2.735  -2.440  1.00  0.00     0.030 A 
ATOM     15  C   UNL     1       2.493  -0.383  -3.196  1.00  0.00     0.197 A 
ATOM     16  N   UNL     1       1.990   0.740  -3.655  1.00  0.00    -0.237 NA
ATOM     17  H   UNL     1       2.800  -1.184  -1.250  1.00  0.00     0.168 HD
ENDBRANCH   6   8
ENDBRANCH   1   6
BRANCH   4  18
ATOM     18  N   UNL     1      -1.471  -3.218   0.745  1.00  0.00    -0.350 N 
ATOM     19  H   UNL     1      -0.901  -3.833   0.175  1.00  0.00     0.164 HD
BRANCH  18  20
ATOM     20  C   UNL     1      -2.535  -2.818  -0.044  1.00  0.00     0.222 A 
ATOM     21  N   UNL     1      -2.743  -3.551  -1.146  1.00  0.00    -0.220 NA
ATOM     22  N   UNL     1      -3.263  -1.742   0.288  1.00  0.00    -0.220 NA
ATOM     23  C   UNL     1      -3.774  -3.182  -1.941  1.00  0.00     0.137 A 
ATOM     24  C   UNL     1      -4.283  -1.413  -0.537  1.00  0.00     0.137 A 
ATOM     25  C   UNL     1      -4.589  -2.108  -1.680  1.00  0.00     0.077 A 
ATOM     26  Cl  UNL     1      -5.882  -1.668  -2.704  1.00  0.00    -0.081 Cl
ENDBRANCH  18  20
ENDBRANCH   4  18
TORSDOF 4
