REMARK SMILES CCOC(=O)Nc1ccc(Nc2nc(C3CC3)nc3ccccc23)cc1
REMARK SMILES IDX 7 1 8 2 9 3 10 4 25 5 26 6 6 7 4 8 5 9 3 11 2 12 1 13 11 14
REMARK SMILES IDX 12 16 13 17 24 18 14 19 23 20 19 21 18 22 22 23 20 24 21 25
REMARK SMILES IDX 15 26 16 27 17 28
REMARK H PARENT 6 10 11 15
ROOT
ATOM      1  C   UNL     1       3.010  -0.323  -0.724  1.00  0.00     0.044 A 
ATOM      2  C   UNL     1       2.670  -1.584  -0.239  1.00  0.00     0.028 A 
ATOM      3  C   UNL     1       1.347  -1.868   0.129  1.00  0.00     0.028 A 
ATOM      4  C   UNL     1       0.330  -0.913  -0.002  1.00  0.00     0.040 A 
ATOM      5  C   UNL     1       0.692   0.359  -0.453  1.00  0.00     0.028 A 
ATOM      6  C   UNL     1       2.011   0.648  -0.824  1.00  0.00     0.028 A 
ENDROOT
BRANCH   1   7
ATOM      7  N   UNL     1       4.308   0.043  -1.114  1.00  0.00    -0.291 N 
ATOM      8  C   UNL     1       5.447  -0.711  -1.094  1.00  0.00     0.411 C 
ATOM      9  O   UNL     1       5.578  -1.868  -0.727  1.00  0.00    -0.224 OA
ATOM     10  H   UNL     1       4.454   0.982  -1.455  1.00  0.00     0.173 HD
BRANCH   8  11
ATOM     11  O   UNL     1       6.466   0.063  -1.559  1.00  0.00    -0.450 OA
BRANCH  11  12
ATOM     12  C   UNL     1       7.758  -0.561  -1.606  1.00  0.00     0.231 C 
ATOM     13  C   UNL     1       8.455  -0.424  -0.265  1.00  0.00     0.049 C 
ENDBRANCH  11  12
ENDBRANCH   8  11
ENDBRANCH   1   7
BRANCH   4  14
ATOM     14  N   UNL     1      -0.970  -1.230   0.447  1.00  0.00    -0.340 N 
ATOM     15  H   UNL     1      -1.094  -2.233   0.537  1.00  0.00     0.168 HD
BRANCH  14  16
ATOM     16  C   UNL     1      -2.211  -0.651   0.062  1.00  0.00     0.142 A 
ATOM     17  N   UNL     1      -2.261   0.146  -1.020  1.00  0.00    -0.215 NA
ATOM     18  C   UNL     1      -3.356  -0.937   0.826  1.00  0.00     0.043 A 
ATOM     19  C   UNL     1      -3.445   0.668  -1.380  1.00  0.00     0.134 A 
ATOM     20  C   UNL     1      -3.386  -1.737   1.999  1.00  0.00     0.014 A 
ATOM     21  C   UNL     1      -4.540  -0.358   0.361  1.00  0.00     0.076 A 
ATOM     22  N   UNL     1      -4.589   0.424  -0.719  1.00  0.00    -0.232 NA
ATOM     23  C   UNL     1      -4.580  -1.967   2.679  1.00  0.00     0.001 A 
ATOM     24  C   UNL     1      -5.720  -0.603   1.055  1.00  0.00     0.029 A 
ATOM     25  C   UNL     1      -5.753  -1.401   2.202  1.00  0.00     0.002 A 
BRANCH  19  26
ATOM     26  C   UNL     1      -3.498   1.561  -2.595  1.00  0.00     0.058 C 
ATOM     27  C   UNL     1      -2.524   2.708  -2.745  1.00  0.00     0.012 C 
ATOM     28  C   UNL     1      -3.968   2.992  -2.460  1.00  0.00     0.012 C 
ENDBRANCH  19  26
ENDBRANCH  14  16
ENDBRANCH   4  14
TORSDOF 6
