REMARK SMILES O=C(CCc1nc2ccccc2c(=O)[nH]1)NC(c1ccccc1)C1CCCCC1
REMARK SMILES IDX 3 1 2 2 16 3 1 4 17 6 18 7 19 8 23 9 20 10 22 11 21 12 24 13
REMARK SMILES IDX 25 14 29 15 26 16 28 17 27 18 4 19 5 20 6 21 15 22 7 23
REMARK SMILES IDX 13 24 8 25 12 26 9 27 11 28 10 29 14 31
REMARK H PARENT 16 5 15 30
ROOT
ATOM      1  C   UNL     1      -2.763   1.787   0.123  1.00  0.00     0.108 C 
ENDROOT
BRANCH   1   2
ATOM      2  C   UNL     1      -1.818   1.052  -0.813  1.00  0.00     0.220 C 
ATOM      3  N   UNL     1      -0.555   1.597  -0.845  1.00  0.00    -0.349 N 
ATOM      4  O   UNL     1      -2.167   0.069  -1.466  1.00  0.00    -0.275 OA
ATOM      5  H   UNL     1      -0.371   2.446  -0.320  1.00  0.00     0.164 HD
BRANCH   3   6
ATOM      6  C   UNL     1       0.537   1.056  -1.658  1.00  0.00     0.115 C 
BRANCH   6   7
ATOM      7  C   UNL     1       1.084   2.197  -2.509  1.00  0.00    -0.025 A 
ATOM      8  C   UNL     1       0.858   2.192  -3.899  1.00  0.00     0.006 A 
ATOM      9  C   UNL     1       1.787   3.280  -1.943  1.00  0.00     0.006 A 
ATOM     10  C   UNL     1       1.330   3.232  -4.704  1.00  0.00     0.000 A 
ATOM     11  C   UNL     1       2.256   4.320  -2.751  1.00  0.00     0.000 A 
ATOM     12  C   UNL     1       2.027   4.295  -4.130  1.00  0.00     0.000 A 
ENDBRANCH   6   7
BRANCH   6  13
ATOM     13  C   UNL     1       1.613   0.362  -0.760  1.00  0.00     0.016 C 
ATOM     14  C   UNL     1       1.043  -0.843   0.024  1.00  0.00     0.006 C 
ATOM     15  C   UNL     1       2.858  -0.108  -1.549  1.00  0.00     0.006 C 
ATOM     16  C   UNL     1       0.755  -2.057  -0.865  1.00  0.00     0.000 C 
ATOM     17  C   UNL     1       2.563  -1.295  -2.467  1.00  0.00     0.000 C 
ATOM     18  C   UNL     1       1.984  -2.467  -1.679  1.00  0.00     0.000 C 
ENDBRANCH   6  13
ENDBRANCH   3   6
ENDBRANCH   1   2
BRANCH   1  19
ATOM     19  C   UNL     1      -3.840   0.854   0.667  1.00  0.00     0.085 C 
BRANCH  19  20
ATOM     20  C   UNL     1      -3.195  -0.239   1.489  1.00  0.00     0.110 C 
ATOM     21  N   UNL     1      -2.843  -0.014   2.716  1.00  0.00    -0.235 NA
ATOM     22  N   UNL     1      -2.977  -1.427   0.843  1.00  0.00    -0.310 N 
ATOM     23  C   UNL     1      -2.208  -1.055   3.415  1.00  0.00     0.078 A 
ATOM     24  C   UNL     1      -2.349  -2.497   1.427  1.00  0.00     0.258 C 
ATOM     25  C   UNL     1      -1.825  -0.842   4.745  1.00  0.00     0.029 A 
ATOM     26  C   UNL     1      -1.928  -2.296   2.827  1.00  0.00     0.065 A 
ATOM     27  C   UNL     1      -1.183  -1.850   5.473  1.00  0.00     0.002 A 
ATOM     28  C   UNL     1      -1.281  -3.310   3.543  1.00  0.00     0.016 A 
ATOM     29  C   UNL     1      -0.909  -3.082   4.873  1.00  0.00     0.001 A 
ATOM     30  H   UNL     1      -3.137  -1.503  -0.158  1.00  0.00     0.171 HD
ATOM     31  O   UNL     1      -2.156  -3.554   0.832  1.00  0.00    -0.269 OA
ENDBRANCH  19  20
ENDBRANCH   1  19
TORSDOF 6
