REMARK SMILES c1cc(NC2CC[NH2+]CC2)nc(Nc2ccc(OC3CCOC3)cc2)n1
REMARK SMILES IDX 1 1 2 2 3 3 11 4 12 5 26 6 4 7 5 9 6 10 10 11 7 12 9 13 8 14
REMARK SMILES IDX 13 17 14 19 15 20 25 21 16 22 24 23 17 24 18 25 19 26 20 27
REMARK SMILES IDX 23 28 21 29 22 30
REMARK H PARENT 4 8 8 15 8 16 13 18
ROOT
ATOM      1  C   UNL     1       1.626   0.023  -5.369  1.00  0.00     0.119 A 
ATOM      2  C   UNL     1       1.020  -1.156  -5.009  1.00  0.00     0.067 A 
ATOM      3  C   UNL     1       0.691  -1.286  -3.679  1.00  0.00     0.131 A 
ATOM      4  N   UNL     1       0.944  -0.310  -2.796  1.00  0.00    -0.196 NA
ATOM      5  C   UNL     1       1.538   0.815  -3.227  1.00  0.00     0.229 A 
ATOM      6  N   UNL     1       1.899   1.011  -4.500  1.00  0.00    -0.221 NA
ENDROOT
BRANCH   3   7
ATOM      7  N   UNL     1       0.123  -2.502  -3.235  1.00  0.00    -0.367 N 
ATOM      8  H   UNL     1      -0.694  -2.685  -3.817  1.00  0.00     0.162 HD
BRANCH   7   9
ATOM      9  C   UNL     1      -0.143  -2.565  -1.794  1.00  0.00     0.091 C 
ATOM     10  C   UNL     1       1.179  -2.710  -1.008  1.00  0.00     0.086 C 
ATOM     11  C   UNL     1      -1.072  -3.743  -1.495  1.00  0.00     0.086 C 
ATOM     12  C   UNL     1       1.058  -3.576   0.231  1.00  0.00     0.262 C 
ATOM     13  C   UNL     1      -1.425  -3.805  -0.013  1.00  0.00     0.262 C 
ATOM     14  N   UNL     1      -0.281  -3.371   0.846  1.00  0.00    -0.346 N 
ATOM     15  H   UNL     1      -0.323  -3.870   1.747  1.00  0.00     0.346 HD
ATOM     16  H   UNL     1      -0.380  -2.374   1.095  1.00  0.00     0.346 HD
ENDBRANCH   7   9
ENDBRANCH   3   7
BRANCH   5  17
ATOM     17  N   UNL     1       1.871   1.828  -2.333  1.00  0.00    -0.324 N 
ATOM     18  H   UNL     1       2.418   2.537  -2.802  1.00  0.00     0.170 HD
BRANCH  17  19
ATOM     19  C   UNL     1       1.515   2.062  -1.001  1.00  0.00     0.041 A 
ATOM     20  C   UNL     1       0.415   1.450  -0.386  1.00  0.00     0.030 A 
ATOM     21  C   UNL     1       2.341   2.874  -0.209  1.00  0.00     0.030 A 
ATOM     22  C   UNL     1       0.134   1.656   0.967  1.00  0.00     0.048 A 
ATOM     23  C   UNL     1       2.070   3.081   1.148  1.00  0.00     0.048 A 
ATOM     24  C   UNL     1       0.954   2.485   1.724  1.00  0.00     0.120 A 
BRANCH  24  25
ATOM     25  O   UNL     1       0.670   2.611   3.054  1.00  0.00    -0.488 OA
BRANCH  25  26
ATOM     26  C   UNL     1       0.296   3.952   3.422  1.00  0.00     0.201 C 
ATOM     27  C   UNL     1       0.403   4.057   4.928  1.00  0.00     0.076 C 
ATOM     28  C   UNL     1      -1.199   4.179   3.220  1.00  0.00     0.205 C 
ATOM     29  C   UNL     1      -0.881   3.396   5.388  1.00  0.00     0.164 C 
ATOM     30  O   UNL     1      -1.867   3.633   4.373  1.00  0.00    -0.377 OA
ENDBRANCH  25  26
ENDBRANCH  24  25
ENDBRANCH  17  19
ENDBRANCH   5  17
TORSDOF 6
