REMARK SMILES CC(c1nc2ccccc2c(=O)[nH]1)[NH+]1CCC(C[NH+]2CCCCCC2)CC1
REMARK SMILES IDX 18 1 17 2 14 3 15 4 27 5 16 6 26 7 2 9 1 10 3 11 4 12 13 13
REMARK SMILES IDX 5 14 11 15 6 16 10 17 7 18 9 19 8 20 12 22 19 23 20 25 21 26
REMARK SMILES IDX 25 28 24 29 23 30 22 31
REMARK H PARENT 14 8 13 21 19 24
REMARK Flexibility Score:   85.900
ROOT
ATOM      1  C   UNL     1       1.895   0.463   1.794  1.00  0.00     0.266 C 
ENDROOT
BRANCH   1   2
ATOM      2  C   UNL     1       0.392   0.726   1.526  1.00  0.00     0.055 C 
ATOM      3  N   UNL     1      -0.314   0.890  -1.348  1.00  0.00    -0.326 N 
ATOM      4  C   UNL     1       0.070  -0.441  -0.744  1.00  0.00     0.263 C 
ATOM      5  C   UNL     1       0.393   2.041  -0.704  1.00  0.00     0.263 C 
ATOM      6  C   UNL     1      -0.255  -0.433   0.744  1.00  0.00     0.071 C 
ATOM      7  C   UNL     1       0.111   2.055   0.802  1.00  0.00     0.071 C 
ATOM      8  H   UNL     1      -1.338   0.994  -1.182  1.00  0.00     0.348 HD
BRANCH   3   9
ATOM      9  C   UNL     1      -0.281   0.815  -2.905  1.00  0.00     0.248 C 
ATOM     10  C   UNL     1      -0.236   2.195  -3.550  1.00  0.00     0.084 C 
BRANCH   9  11
ATOM     11  C   UNL     1      -1.558   0.099  -3.381  1.00  0.00     0.167 C 
ATOM     12  N   UNL     1      -2.570   0.068  -2.568  1.00  0.00    -0.228 NA
ATOM     13  N   UNL     1      -1.561  -0.457  -4.625  1.00  0.00    -0.305 N 
ATOM     14  C   UNL     1      -3.742  -0.577  -3.017  1.00  0.00     0.078 A 
ATOM     15  C   UNL     1      -2.645  -1.125  -5.142  1.00  0.00     0.258 C 
ATOM     16  C   UNL     1      -4.856  -0.616  -2.178  1.00  0.00     0.029 A 
ATOM     17  C   UNL     1      -3.832  -1.184  -4.276  1.00  0.00     0.065 A 
ATOM     18  C   UNL     1      -6.032  -1.249  -2.591  1.00  0.00     0.002 A 
ATOM     19  C   UNL     1      -5.001  -1.820  -4.700  1.00  0.00     0.016 A 
ATOM     20  C   UNL     1      -6.105  -1.850  -3.849  1.00  0.00     0.001 A 
ATOM     21  H   UNL     1      -0.773  -0.421  -5.260  1.00  0.00     0.171 HD
ATOM     22  O   UNL     1      -2.597  -1.640  -6.249  1.00  0.00    -0.269 OA
ENDBRANCH   9  11
ENDBRANCH   3   9
ENDBRANCH   1   2
BRANCH   1  23
ATOM     23  N   UNL     1       2.471   1.342   2.897  1.00  0.00    -0.335 N 
ATOM     24  H   UNL     1       2.257   2.310   2.626  1.00  0.00     0.348 HD
BRANCH  23  25
ATOM     25  C   UNL     1       3.994   1.345   2.914  1.00  0.00     0.262 C 
BRANCH  25  26
ATOM     26  C   UNL     1       4.658   0.504   3.995  1.00  0.00     0.061 CG0
ATOM     27  G   UNL     1       4.089  -0.890   4.210  1.00  0.00     0.000 G0
ENDBRANCH  25  26
ENDBRANCH  23  25
BRANCH  23  28
ATOM     28  C   UNL     1       1.834   1.235   4.276  1.00  0.00     0.262 C 
BRANCH  28  29
ATOM     29  C   UNL     1       1.665  -0.197   4.769  1.00  0.00     0.061 C 
BRANCH  29  30
ATOM     30  C   UNL     1       2.941  -0.901   5.214  1.00  0.00     0.006 C 
BRANCH  30  31
ATOM     31  C   UNL     1       4.089  -0.890   4.210  1.00  0.00     0.006 CG0
ATOM     32  G   UNL     1       4.658   0.504   3.995  1.00  0.00     0.000 G0
ENDBRANCH  30  31
ENDBRANCH  29  30
ENDBRANCH  28  29
ENDBRANCH  23  28
ENDBRANCH   1  23
TORSDOF 4
