REMARK SMILES O=C(COCC1CC1)N(Cc1ccccc1)Cc1nc2ccccc2c(=O)[nH]1
REMARK SMILES IDX 1 1 2 2 3 3 4 4 5 5 6 6 7 7 8 8 9 9 10 10 11 11 12 12 16 13
REMARK SMILES IDX 13 14 15 15 14 16 17 17 18 18 19 19 28 20 20 21 26 22 21 23
REMARK SMILES IDX 25 24 22 25 24 26 23 27 27 29
REMARK H PARENT 28 28
ROOT
ATOM      1  O   UNL     1      -0.640   0.420   3.099  1.00  0.00    -0.272 OA
ATOM      2  C   UNL     1       0.261  -0.200   2.523  1.00  0.00     0.249 C 
ENDROOT
BRANCH   2   3
ATOM      3  C   UNL     1       1.726   0.075   2.871  1.00  0.00     0.260 C 
BRANCH   3   4
ATOM      4  O   UNL     1       2.384   0.714   1.786  1.00  0.00    -0.371 OA
BRANCH   4   5
ATOM      5  C   UNL     1       3.729   1.060   2.110  1.00  0.00     0.164 C 
BRANCH   5   6
ATOM      6  C   UNL     1       4.405   1.710   0.942  1.00  0.00     0.015 C 
ATOM      7  C   UNL     1       3.669   2.678   0.050  1.00  0.00     0.006 C 
ATOM      8  C   UNL     1       4.087   1.334  -0.484  1.00  0.00     0.006 C 
ENDBRANCH   5   6
ENDBRANCH   4   5
ENDBRANCH   3   4
ENDBRANCH   2   3
BRANCH   2   9
ATOM      9  N   UNL     1      -0.030  -1.155   1.551  1.00  0.00    -0.329 N 
BRANCH   9  10
ATOM     10  C   UNL     1       0.971  -1.639   0.592  1.00  0.00     0.155 C 
BRANCH  10  11
ATOM     11  C   UNL     1       0.804  -3.096   0.231  1.00  0.00    -0.029 A 
ATOM     12  C   UNL     1       0.431  -3.470  -1.067  1.00  0.00     0.005 A 
ATOM     13  C   UNL     1       1.023  -4.095   1.191  1.00  0.00     0.005 A 
ATOM     14  C   UNL     1       0.283  -4.818  -1.398  1.00  0.00     0.000 A 
ATOM     15  C   UNL     1       0.872  -5.442   0.858  1.00  0.00     0.000 A 
ATOM     16  C   UNL     1       0.504  -5.803  -0.437  1.00  0.00     0.000 A 
ENDBRANCH  10  11
ENDBRANCH   9  10
BRANCH   9  17
ATOM     17  C   UNL     1      -1.443  -1.304   1.178  1.00  0.00     0.195 C 
BRANCH  17  18
ATOM     18  C   UNL     1      -1.823  -0.248   0.148  1.00  0.00     0.129 C 
ATOM     19  N   UNL     1      -1.981  -0.560  -1.099  1.00  0.00    -0.233 NA
ATOM     20  N   UNL     1      -1.955   1.030   0.628  1.00  0.00    -0.308 N 
ATOM     21  C   UNL     1      -2.312   0.473  -1.994  1.00  0.00     0.078 A 
ATOM     22  C   UNL     1      -2.222   2.112  -0.169  1.00  0.00     0.258 C 
ATOM     23  C   UNL     1      -2.513   0.159  -3.339  1.00  0.00     0.029 A 
ATOM     24  C   UNL     1      -2.439   1.806  -1.593  1.00  0.00     0.065 A 
ATOM     25  C   UNL     1      -2.834   1.158  -4.263  1.00  0.00     0.002 A 
ATOM     26  C   UNL     1      -2.757   2.814  -2.509  1.00  0.00     0.016 A 
ATOM     27  C   UNL     1      -2.955   2.485  -3.848  1.00  0.00     0.001 A 
ATOM     28  H   UNL     1      -1.752   1.221   1.607  1.00  0.00     0.171 HD
ATOM     29  O   UNL     1      -2.270   3.257   0.261  1.00  0.00    -0.269 OA
ENDBRANCH  17  18
ENDBRANCH   9  17
ENDBRANCH   2   9
TORSDOF 9
