REMARK SMILES COc1ccc(-c2nc(Nc3ccccc3)[nH]c(=O)c2C#N)cc1
REMARK SMILES IDX 7 1 8 2 9 3 10 4 17 5 18 6 19 7 20 8 6 11 3 12 4 13 24 14
REMARK SMILES IDX 5 15 23 16 2 17 1 18 21 19 22 20 11 21 12 22 16 23 13 24
REMARK SMILES IDX 15 25 14 26
REMARK H PARENT 10 9 17 10
ROOT
ATOM      1  C   UNL     1      -0.861   1.911   0.323  1.00  0.00     0.098 C 
ATOM      2  N   UNL     1      -0.621   0.574   0.549  1.00  0.00    -0.213 NA
ATOM      3  C   UNL     1      -1.434  -0.115   1.283  1.00  0.00     0.208 C 
ATOM      4  N   UNL     1      -1.311  -1.446   1.584  1.00  0.00    -0.326 N 
ATOM      5  N   UNL     1      -2.538   0.489   1.825  1.00  0.00    -0.291 N 
ATOM      6  C   UNL     1      -2.854   1.804   1.637  1.00  0.00     0.270 C 
ATOM      7  O   UNL     1      -3.862   2.285   2.146  1.00  0.00    -0.268 OA
ATOM      8  C   UNL     1      -1.925   2.582   0.800  1.00  0.00     0.143 C 
ATOM      9  H   UNL     1      -2.040  -1.861   2.144  1.00  0.00     0.170 HD
ATOM     10  H   UNL     1      -3.183  -0.027   2.401  1.00  0.00     0.173 HD
ENDROOT
BRANCH   1  11
ATOM     11  C   UNL     1       0.143   2.580  -0.538  1.00  0.00     0.002 A 
ATOM     12  C   UNL     1       2.055   3.800  -2.210  1.00  0.00     0.118 A 
ATOM     13  C   UNL     1       1.917   4.198  -0.878  1.00  0.00     0.047 A 
ATOM     14  C   UNL     1       1.242   2.780  -2.702  1.00  0.00     0.047 A 
ATOM     15  C   UNL     1       0.973   3.593  -0.043  1.00  0.00     0.014 A 
ATOM     16  C   UNL     1       0.295   2.171  -1.870  1.00  0.00     0.014 A 
BRANCH  12  17
ATOM     17  O   UNL     1       3.016   4.474  -2.911  1.00  0.00    -0.497 OA
ATOM     18  C   UNL     1       3.168   4.132  -4.283  1.00  0.00     0.278 C 
ENDBRANCH  12  17
ENDBRANCH   1  11
BRANCH   8  19
ATOM     19  C   UNL     1      -2.211   3.947   0.543  1.00  0.00     0.107 C 
ATOM     20  N   UNL     1      -2.425   5.068   0.328  1.00  0.00    -0.192 NA
ENDBRANCH   8  19
BRANCH   4  21
ATOM     21  C   UNL     1      -0.289  -2.358   1.251  1.00  0.00     0.041 A 
ATOM     22  C   UNL     1       0.893  -2.014   0.587  1.00  0.00     0.026 A 
ATOM     23  C   UNL     1      -0.473  -3.712   1.586  1.00  0.00     0.026 A 
ATOM     24  C   UNL     1       1.859  -2.978   0.276  1.00  0.00     0.002 A 
ATOM     25  C   UNL     1       0.489  -4.679   1.277  1.00  0.00     0.002 A 
ATOM     26  C   UNL     1       1.658  -4.310   0.621  1.00  0.00     0.000 A 
ENDBRANCH   4  21
TORSDOF 4
