REMARK SMILES CC1(C)CCCN(c2ccnc(N3CC(S(=O)(=O)Nc4ccccc4)C3)n2)C1
REMARK SMILES IDX 13 1 14 2 15 3 26 4 12 5 8 6 9 7 27 8 10 9 11 10 7 11 2 12
REMARK SMILES IDX 4 13 28 14 5 15 6 16 1 17 3 18 16 19 17 20 18 21 19 22 20 24
REMARK SMILES IDX 21 25 25 26 22 27 24 28 23 29
REMARK H PARENT 19 23
ROOT
ATOM      1  N   UNL     1      -2.548  -0.868   0.395  1.00  0.00    -0.338 N 
ATOM      2  C   UNL     1      -3.665  -0.886   1.294  1.00  0.00     0.143 C 
ATOM      3  C   UNL     1      -2.647  -0.594   2.399  1.00  0.00     0.168 C 
ATOM      4  C   UNL     1      -1.775  -0.038   1.271  1.00  0.00     0.143 C 
ENDROOT
BRANCH   1   5
ATOM      5  C   UNL     1      -2.643  -0.689  -0.990  1.00  0.00     0.227 A 
ATOM      6  C   UNL     1      -1.683   0.065  -2.959  1.00  0.00     0.134 A 
ATOM      7  C   UNL     1      -2.796  -0.353  -3.662  1.00  0.00     0.067 A 
ATOM      8  N   UNL     1      -1.607  -0.118  -1.629  1.00  0.00    -0.196 NA
ATOM      9  C   UNL     1      -3.806  -0.933  -2.937  1.00  0.00     0.119 A 
ATOM     10  N   UNL     1      -3.758  -1.106  -1.609  1.00  0.00    -0.221 NA
BRANCH   6  11
ATOM     11  N   UNL     1      -0.605   0.662  -3.646  1.00  0.00    -0.356 N 
ATOM     12  C   UNL     1       1.830   1.102  -3.745  1.00  0.00    -0.018 C 
ATOM     13  C   UNL     1       1.454   1.959  -4.982  1.00  0.00     0.010 C 
ATOM     14  C   UNL     1       0.601   0.846  -2.829  1.00  0.00     0.124 C 
ATOM     15  C   UNL     1       0.177   2.755  -4.742  1.00  0.00     0.022 C 
ATOM     16  C   UNL     1      -1.003   1.820  -4.464  1.00  0.00     0.118 C 
ATOM     17  C   UNL     1       2.417  -0.238  -4.226  1.00  0.00     0.013 C 
ATOM     18  C   UNL     1       2.907   1.830  -2.918  1.00  0.00     0.013 C 
ENDBRANCH   6  11
ENDBRANCH   1   5
BRANCH   3  19
ATOM     19  S   UNL     1      -3.180   0.585   3.603  1.00  0.00     0.239 S 
ATOM     20  O   UNL     1      -4.072  -0.062   4.546  1.00  0.00    -0.206 OA
ATOM     21  O   UNL     1      -3.624   1.804   2.955  1.00  0.00    -0.206 OA
BRANCH  19  22
ATOM     22  N   UNL     1      -1.800   1.066   4.497  1.00  0.00    -0.283 N 
ATOM     23  H   UNL     1      -2.099   1.824   5.117  1.00  0.00     0.180 HD
BRANCH  22  24
ATOM     24  C   UNL     1      -1.112   0.026   5.195  1.00  0.00     0.048 A 
ATOM     25  C   UNL     1      -1.602  -0.475   6.400  1.00  0.00     0.027 A 
ATOM     26  C   UNL     1       0.038  -0.517   4.623  1.00  0.00     0.027 A 
ATOM     27  C   UNL     1      -0.932  -1.520   7.039  1.00  0.00     0.002 A 
ATOM     28  C   UNL     1       0.707  -1.560   5.264  1.00  0.00     0.002 A 
ATOM     29  C   UNL     1       0.221  -2.061   6.471  1.00  0.00     0.000 A 
ENDBRANCH  22  24
ENDBRANCH  19  22
ENDBRANCH   3  19
TORSDOF 5
