REMARK SMILES CC1C(C(=O)Nc2cccc3c(=O)nc[nH]c23)C1c1ccccc1
REMARK SMILES IDX 4 1 5 2 6 3 3 5 2 6 18 7 1 8 19 9 20 10 24 11 21 12 23 13
REMARK SMILES IDX 22 14 7 15 8 16 17 17 9 18 16 19 11 20 10 21 15 22 12 23
REMARK SMILES IDX 14 24 13 26
REMARK H PARENT 6 4 16 25
ROOT
ATOM      1  C   UNL     1       1.617   1.503  -0.512  1.00  0.00     0.228 C 
ATOM      2  O   UNL     1       1.568   2.099  -1.581  1.00  0.00    -0.274 OA
ATOM      3  N   UNL     1       0.737   0.534  -0.099  1.00  0.00    -0.324 N 
ATOM      4  H   UNL     1       0.862   0.226   0.854  1.00  0.00     0.170 HD
ENDROOT
BRANCH   1   5
ATOM      5  C   UNL     1       2.724   1.884   0.421  1.00  0.00     0.090 C 
ATOM      6  C   UNL     1       2.419   2.659   1.688  1.00  0.00     0.007 C 
ATOM      7  C   UNL     1       3.138   1.328   1.771  1.00  0.00     0.035 C 
ATOM      8  C   UNL     1       1.023   2.904   2.152  1.00  0.00     0.009 C 
BRANCH   7   9
ATOM      9  C   UNL     1       2.580   0.067   2.376  1.00  0.00    -0.044 A 
ATOM     10  C   UNL     1       2.774  -1.175   1.743  1.00  0.00     0.004 A 
ATOM     11  C   UNL     1       1.905   0.059   3.607  1.00  0.00     0.004 A 
ATOM     12  C   UNL     1       2.267  -2.359   2.283  1.00  0.00     0.000 A 
ATOM     13  C   UNL     1       1.397  -1.123   4.154  1.00  0.00     0.000 A 
ATOM     14  C   UNL     1       1.571  -2.331   3.487  1.00  0.00     0.000 A 
ENDBRANCH   7   9
ENDBRANCH   1   5
BRANCH   3  15
ATOM     15  C   UNL     1      -0.371  -0.060  -0.756  1.00  0.00     0.065 A 
ATOM     16  C   UNL     1      -1.112  -0.945   0.057  1.00  0.00     0.028 A 
ATOM     17  C   UNL     1      -0.781   0.131  -2.091  1.00  0.00     0.076 A 
ATOM     18  C   UNL     1      -2.232  -1.624  -0.424  1.00  0.00     0.003 A 
ATOM     19  N   UNL     1      -0.096   0.914  -3.024  1.00  0.00    -0.344 N 
ATOM     20  C   UNL     1      -1.908  -0.574  -2.564  1.00  0.00     0.067 A 
ATOM     21  C   UNL     1      -2.633  -1.440  -1.739  1.00  0.00     0.016 A 
ATOM     22  C   UNL     1      -0.599   1.080  -4.273  1.00  0.00     0.201 C 
ATOM     23  C   UNL     1      -2.319  -0.384  -3.988  1.00  0.00     0.280 C 
ATOM     24  N   UNL     1      -1.628   0.501  -4.786  1.00  0.00    -0.199 NA
ATOM     25  H   UNL     1       0.617   1.554  -2.670  1.00  0.00     0.168 HD
ATOM     26  O   UNL     1      -3.279  -1.026  -4.404  1.00  0.00    -0.267 OA
ENDBRANCH   3  15
TORSDOF 3
