REMARK SMILES O=C(C1CCCO1)N1CC[NH+](Cc2csc(Nc3ccccc3)n2)CC1
REMARK SMILES IDX 13 1 14 2 15 3 16 4 24 5 12 6 11 7 2 8 8 9 9 10 26 11 10 12
REMARK SMILES IDX 25 13 1 14 3 16 4 17 7 18 5 19 6 20 17 21 18 23 19 24 23 25
REMARK SMILES IDX 20 26 22 27 21 28
REMARK H PARENT 11 15 17 22
ROOT
ATOM      1  C   UNL     1       0.508   2.952   2.212  1.00  0.00     0.108 A 
ATOM      2  C   UNL     1       0.907   3.796   3.230  1.00  0.00     0.098 A 
ATOM      3  S   UNL     1      -0.416   4.748   3.755  1.00  0.00    -0.105 S 
ATOM      4  C   UNL     1      -1.452   3.944   2.633  1.00  0.00     0.187 A 
ATOM      5  N   UNL     1      -0.831   3.062   1.875  1.00  0.00    -0.219 NA
ENDROOT
BRANCH   1   6
ATOM      6  C   UNL     1       1.364   1.985   1.449  1.00  0.00     0.320 C 
BRANCH   6   7
ATOM      7  N   UNL     1       0.883   1.742   0.028  1.00  0.00    -0.327 N 
ATOM      8  C   UNL     1       0.607  -2.395  -1.022  1.00  0.00     0.252 C 
ATOM      9  N   UNL     1       0.767  -1.015  -0.912  1.00  0.00    -0.329 N 
ATOM     10  C   UNL     1      -0.409  -0.157  -1.078  1.00  0.00     0.181 C 
ATOM     11  C   UNL     1       2.063  -0.340  -0.785  1.00  0.00     0.181 C 
ATOM     12  C   UNL     1      -0.438   0.961  -0.029  1.00  0.00     0.284 C 
ATOM     13  C   UNL     1       1.958   1.191  -0.885  1.00  0.00     0.284 C 
ATOM     14  O   UNL     1      -0.505  -2.871  -1.257  1.00  0.00    -0.272 OA
ATOM     15  H   UNL     1       0.635   2.679  -0.313  1.00  0.00     0.348 HD
BRANCH   8  16
ATOM     16  C   UNL     1       1.842  -3.293  -0.752  1.00  0.00     0.207 C 
ATOM     17  C   UNL     1       1.538  -4.777  -0.933  1.00  0.00     0.044 C 
ATOM     18  O   UNL     1       2.939  -2.998  -1.631  1.00  0.00    -0.368 OA
ATOM     19  C   UNL     1       1.923  -5.005  -2.371  1.00  0.00     0.032 C 
ATOM     20  C   UNL     1       3.146  -4.121  -2.501  1.00  0.00     0.161 C 
ENDBRANCH   8  16
ENDBRANCH   6   7
ENDBRANCH   1   6
BRANCH   4  21
ATOM     21  N   UNL     1      -2.760   4.284   2.573  1.00  0.00    -0.332 N 
ATOM     22  H   UNL     1      -3.067   5.058   3.155  1.00  0.00     0.169 HD
BRANCH  21  23
ATOM     23  C   UNL     1      -3.830   3.541   2.036  1.00  0.00     0.040 A 
ATOM     24  C   UNL     1      -3.737   2.188   1.686  1.00  0.00     0.026 A 
ATOM     25  C   UNL     1      -5.040   4.204   1.772  1.00  0.00     0.026 A 
ATOM     26  C   UNL     1      -4.822   1.509   1.124  1.00  0.00     0.002 A 
ATOM     27  C   UNL     1      -6.127   3.529   1.210  1.00  0.00     0.002 A 
ATOM     28  C   UNL     1      -6.019   2.179   0.892  1.00  0.00     0.000 A 
ENDBRANCH  21  23
ENDBRANCH   4  21
TORSDOF 5
