REMARK SMILES CCOc1ccc(Nc2nc(C)c(C(=O)Nc3ccccc3)s2)cc1
REMARK SMILES IDX 4 1 5 2 6 3 7 4 24 5 25 6 3 7 2 8 1 9 8 10 9 12 10 13 23 14
REMARK SMILES IDX 11 15 13 16 12 17 14 18 16 19 15 20 17 22 18 23 22 24 19 25
REMARK SMILES IDX 21 26 20 27
REMARK H PARENT 8 11 16 21
ROOT
ATOM      1  C   UNL     1      -0.087   4.037  -2.685  1.00  0.00     0.119 A 
ATOM      2  C   UNL     1      -1.409   3.883  -3.102  1.00  0.00     0.048 A 
ATOM      3  C   UNL     1      -2.256   2.970  -2.467  1.00  0.00     0.030 A 
ATOM      4  C   UNL     1      -1.804   2.184  -1.399  1.00  0.00     0.040 A 
ATOM      5  C   UNL     1      -0.474   2.340  -0.995  1.00  0.00     0.030 A 
ATOM      6  C   UNL     1       0.378   3.258  -1.629  1.00  0.00     0.048 A 
ENDROOT
BRANCH   1   7
ATOM      7  O   UNL     1       0.628   4.959  -3.394  1.00  0.00    -0.494 OA
BRANCH   7   8
ATOM      8  C   UNL     1       1.945   5.293  -2.959  1.00  0.00     0.226 C 
ATOM      9  C   UNL     1       2.974   4.379  -3.601  1.00  0.00     0.049 C 
ENDBRANCH   7   8
ENDBRANCH   1   7
BRANCH   4  10
ATOM     10  N   UNL     1      -2.702   1.263  -0.827  1.00  0.00    -0.332 N 
ATOM     11  H   UNL     1      -3.620   1.668  -0.675  1.00  0.00     0.169 HD
BRANCH  10  12
ATOM     12  C   UNL     1      -2.459   0.169  -0.070  1.00  0.00     0.188 A 
ATOM     13  N   UNL     1      -3.310  -0.222   0.851  1.00  0.00    -0.225 NA
ATOM     14  S   UNL     1      -1.131  -0.906  -0.293  1.00  0.00    -0.091 S 
ATOM     15  C   UNL     1      -2.885  -1.390   1.468  1.00  0.00     0.063 A 
ATOM     16  C   UNL     1      -1.702  -1.915   0.972  1.00  0.00     0.117 A 
ATOM     17  C   UNL     1      -3.726  -1.948   2.562  1.00  0.00     0.068 C 
BRANCH  16  18
ATOM     18  C   UNL     1      -0.999  -3.121   1.397  1.00  0.00     0.267 C 
ATOM     19  N   UNL     1       0.135  -3.417   0.657  1.00  0.00    -0.321 N 
ATOM     20  O   UNL     1      -1.405  -3.799   2.336  1.00  0.00    -0.268 OA
ATOM     21  H   UNL     1       0.342  -2.774  -0.097  1.00  0.00     0.170 HD
BRANCH  19  22
ATOM     22  C   UNL     1       1.028  -4.496   0.813  1.00  0.00     0.041 A 
ATOM     23  C   UNL     1       0.908  -5.481   1.795  1.00  0.00     0.026 A 
ATOM     24  C   UNL     1       2.102  -4.566  -0.086  1.00  0.00     0.026 A 
ATOM     25  C   UNL     1       1.844  -6.518   1.876  1.00  0.00     0.002 A 
ATOM     26  C   UNL     1       3.036  -5.602  -0.004  1.00  0.00     0.002 A 
ATOM     27  C   UNL     1       2.907  -6.579   0.979  1.00  0.00     0.000 A 
ENDBRANCH  19  22
ENDBRANCH  16  18
ENDBRANCH  10  12
ENDBRANCH   4  10
TORSDOF 6
