REMARK SMILES Cc1nc(NCC2CCCO2)sc1C(=O)Nc1ccccc1
REMARK SMILES IDX 1 1 2 2 3 3 4 4 12 5 13 6 14 7 16 8 15 9 17 11 18 12 22 13
REMARK SMILES IDX 19 14 21 15 20 16 5 17 6 19 7 20 8 21 11 22 9 23 10 24
REMARK H PARENT 16 10 5 18
ROOT
ATOM      1  C   UNL     1       0.823  -2.009  -1.056  1.00  0.00     0.068 C 
ATOM      2  C   UNL     1       0.085  -0.951  -0.315  1.00  0.00     0.063 A 
ATOM      3  N   UNL     1      -0.797  -1.358   0.674  1.00  0.00    -0.225 NA
ATOM      4  C   UNL     1      -1.325  -0.326   1.289  1.00  0.00     0.183 A 
ATOM      5  S   UNL     1      -0.802   1.200   0.695  1.00  0.00    -0.092 S 
ATOM      6  C   UNL     1       0.177   0.421  -0.475  1.00  0.00     0.117 A 
ENDROOT
BRANCH   6   7
ATOM      7  C   UNL     1       0.948   1.222  -1.409  1.00  0.00     0.267 C 
ATOM      8  N   UNL     1       0.914   0.727  -2.704  1.00  0.00    -0.321 N 
ATOM      9  O   UNL     1       1.537   2.241  -1.065  1.00  0.00    -0.268 OA
ATOM     10  H   UNL     1       0.273  -0.036  -2.875  1.00  0.00     0.170 HD
BRANCH   8  11
ATOM     11  C   UNL     1       1.590   1.220  -3.839  1.00  0.00     0.041 A 
ATOM     12  C   UNL     1       1.321   0.592  -5.063  1.00  0.00     0.026 A 
ATOM     13  C   UNL     1       2.509   2.270  -3.810  1.00  0.00     0.026 A 
ATOM     14  C   UNL     1       1.954   1.012  -6.236  1.00  0.00     0.002 A 
ATOM     15  C   UNL     1       3.143   2.691  -4.985  1.00  0.00     0.002 A 
ATOM     16  C   UNL     1       2.865   2.063  -6.197  1.00  0.00     0.000 A 
ENDBRANCH   8  11
ENDBRANCH   6   7
BRANCH   4  17
ATOM     17  N   UNL     1      -2.220  -0.505   2.289  1.00  0.00    -0.359 N 
ATOM     18  H   UNL     1      -2.327  -1.480   2.552  1.00  0.00     0.163 HD
BRANCH  17  19
ATOM     19  C   UNL     1      -2.334   0.426   3.404  1.00  0.00     0.147 C 
BRANCH  19  20
ATOM     20  C   UNL     1      -1.133   0.375   4.359  1.00  0.00     0.137 C 
ATOM     21  C   UNL     1      -0.892  -0.991   4.985  1.00  0.00     0.036 C 
ATOM     22  O   UNL     1      -1.342   1.277   5.466  1.00  0.00    -0.376 OA
ATOM     23  C   UNL     1      -0.142  -0.618   6.240  1.00  0.00     0.031 C 
ATOM     24  C   UNL     1      -0.844   0.655   6.660  1.00  0.00     0.160 C 
ENDBRANCH  19  20
ENDBRANCH  17  19
ENDBRANCH   4  17
TORSDOF 5
