REMARK SMILES Cc1nc(NC2CCCCC2)sc1C(=O)Nc1ccccc1
REMARK SMILES IDX 1 1 2 2 3 3 4 4 12 5 13 6 14 7 16 8 15 9 17 11 18 12 22 13
REMARK SMILES IDX 19 14 21 15 20 16 5 17 6 19 7 20 11 21 8 22 10 23 9 24
REMARK H PARENT 16 10 5 18
ROOT
ATOM      1  C   UNL     1      -2.140  -1.070   1.534  1.00  0.00     0.068 C 
ATOM      2  C   UNL     1      -1.182  -0.332   0.667  1.00  0.00     0.063 A 
ATOM      3  N   UNL     1      -1.703   0.483  -0.326  1.00  0.00    -0.225 NA
ATOM      4  C   UNL     1      -0.755   1.065  -1.011  1.00  0.00     0.183 A 
ATOM      5  S   UNL     1       0.837   0.666  -0.491  1.00  0.00    -0.092 S 
ATOM      6  C   UNL     1       0.202  -0.358   0.732  1.00  0.00     0.117 A 
ENDROOT
BRANCH   6   7
ATOM      7  C   UNL     1       1.049  -1.107   1.655  1.00  0.00     0.267 C 
ATOM      8  N   UNL     1       2.409  -0.897   1.487  1.00  0.00    -0.321 N 
ATOM      9  O   UNL     1       0.568  -1.854   2.501  1.00  0.00    -0.268 OA
ATOM     10  H   UNL     1       2.660  -0.248   0.752  1.00  0.00     0.170 HD
BRANCH   8  11
ATOM     11  C   UNL     1       3.480  -1.464   2.206  1.00  0.00     0.041 A 
ATOM     12  C   UNL     1       4.774  -1.073   1.832  1.00  0.00     0.026 A 
ATOM     13  C   UNL     1       3.331  -2.376   3.251  1.00  0.00     0.026 A 
ATOM     14  C   UNL     1       5.894  -1.585   2.490  1.00  0.00     0.002 A 
ATOM     15  C   UNL     1       4.453  -2.889   3.911  1.00  0.00     0.002 A 
ATOM     16  C   UNL     1       5.733  -2.495   3.531  1.00  0.00     0.000 A 
ENDBRANCH   8  11
ENDBRANCH   6   7
BRANCH   4  17
ATOM     17  N   UNL     1      -0.911   1.921  -2.042  1.00  0.00    -0.359 N 
ATOM     18  H   UNL     1      -0.072   2.134  -2.570  1.00  0.00     0.163 HD
BRANCH  17  19
ATOM     19  C   UNL     1      -2.150   2.113  -2.790  1.00  0.00     0.081 C 
ATOM     20  C   UNL     1      -2.552   0.885  -3.616  1.00  0.00     0.025 C 
ATOM     21  C   UNL     1      -3.280   2.761  -1.979  1.00  0.00     0.025 C 
ATOM     22  C   UNL     1      -3.565  -0.036  -2.945  1.00  0.00     0.002 C 
ATOM     23  C   UNL     1      -4.325   1.807  -1.405  1.00  0.00     0.002 C 
ATOM     24  C   UNL     1      -4.757   0.741  -2.402  1.00  0.00     0.000 C 
ENDBRANCH  17  19
ENDBRANCH   4  17
TORSDOF 4
