REMARK SMILES Cc1ccc(Nc2nc(N)nc(COc3ccccc3C#N)n2)cc1
REMARK SMILES IDX 13 1 12 2 7 3 8 4 23 5 9 6 11 7 6 8 5 10 2 11 3 12 25 13
REMARK SMILES IDX 4 14 24 15 1 16 10 17 14 20 15 21 16 22 20 23 17 24 19 25
REMARK SMILES IDX 18 26 21 27 22 28
REMARK H PARENT 6 9 10 18 10 19
ROOT
ATOM      1  C   UNL     1       1.942   1.558  -0.253  1.00  0.00     0.307 C 
ENDROOT
BRANCH   1   2
ATOM      2  C   UNL     1       0.973   1.389  -1.402  1.00  0.00     0.173 A 
ATOM      3  C   UNL     1      -0.665   0.205  -2.408  1.00  0.00     0.232 A 
ATOM      4  N   UNL     1      -0.786   1.122  -3.364  1.00  0.00    -0.177 NA
ATOM      5  N   UNL     1       0.207   0.297  -1.411  1.00  0.00    -0.194 NA
ATOM      6  C   UNL     1       0.038   2.154  -3.285  1.00  0.00     0.225 A 
ATOM      7  N   UNL     1       0.926   2.348  -2.327  1.00  0.00    -0.194 NA
BRANCH   3   8
ATOM      8  N   UNL     1      -1.551  -0.867  -2.506  1.00  0.00    -0.324 N 
ATOM      9  H   UNL     1      -2.130  -0.744  -3.324  1.00  0.00     0.170 HD
BRANCH   8  10
ATOM     10  C   UNL     1      -1.732  -2.050  -1.782  1.00  0.00     0.041 A 
ATOM     11  C   UNL     1      -2.253  -4.447  -0.351  1.00  0.00    -0.051 A 
ATOM     12  C   UNL     1      -1.150  -3.650  -0.035  1.00  0.00     0.005 A 
ATOM     13  C   UNL     1      -3.110  -4.029  -1.369  1.00  0.00     0.005 A 
ATOM     14  C   UNL     1      -0.896  -2.469  -0.744  1.00  0.00     0.026 A 
ATOM     15  C   UNL     1      -2.849  -2.848  -2.074  1.00  0.00     0.026 A 
ATOM     16  C   UNL     1      -2.543  -5.693   0.430  1.00  0.00     0.044 C 
ENDBRANCH   8  10
ENDBRANCH   3   8
BRANCH   6  17
ATOM     17  N   UNL     1      -0.063   3.129  -4.256  1.00  0.00    -0.368 N 
ATOM     18  H   UNL     1      -0.988   3.134  -4.661  1.00  0.00     0.159 HD
ATOM     19  H   UNL     1       0.292   4.008  -3.905  1.00  0.00     0.159 HD
ENDBRANCH   6  17
ENDBRANCH   1   2
BRANCH   1  20
ATOM     20  O   UNL     1       1.567   2.611   0.644  1.00  0.00    -0.484 OA
BRANCH  20  21
ATOM     21  C   UNL     1       0.565   2.405   1.554  1.00  0.00     0.137 A 
ATOM     22  C   UNL     1      -0.057   1.176   1.801  1.00  0.00     0.048 A 
ATOM     23  C   UNL     1       0.156   3.531   2.290  1.00  0.00     0.094 A 
ATOM     24  C   UNL     1      -1.075   1.073   2.755  1.00  0.00     0.004 A 
ATOM     25  C   UNL     1      -0.863   3.420   3.248  1.00  0.00     0.023 A 
ATOM     26  C   UNL     1      -1.479   2.192   3.478  1.00  0.00     0.002 A 
BRANCH  23  27
ATOM     27  C   UNL     1       0.761   4.816   2.079  1.00  0.00     0.103 C 
ATOM     28  N   UNL     1       1.222   5.873   1.938  1.00  0.00    -0.192 NA
ENDBRANCH  23  27
ENDBRANCH  20  21
ENDBRANCH   1  20
TORSDOF 7
