REMARK SMILES Cc1ccc(Nc2nc(N)nc(CN3CCCc4ccccc43)n2)cc1
REMARK SMILES IDX 7 1 8 2 9 3 11 4 12 5 24 6 6 7 5 9 2 10 3 11 26 12 4 13
REMARK SMILES IDX 25 14 1 15 10 16 13 19 14 20 15 21 23 22 16 23 22 24 18 25
REMARK SMILES IDX 17 26 21 27 19 28 20 29
REMARK H PARENT 6 8 10 17 10 18
ROOT
ATOM      1  C   UNL     1      -1.511   2.002  -2.431  1.00  0.00     0.232 A 
ATOM      2  N   UNL     1      -2.283   3.078  -2.575  1.00  0.00    -0.177 NA
ATOM      3  C   UNL     1      -1.746   4.230  -2.206  1.00  0.00     0.225 A 
ATOM      4  N   UNL     1      -0.516   4.390  -1.753  1.00  0.00    -0.196 NA
ATOM      5  C   UNL     1       0.187   3.261  -1.634  1.00  0.00     0.155 A 
ATOM      6  N   UNL     1      -0.263   2.052  -1.984  1.00  0.00    -0.195 NA
ENDROOT
BRANCH   1   7
ATOM      7  N   UNL     1      -2.104   0.802  -2.820  1.00  0.00    -0.324 N 
ATOM      8  H   UNL     1      -3.060   0.984  -3.090  1.00  0.00     0.170 HD
BRANCH   7   9
ATOM      9  C   UNL     1      -1.728  -0.542  -2.727  1.00  0.00     0.041 A 
ATOM     10  C   UNL     1      -1.057  -3.301  -2.666  1.00  0.00    -0.051 A 
ATOM     11  C   UNL     1      -2.246  -2.874  -3.260  1.00  0.00     0.005 A 
ATOM     12  C   UNL     1      -0.194  -2.343  -2.129  1.00  0.00     0.005 A 
ATOM     13  C   UNL     1      -2.574  -1.513  -3.287  1.00  0.00     0.026 A 
ATOM     14  C   UNL     1      -0.529  -0.983  -2.161  1.00  0.00     0.026 A 
ATOM     15  C   UNL     1      -0.688  -4.754  -2.662  1.00  0.00     0.044 C 
ENDBRANCH   7   9
ENDBRANCH   1   7
BRANCH   3  16
ATOM     16  N   UNL     1      -2.518   5.365  -2.352  1.00  0.00    -0.368 N 
ATOM     17  H   UNL     1      -1.935   6.187  -2.422  1.00  0.00     0.159 HD
ATOM     18  H   UNL     1      -3.228   5.227  -3.057  1.00  0.00     0.159 HD
ENDBRANCH   3  16
BRANCH   5  19
ATOM     19  C   UNL     1       1.606   3.359  -1.096  1.00  0.00     0.194 C 
BRANCH  19  20
ATOM     20  N   UNL     1       1.756   2.742   0.233  1.00  0.00    -0.364 N 
ATOM     21  C   UNL     1       2.419   1.440   0.275  1.00  0.00     0.117 C 
ATOM     22  C   UNL     1       1.545   3.434   1.420  1.00  0.00     0.040 A 
ATOM     23  C   UNL     1       1.941   0.628   1.464  1.00  0.00     0.026 C 
ATOM     24  C   UNL     1       1.064   4.754   1.453  1.00  0.00     0.026 A 
ATOM     25  C   UNL     1       1.785   2.815   2.668  1.00  0.00    -0.025 A 
ATOM     26  C   UNL     1       2.263   1.385   2.742  1.00  0.00     0.039 C 
ATOM     27  C   UNL     1       0.878   5.449   2.656  1.00  0.00     0.002 A 
ATOM     28  C   UNL     1       1.614   3.520   3.874  1.00  0.00     0.006 A 
ATOM     29  C   UNL     1       1.162   4.834   3.867  1.00  0.00     0.000 A 
ENDBRANCH  19  20
ENDBRANCH   5  19
TORSDOF 5
