REMARK SMILES Cc1ccc(Nc2nc(N3CCOCC3)c3ccccc3n2)cc1
REMARK SMILES IDX 6 1 5 3 2 4 3 5 24 6 4 7 23 8 1 9 7 10 8 11 22 12 9 13 21 14
REMARK SMILES IDX 16 15 20 16 17 17 19 18 18 19 10 20 11 21 15 22 12 23 14 24
REMARK SMILES IDX 13 25
REMARK H PARENT 6 2
ROOT
ATOM      1  N   UNL     1       2.341   0.586   0.363  1.00  0.00    -0.324 N 
ATOM      2  H   UNL     1       3.246   0.263   0.673  1.00  0.00     0.170 HD
ENDROOT
BRANCH   1   3
ATOM      3  C   UNL     1       2.225   1.949   0.075  1.00  0.00     0.041 A 
ATOM      4  C   UNL     1       2.130   4.708  -0.589  1.00  0.00    -0.051 A 
ATOM      5  C   UNL     1       3.353   4.075  -0.361  1.00  0.00     0.005 A 
ATOM      6  C   UNL     1       0.956   3.960  -0.469  1.00  0.00     0.005 A 
ATOM      7  C   UNL     1       3.396   2.713  -0.043  1.00  0.00     0.026 A 
ATOM      8  C   UNL     1       1.008   2.597  -0.150  1.00  0.00     0.026 A 
ATOM      9  C   UNL     1       2.073   6.174  -0.898  1.00  0.00     0.044 C 
ENDBRANCH   1   3
BRANCH   1  10
ATOM     10  C   UNL     1       1.440  -0.472   0.438  1.00  0.00     0.229 A 
ATOM     11  N   UNL     1       0.163  -0.346   0.058  1.00  0.00    -0.195 NA
ATOM     12  N   UNL     1       1.968  -1.617   0.891  1.00  0.00    -0.213 NA
ATOM     13  C   UNL     1      -0.639  -1.424   0.143  1.00  0.00     0.142 A 
ATOM     14  C   UNL     1       1.170  -2.684   0.997  1.00  0.00     0.078 A 
ATOM     15  C   UNL     1      -0.178  -2.656   0.637  1.00  0.00     0.043 A 
ATOM     16  C   UNL     1       1.703  -3.871   1.487  1.00  0.00     0.029 A 
ATOM     17  C   UNL     1      -0.970  -3.821   0.802  1.00  0.00     0.014 A 
ATOM     18  C   UNL     1       0.928  -5.025   1.638  1.00  0.00     0.002 A 
ATOM     19  C   UNL     1      -0.417  -4.999   1.298  1.00  0.00     0.001 A 
BRANCH  13  20
ATOM     20  N   UNL     1      -1.979  -1.311  -0.318  1.00  0.00    -0.351 N 
ATOM     21  C   UNL     1      -2.043  -1.766  -1.733  1.00  0.00     0.146 C 
ATOM     22  C   UNL     1      -2.546   0.048  -0.130  1.00  0.00     0.146 C 
ATOM     23  C   UNL     1      -3.283  -1.178  -2.425  1.00  0.00     0.181 C 
ATOM     24  C   UNL     1      -2.510   0.863  -1.431  1.00  0.00     0.181 C 
ATOM     25  O   UNL     1      -3.271   0.257  -2.491  1.00  0.00    -0.378 OA
ENDBRANCH  13  20
ENDBRANCH   1  10
TORSDOF 3
