REMARK SMILES Nc1n[nH]c(Nc2ccccc2)c1-c1nnc2n1CCCCC2
REMARK SMILES IDX 14 1 15 2 16 3 17 4 18 5 13 6 2 7 3 8 4 9 5 10 1 12 6 15
REMARK SMILES IDX 7 17 8 18 12 19 9 20 11 21 10 22 19 23 20 24 21 25 23 27
REMARK SMILES IDX 22 28
REMARK H PARENT 4 11 1 13 1 14 6 16
REMARK Flexibility Score:   48.900
ROOT
ATOM      1  C   UNL     1      -0.802  -0.201  -1.959  1.00  0.00     0.171 A 
ATOM      2  N   UNL     1      -1.340  -0.380  -3.151  1.00  0.00    -0.130 NA
ATOM      3  N   UNL     1      -0.351  -0.303  -4.091  1.00  0.00    -0.135 NA
ATOM      4  C   UNL     1       0.796  -0.138  -3.468  1.00  0.00     0.133 A 
ATOM      5  N   UNL     1       0.565  -0.134  -2.109  1.00  0.00    -0.311 N 
ENDROOT
BRANCH   1   6
ATOM      6  C   UNL     1      -1.683  -0.120  -0.671  1.00  0.00     0.105 A 
ATOM      7  C   UNL     1      -3.047  -0.511  -0.582  1.00  0.00     0.158 A 
ATOM      8  N   UNL     1      -3.543  -0.337   0.640  1.00  0.00    -0.156 NA
ATOM      9  N   UNL     1      -2.507   0.161   1.330  1.00  0.00    -0.260 N 
ATOM     10  C   UNL     1      -1.365   0.347   0.589  1.00  0.00     0.139 A 
ATOM     11  H   UNL     1      -2.654   0.423   2.297  1.00  0.00     0.192 HD
BRANCH   7  12
ATOM     12  N   UNL     1      -3.764  -1.018  -1.595  1.00  0.00    -0.382 N 
ATOM     13  H   UNL     1      -4.772  -0.989  -1.511  1.00  0.00     0.158 HD
ATOM     14  H   UNL     1      -3.419  -0.890  -2.546  1.00  0.00     0.158 HD
ENDBRANCH   7  12
BRANCH  10  15
ATOM     15  N   UNL     1      -0.299   1.017   1.093  1.00  0.00    -0.340 N 
ATOM     16  H   UNL     1       0.150   1.712   0.501  1.00  0.00     0.168 HD
BRANCH  15  17
ATOM     17  C   UNL     1       0.116   1.077   2.440  1.00  0.00     0.040 A 
ATOM     18  C   UNL     1       0.727   2.246   2.915  1.00  0.00     0.026 A 
ATOM     19  C   UNL     1      -0.092   0.024   3.341  1.00  0.00     0.026 A 
ATOM     20  C   UNL     1       1.121   2.359   4.251  1.00  0.00     0.002 A 
ATOM     21  C   UNL     1       0.302   0.133   4.677  1.00  0.00     0.002 A 
ATOM     22  C   UNL     1       0.907   1.302   5.132  1.00  0.00     0.000 A 
ENDBRANCH  15  17
ENDBRANCH  10  15
ENDBRANCH   1   6
BRANCH   5  23
ATOM     23  C   UNL     1       1.555  -0.223  -1.056  1.00  0.00     0.125 C 
BRANCH  23  24
ATOM     24  C   UNL     1       2.864  -0.910  -1.438  1.00  0.00     0.022 C 
BRANCH  24  25
ATOM     25  C   UNL     1       3.809  -0.021  -2.245  1.00  0.00     0.002 CG0
ATOM     26  G   UNL     1       3.151   0.779  -3.369  1.00  0.00     0.000 G0
ENDBRANCH  24  25
ENDBRANCH  23  24
ENDBRANCH   5  23
BRANCH   4  27
ATOM     27  C   UNL     1       2.116  -0.021  -4.151  1.00  0.00     0.077 C 
BRANCH  27  28
ATOM     28  C   UNL     1       3.151   0.779  -3.369  1.00  0.00     0.008 CG0
ATOM     29  G   UNL     1       3.809  -0.021  -2.245  1.00  0.00     0.000 G0
ENDBRANCH  27  28
ENDBRANCH   4  27
TORSDOF 4
