REMARK SMILES Cc1nc(Nc2nc3c(c(=O)[nH]2)CCCC3)nc2ccccc12
REMARK SMILES IDX 5 1 6 2 7 3 8 4 9 5 10 6 11 7 12 8 13 9 14 10 15 11 16 12
REMARK SMILES IDX 4 15 2 16 3 17 23 18 22 19 18 20 17 21 21 22 19 23 20 24
REMARK SMILES IDX 1 25
REMARK H PARENT 5 13 12 14
ROOT
ATOM      1  N   UNL     1      -1.876  -1.170  -0.648  1.00  0.00    -0.294 N 
ATOM      2  C   UNL     1      -1.325   0.037  -0.361  1.00  0.00     0.210 C 
ATOM      3  N   UNL     1      -1.464   1.012  -1.212  1.00  0.00    -0.219 NA
ATOM      4  C   UNL     1      -0.902   2.230  -0.910  1.00  0.00     0.053 C 
ATOM      5  C   UNL     1      -0.212   2.489   0.214  1.00  0.00     0.039 C 
ATOM      6  C   UNL     1      -0.048   1.380   1.176  1.00  0.00     0.255 C 
ATOM      7  O   UNL     1       0.574   1.508   2.225  1.00  0.00    -0.269 OA
ATOM      8  N   UNL     1      -0.637   0.210   0.807  1.00  0.00    -0.292 N 
ATOM      9  C   UNL     1       0.388   3.818   0.561  1.00  0.00     0.043 C 
ATOM     10  C   UNL     1      -0.117   4.950  -0.336  1.00  0.00     0.005 C 
ATOM     11  C   UNL     1      -0.178   4.507  -1.793  1.00  0.00     0.007 C 
ATOM     12  C   UNL     1      -1.101   3.298  -1.961  1.00  0.00     0.057 C 
ATOM     13  H   UNL     1      -2.375  -1.258  -1.518  1.00  0.00     0.173 HD
ATOM     14  H   UNL     1      -0.551  -0.579   1.436  1.00  0.00     0.173 HD
ENDROOT
BRANCH   1  15
ATOM     15  C   UNL     1      -1.861  -2.342   0.087  1.00  0.00     0.230 A 
ATOM     16  C   UNL     1      -1.248  -3.560   1.950  1.00  0.00     0.051 A 
ATOM     17  N   UNL     1      -1.233  -2.390   1.273  1.00  0.00    -0.217 NA
ATOM     18  C   UNL     1      -1.887  -4.705   1.463  1.00  0.00     0.022 A 
ATOM     19  C   UNL     1      -1.940  -5.959   2.120  1.00  0.00     0.012 A 
ATOM     20  C   UNL     1      -2.509  -4.544   0.219  1.00  0.00     0.076 A 
ATOM     21  N   UNL     1      -2.497  -3.388  -0.456  1.00  0.00    -0.213 NA
ATOM     22  C   UNL     1      -2.607  -7.036   1.541  1.00  0.00     0.001 A 
ATOM     23  C   UNL     1      -3.167  -5.634  -0.337  1.00  0.00     0.029 A 
ATOM     24  C   UNL     1      -3.222  -6.873   0.307  1.00  0.00     0.002 A 
ATOM     25  C   UNL     1      -0.530  -3.552   3.270  1.00  0.00     0.067 C 
ENDBRANCH   1  15
TORSDOF 1
