REMARK SMILES Cc1ccccc1Nc1nc(Nc2ccccc2C)nc(N2CCCCC2)n1
REMARK SMILES IDX 9 1 10 2 11 3 20 4 21 5 28 6 8 7 7 9 2 10 3 11 4 12 6 13
REMARK SMILES IDX 5 14 1 15 12 16 13 18 14 19 18 20 15 21 17 22 16 23 19 24
REMARK SMILES IDX 22 25 23 26 27 27 24 28 26 29 25 30
REMARK H PARENT 8 8 12 17
ROOT
ATOM      1  C   UNL     1       1.081   0.281   0.531  1.00  0.00     0.233 A 
ATOM      2  N   UNL     1       0.832   0.331  -0.768  1.00  0.00    -0.176 NA
ATOM      3  C   UNL     1      -0.364  -0.087  -1.150  1.00  0.00     0.233 A 
ATOM      4  N   UNL     1      -1.276  -0.565  -0.312  1.00  0.00    -0.176 NA
ATOM      5  C   UNL     1      -0.955  -0.604   0.977  1.00  0.00     0.231 A 
ATOM      6  N   UNL     1       0.218  -0.178   1.426  1.00  0.00    -0.176 NA
ENDROOT
BRANCH   1   7
ATOM      7  N   UNL     1       2.356   0.714   0.897  1.00  0.00    -0.324 N 
ATOM      8  H   UNL     1       2.856   0.987   0.065  1.00  0.00     0.170 HD
BRANCH   7   9
ATOM      9  C   UNL     1       2.969   1.008   2.124  1.00  0.00     0.044 A 
ATOM     10  C   UNL     1       4.372   1.191   2.183  1.00  0.00    -0.027 A 
ATOM     11  C   UNL     1       4.998   1.453   3.416  1.00  0.00     0.005 A 
ATOM     12  C   UNL     1       4.257   1.514   4.592  1.00  0.00     0.000 A 
ATOM     13  C   UNL     1       2.252   1.060   3.328  1.00  0.00     0.026 A 
ATOM     14  C   UNL     1       2.884   1.316   4.549  1.00  0.00     0.002 A 
ATOM     15  C   UNL     1       5.230   1.115   0.947  1.00  0.00     0.046 C 
ENDBRANCH   7   9
ENDBRANCH   1   7
BRANCH   3  16
ATOM     16  N   UNL     1      -0.754  -0.084  -2.489  1.00  0.00    -0.324 N 
ATOM     17  H   UNL     1      -1.702  -0.424  -2.543  1.00  0.00     0.170 HD
BRANCH  16  18
ATOM     18  C   UNL     1      -0.203   0.432  -3.673  1.00  0.00     0.044 A 
ATOM     19  C   UNL     1       0.981   1.185  -3.687  1.00  0.00     0.026 A 
ATOM     20  C   UNL     1      -0.813   0.141  -4.918  1.00  0.00    -0.027 A 
ATOM     21  C   UNL     1       1.533   1.664  -4.879  1.00  0.00     0.002 A 
ATOM     22  C   UNL     1      -0.250   0.631  -6.111  1.00  0.00     0.005 A 
ATOM     23  C   UNL     1       0.916   1.390  -6.091  1.00  0.00     0.000 A 
ATOM     24  C   UNL     1      -2.070  -0.685  -5.009  1.00  0.00     0.046 C 
ENDBRANCH  16  18
ENDBRANCH   3  16
BRANCH   5  25
ATOM     25  N   UNL     1      -1.903  -1.086   1.897  1.00  0.00    -0.341 N 
ATOM     26  C   UNL     1      -2.899  -1.981   1.300  1.00  0.00     0.119 C 
ATOM     27  C   UNL     1      -1.312  -1.535   3.163  1.00  0.00     0.119 C 
ATOM     28  C   UNL     1      -3.999  -2.308   2.308  1.00  0.00     0.022 C 
ATOM     29  C   UNL     1      -2.407  -1.858   4.179  1.00  0.00     0.022 C 
ATOM     30  C   UNL     1      -3.421  -2.844   3.612  1.00  0.00     0.004 C 
ENDBRANCH   5  25
TORSDOF 5
