REMARK SMILES O=C([O-])c1ccc(Nc2nc(-c3ccccc3)c3ccccc3n2)cc1
REMARK SMILES IDX 4 1 5 2 6 3 7 4 25 5 26 6 2 7 1 8 3 9 8 10 9 12 10 13 24 14
REMARK SMILES IDX 11 15 23 16 18 17 22 18 19 19 21 20 20 21 12 22 13 23 17 24
REMARK SMILES IDX 14 25 16 26 15 27
REMARK H PARENT 8 11
ROOT
ATOM      1  C   UNL     1      -4.015  -3.855   1.546  1.00  0.00    -0.003 A 
ATOM      2  C   UNL     1      -4.041  -2.477   1.296  1.00  0.00     0.012 A 
ATOM      3  C   UNL     1      -2.855  -1.734   1.192  1.00  0.00     0.027 A 
ATOM      4  C   UNL     1      -1.605  -2.342   1.333  1.00  0.00     0.041 A 
ATOM      5  C   UNL     1      -1.582  -3.724   1.584  1.00  0.00     0.027 A 
ATOM      6  C   UNL     1      -2.764  -4.468   1.689  1.00  0.00     0.012 A 
ENDROOT
BRANCH   1   7
ATOM      7  C   UNL     1      -5.297  -4.658   1.658  1.00  0.00     0.071 C 
ATOM      8  O   UNL     1      -5.182  -5.905   1.886  1.00  0.00    -0.545 OA
ATOM      9  O   UNL     1      -6.392  -4.028   1.516  1.00  0.00    -0.545 OA
ENDBRANCH   1   7
BRANCH   4  10
ATOM     10  N   UNL     1      -0.385  -1.662   1.240  1.00  0.00    -0.324 N 
ATOM     11  H   UNL     1       0.447  -2.219   1.360  1.00  0.00     0.170 HD
BRANCH  10  12
ATOM     12  C   UNL     1      -0.026  -0.338   1.015  1.00  0.00     0.228 A 
ATOM     13  N   UNL     1       1.293  -0.109   0.995  1.00  0.00    -0.212 NA
ATOM     14  N   UNL     1      -0.935   0.626   0.834  1.00  0.00    -0.213 NA
ATOM     15  C   UNL     1       1.711   1.159   0.788  1.00  0.00     0.084 A 
ATOM     16  C   UNL     1      -0.519   1.875   0.615  1.00  0.00     0.076 A 
ATOM     17  C   UNL     1       0.831   2.227   0.572  1.00  0.00     0.027 A 
ATOM     18  C   UNL     1      -1.472   2.867   0.416  1.00  0.00     0.029 A 
ATOM     19  C   UNL     1       1.195   3.576   0.310  1.00  0.00     0.012 A 
ATOM     20  C   UNL     1      -1.118   4.196   0.168  1.00  0.00     0.002 A 
ATOM     21  C   UNL     1       0.222   4.552   0.112  1.00  0.00     0.001 A 
BRANCH  15  22
ATOM     22  C   UNL     1       3.175   1.307   0.811  1.00  0.00     0.001 A 
ATOM     23  C   UNL     1       3.967   0.713  -0.185  1.00  0.00     0.010 A 
ATOM     24  C   UNL     1       3.820   2.022   1.835  1.00  0.00     0.010 A 
ATOM     25  C   UNL     1       5.357   0.849  -0.173  1.00  0.00     0.001 A 
ATOM     26  C   UNL     1       5.210   2.157   1.848  1.00  0.00     0.001 A 
ATOM     27  C   UNL     1       5.977   1.574   0.842  1.00  0.00     0.000 A 
ENDBRANCH  15  22
ENDBRANCH  10  12
ENDBRANCH   4  10
TORSDOF 4
