REMARK SMILES O=C([O-])c1cccc(Nc2nc(-c3ccccc3)c3cc(Cl)ccc3n2)c1
REMARK SMILES IDX 4 1 5 2 6 3 7 4 8 5 27 6 2 7 1 8 3 9 9 10 10 12 11 13 26 14
REMARK SMILES IDX 12 15 25 16 19 17 24 18 20 19 23 20 21 21 22 22 13 23 14 24
REMARK SMILES IDX 18 25 15 26 17 27 16 28
REMARK H PARENT 9 11
ROOT
ATOM      1  C   UNL     1       0.580  -3.087   4.441  1.00  0.00    -0.001 A 
ATOM      2  C   UNL     1       0.859  -1.809   4.942  1.00  0.00     0.010 A 
ATOM      3  C   UNL     1       0.937  -0.714   4.084  1.00  0.00     0.003 A 
ATOM      4  C   UNL     1       0.735  -0.879   2.710  1.00  0.00     0.026 A 
ATOM      5  C   UNL     1       0.455  -2.137   2.169  1.00  0.00     0.042 A 
ATOM      6  C   UNL     1       0.381  -3.227   3.055  1.00  0.00     0.036 A 
ENDROOT
BRANCH   1   7
ATOM      7  C   UNL     1       0.491  -4.287   5.362  1.00  0.00     0.072 C 
ATOM      8  O   UNL     1       0.680  -4.083   6.603  1.00  0.00    -0.545 OA
ATOM      9  O   UNL     1       0.235  -5.411   4.824  1.00  0.00    -0.545 OA
ENDBRANCH   1   7
BRANCH   5  10
ATOM     10  N   UNL     1       0.236  -2.375   0.806  1.00  0.00    -0.324 N 
ATOM     11  H   UNL     1       0.070  -3.339   0.557  1.00  0.00     0.170 HD
BRANCH  10  12
ATOM     12  C   UNL     1       0.186  -1.571  -0.324  1.00  0.00     0.228 A 
ATOM     13  N   UNL     1       0.357  -0.248  -0.262  1.00  0.00    -0.212 NA
ATOM     14  N   UNL     1      -0.054  -2.220  -1.474  1.00  0.00    -0.213 NA
ATOM     15  C   UNL     1       0.287   0.462  -1.407  1.00  0.00     0.084 A 
ATOM     16  C   UNL     1      -0.141  -1.514  -2.604  1.00  0.00     0.077 A 
ATOM     17  C   UNL     1       0.017  -0.127  -2.648  1.00  0.00     0.028 A 
ATOM     18  C   UNL     1      -0.406  -2.194  -3.787  1.00  0.00     0.031 A 
ATOM     19  C   UNL     1      -0.120   0.556  -3.887  1.00  0.00     0.033 A 
ATOM     20  C   UNL     1      -0.528  -1.530  -5.012  1.00  0.00     0.023 A 
ATOM     21  C   UNL     1      -0.387  -0.150  -5.055  1.00  0.00     0.041 A 
ATOM     22  Cl  UNL     1      -0.544   0.684  -6.549  1.00  0.00    -0.084 Cl
BRANCH  15  23
ATOM     23  C   UNL     1       0.515   1.904  -1.216  1.00  0.00     0.001 A 
ATOM     24  C   UNL     1       1.613   2.558  -1.803  1.00  0.00     0.010 A 
ATOM     25  C   UNL     1      -0.352   2.660  -0.410  1.00  0.00     0.010 A 
ATOM     26  C   UNL     1       1.819   3.927  -1.613  1.00  0.00     0.001 A 
ATOM     27  C   UNL     1      -0.147   4.029  -0.219  1.00  0.00     0.001 A 
ATOM     28  C   UNL     1       0.936   4.662  -0.825  1.00  0.00     0.000 A 
ENDBRANCH  15  23
ENDBRANCH  10  12
ENDBRANCH   5  10
TORSDOF 4
