REMARK SMILES COc1ccc(Nc2nc(NCCO)c3ccccc3n2)cc1
REMARK SMILES IDX 8 1 9 2 10 3 15 4 16 5 17 6 18 7 19 8 20 9 21 10 7 11 6 13
REMARK SMILES IDX 3 14 4 15 23 16 5 17 22 18 2 19 1 20 11 21 12 23 13 24 14 25
REMARK H PARENT 7 12 11 22 14 26
ROOT
ATOM      1  C   UNL     1      -0.768  -0.113  -0.505  1.00  0.00     0.229 A 
ATOM      2  N   UNL     1      -1.512  -1.133  -0.954  1.00  0.00    -0.195 NA
ATOM      3  C   UNL     1      -1.215  -1.662  -2.154  1.00  0.00     0.139 A 
ATOM      4  C   UNL     1      -0.179  -1.151  -2.953  1.00  0.00     0.043 A 
ATOM      5  C   UNL     1       0.166  -1.618  -4.248  1.00  0.00     0.014 A 
ATOM      6  C   UNL     1       1.222  -1.048  -4.956  1.00  0.00     0.001 A 
ATOM      7  C   UNL     1       1.941  -0.009  -4.382  1.00  0.00     0.002 A 
ATOM      8  C   UNL     1       1.592   0.455  -3.111  1.00  0.00     0.029 A 
ATOM      9  C   UNL     1       0.540  -0.096  -2.388  1.00  0.00     0.078 A 
ATOM     10  N   UNL     1       0.258   0.408  -1.185  1.00  0.00    -0.213 NA
ENDROOT
BRANCH   1  11
ATOM     11  N   UNL     1      -1.144   0.371   0.746  1.00  0.00    -0.324 N 
ATOM     12  H   UNL     1      -1.964  -0.129   1.052  1.00  0.00     0.170 HD
BRANCH  11  13
ATOM     13  C   UNL     1      -0.692   1.409   1.566  1.00  0.00     0.041 A 
ATOM     14  C   UNL     1       0.145   3.465   3.334  1.00  0.00     0.119 A 
ATOM     15  C   UNL     1       0.805   3.258   2.126  1.00  0.00     0.048 A 
ATOM     16  C   UNL     1      -0.930   2.642   3.662  1.00  0.00     0.048 A 
ATOM     17  C   UNL     1       0.389   2.239   1.256  1.00  0.00     0.030 A 
ATOM     18  C   UNL     1      -1.342   1.627   2.790  1.00  0.00     0.030 A 
BRANCH  14  19
ATOM     19  O   UNL     1       0.447   4.416   4.268  1.00  0.00    -0.497 OA
ATOM     20  C   UNL     1       1.533   5.284   3.969  1.00  0.00     0.278 C 
ENDBRANCH  14  19
ENDBRANCH  11  13
ENDBRANCH   1  11
BRANCH   3  21
ATOM     21  N   UNL     1      -1.993  -2.736  -2.638  1.00  0.00    -0.367 N 
ATOM     22  H   UNL     1      -1.368  -3.491  -2.925  1.00  0.00     0.162 HD
BRANCH  21  23
ATOM     23  C   UNL     1      -2.989  -3.289  -1.713  1.00  0.00     0.142 C 
BRANCH  23  24
ATOM     24  C   UNL     1      -2.333  -4.213  -0.680  1.00  0.00     0.177 C 
BRANCH  24  25
ATOM     25  O   UNL     1      -1.606  -5.246  -1.353  1.00  0.00    -0.395 OA
ATOM     26  H   UNL     1      -1.169  -5.773  -0.661  1.00  0.00     0.210 HD
ENDBRANCH  24  25
ENDBRANCH  23  24
ENDBRANCH  21  23
ENDBRANCH   3  21
TORSDOF 7
