REMARK SMILES c1ccc(COc2cccc(CNc3ncnc4nc[nH]c34)c2)nc1
REMARK SMILES IDX 7 1 8 2 9 3 10 4 11 5 23 6 6 7 5 8 4 9 1 10 2 11 25 12 3 13
REMARK SMILES IDX 24 14 12 15 13 16 14 18 15 19 22 20 16 21 21 22 18 23 17 24
REMARK SMILES IDX 20 25 19 26
REMARK H PARENT 13 17 21 27
ROOT
ATOM      1  C   UNL     1      -1.433  -1.838   0.147  1.00  0.00     0.120 A 
ATOM      2  C   UNL     1      -0.488  -2.838  -0.075  1.00  0.00     0.046 A 
ATOM      3  C   UNL     1       0.876  -2.540  -0.013  1.00  0.00     0.004 A 
ATOM      4  C   UNL     1       1.301  -1.243   0.272  1.00  0.00     0.006 A 
ATOM      5  C   UNL     1       0.366  -0.225   0.497  1.00  0.00    -0.025 A 
ATOM      6  C   UNL     1      -1.000  -0.537   0.426  1.00  0.00     0.052 A 
ENDROOT
BRANCH   1   7
ATOM      7  O   UNL     1      -2.793  -1.983   0.105  1.00  0.00    -0.487 OA
BRANCH   7   8
ATOM      8  C   UNL     1      -3.330  -3.304  -0.031  1.00  0.00     0.285 C 
BRANCH   8   9
ATOM      9  C   UNL     1      -3.358  -3.794  -1.463  1.00  0.00     0.078 A 
ATOM     10  C   UNL     1      -3.411  -4.753  -4.038  1.00  0.00     0.020 A 
ATOM     11  C   UNL     1      -3.824  -3.450  -3.792  1.00  0.00     0.004 A 
ATOM     12  C   UNL     1      -2.992  -5.519  -2.963  1.00  0.00     0.111 A 
ATOM     13  C   UNL     1      -3.803  -2.961  -2.489  1.00  0.00     0.027 A 
ATOM     14  N   UNL     1      -2.959  -5.073  -1.688  1.00  0.00    -0.258 NA
ENDBRANCH   8   9
ENDBRANCH   7   8
ENDBRANCH   1   7
BRANCH   5  15
ATOM     15  C   UNL     1       0.818   1.182   0.807  1.00  0.00     0.150 C 
BRANCH  15  16
ATOM     16  N   UNL     1       1.539   1.724  -0.345  1.00  0.00    -0.364 N 
ATOM     17  H   UNL     1       0.912   1.693  -1.151  1.00  0.00     0.162 HD
BRANCH  16  18
ATOM     18  C   UNL     1       1.804   3.086  -0.175  1.00  0.00     0.155 A 
ATOM     19  N   UNL     1       1.070   3.977  -0.865  1.00  0.00    -0.217 NA
ATOM     20  C   UNL     1       2.806   3.587   0.630  1.00  0.00     0.128 A 
ATOM     21  C   UNL     1       1.334   5.292  -0.696  1.00  0.00     0.226 A 
ATOM     22  N   UNL     1       3.776   3.028   1.412  1.00  0.00    -0.340 N 
ATOM     23  C   UNL     1       3.004   4.949   0.742  1.00  0.00     0.182 A 
ATOM     24  N   UNL     1       2.262   5.859   0.087  1.00  0.00    -0.215 NA
ATOM     25  C   UNL     1       4.485   4.049   1.981  1.00  0.00     0.199 A 
ATOM     26  N   UNL     1       4.038   5.225   1.597  1.00  0.00    -0.217 NA
ATOM     27  H   UNL     1       3.943   2.038   1.527  1.00  0.00     0.168 HD
ENDBRANCH  16  18
ENDBRANCH  15  16
ENDBRANCH   5  15
TORSDOF 6
