REMARK SMILES c1nc(NCc2ccc(N3CCCCC3)nc2)c2[nH]cnc2n1
REMARK SMILES IDX 4 1 3 3 1 4 2 5 23 6 22 7 18 8 21 9 19 10 20 11 5 13 6 14
REMARK SMILES IDX 7 15 17 16 8 17 16 18 9 19 10 20 11 21 15 22 12 23 14 24
REMARK SMILES IDX 13 25
REMARK H PARENT 4 2 19 12
ROOT
ATOM      1  N   UNL     1      -1.791  -3.268   0.822  1.00  0.00    -0.364 N 
ATOM      2  H   UNL     1      -0.887  -2.842   0.981  1.00  0.00     0.162 HD
ENDROOT
BRANCH   1   3
ATOM      3  C   UNL     1      -1.778  -4.645   1.025  1.00  0.00     0.155 A 
ATOM      4  C   UNL     1      -2.490  -6.806   0.535  1.00  0.00     0.226 A 
ATOM      5  N   UNL     1      -2.550  -5.478   0.296  1.00  0.00    -0.217 NA
ATOM      6  N   UNL     1      -1.737  -7.450   1.433  1.00  0.00    -0.215 NA
ATOM      7  C   UNL     1      -0.986  -6.611   2.166  1.00  0.00     0.182 A 
ATOM      8  C   UNL     1      -0.986  -5.239   1.992  1.00  0.00     0.128 A 
ATOM      9  N   UNL     1      -0.131  -6.982   3.170  1.00  0.00    -0.217 NA
ATOM     10  N   UNL     1      -0.121  -4.774   2.944  1.00  0.00    -0.340 N 
ATOM     11  C   UNL     1       0.371  -5.855   3.622  1.00  0.00     0.199 A 
ATOM     12  H   UNL     1       0.094  -3.805   3.130  1.00  0.00     0.168 HD
ENDBRANCH   1   3
BRANCH   1  13
ATOM     13  C   UNL     1      -2.429  -2.835  -0.413  1.00  0.00     0.152 C 
BRANCH  13  14
ATOM     14  C   UNL     1      -2.320  -1.340  -0.524  1.00  0.00    -0.010 A 
ATOM     15  C   UNL     1      -2.989  -0.489   0.352  1.00  0.00     0.011 A 
ATOM     16  C   UNL     1      -1.547  -0.741  -1.506  1.00  0.00     0.119 A 
ATOM     17  C   UNL     1      -2.854   0.893   0.210  1.00  0.00     0.047 A 
ATOM     18  N   UNL     1      -1.401   0.597  -1.653  1.00  0.00    -0.239 NA
ATOM     19  C   UNL     1      -2.046   1.422  -0.798  1.00  0.00     0.128 A 
BRANCH  19  20
ATOM     20  N   UNL     1      -1.918   2.815  -0.938  1.00  0.00    -0.357 N 
ATOM     21  C   UNL     1      -1.521   3.497   0.306  1.00  0.00     0.118 C 
ATOM     22  C   UNL     1      -1.261   3.269  -2.174  1.00  0.00     0.118 C 
ATOM     23  C   UNL     1      -0.895   4.860   0.018  1.00  0.00     0.022 C 
ATOM     24  C   UNL     1       0.203   3.612  -1.913  1.00  0.00     0.022 C 
ATOM     25  C   UNL     1       0.339   4.731  -0.878  1.00  0.00     0.004 C 
ENDBRANCH  19  20
ENDBRANCH  13  14
ENDBRANCH   1  13
TORSDOF 4
