REMARK SMILES c1cc(COCC2CCCCO2)cc(Nc2nc3ccccc3o2)c1
REMARK SMILES IDX 4 1 3 2 1 3 2 4 25 5 14 6 13 7 15 8 16 10 17 11 24 12 18 13
REMARK SMILES IDX 23 14 19 15 22 16 20 17 21 18 5 19 6 20 7 21 8 22 12 23 9 24
REMARK SMILES IDX 11 25 10 26
REMARK H PARENT 15 9
ROOT
ATOM      1  C   UNL     1      -1.022  -0.826  -1.768  1.00  0.00     0.196 C 
ENDROOT
BRANCH   1   2
ATOM      2  C   UNL     1       0.439  -0.506  -1.961  1.00  0.00    -0.020 A 
ATOM      3  C   UNL     1       2.260   0.250  -3.365  1.00  0.00     0.003 A 
ATOM      4  C   UNL     1       0.906  -0.015  -3.186  1.00  0.00     0.006 A 
ATOM      5  C   UNL     1       3.159   0.021  -2.321  1.00  0.00     0.026 A 
ATOM      6  C   UNL     1       2.727  -0.472  -1.078  1.00  0.00     0.043 A 
ATOM      7  C   UNL     1       1.361  -0.744  -0.925  1.00  0.00     0.032 A 
BRANCH   6   8
ATOM      8  N   UNL     1       3.690  -0.695  -0.077  1.00  0.00    -0.309 N 
ATOM      9  H   UNL     1       4.612  -0.343  -0.291  1.00  0.00     0.171 HD
BRANCH   8  10
ATOM     10  C   UNL     1       3.531  -1.199   1.159  1.00  0.00     0.300 A 
ATOM     11  N   UNL     1       2.488  -1.730   1.767  1.00  0.00    -0.193 NA
ATOM     12  O   UNL     1       4.668  -1.157   1.928  1.00  0.00    -0.423 OA
ATOM     13  C   UNL     1       2.956  -2.055   3.014  1.00  0.00     0.111 A 
ATOM     14  C   UNL     1       4.290  -1.704   3.117  1.00  0.00     0.156 A 
ATOM     15  C   UNL     1       2.324  -2.648   4.114  1.00  0.00     0.032 A 
ATOM     16  C   UNL     1       5.075  -1.890   4.249  1.00  0.00     0.049 A 
ATOM     17  C   UNL     1       3.080  -2.856   5.278  1.00  0.00     0.003 A 
ATOM     18  C   UNL     1       4.430  -2.483   5.342  1.00  0.00     0.004 A 
ENDBRANCH   8  10
ENDBRANCH   6   8
ENDBRANCH   1   2
BRANCH   1  19
ATOM     19  O   UNL     1      -1.813   0.253  -2.270  1.00  0.00    -0.374 OA
BRANCH  19  20
ATOM     20  C   UNL     1      -3.208  -0.020  -2.156  1.00  0.00     0.192 C 
BRANCH  20  21
ATOM     21  C   UNL     1      -4.020   1.178  -2.667  1.00  0.00     0.144 C 
ATOM     22  C   UNL     1      -3.760   2.437  -1.833  1.00  0.00     0.034 C 
ATOM     23  O   UNL     1      -5.407   0.810  -2.660  1.00  0.00    -0.376 OA
ATOM     24  C   UNL     1      -4.530   3.631  -2.395  1.00  0.00     0.005 C 
ATOM     25  C   UNL     1      -6.332   1.899  -2.611  1.00  0.00     0.160 C 
ATOM     26  C   UNL     1      -5.773   3.199  -3.170  1.00  0.00     0.029 C 
ENDBRANCH  20  21
ENDBRANCH  19  20
ENDBRANCH   1  19
TORSDOF 6
