REMARK SMILES Cc1nc2ccccc2nc1NCc1cccc(OCC2CCCO2)c1
REMARK SMILES IDX 14 1 15 2 16 3 17 4 18 5 26 6 13 7 12 8 11 10 2 11 3 12 4 13
REMARK SMILES IDX 10 14 5 15 9 16 6 17 8 18 7 19 1 20 19 21 20 22 21 23 22 24
REMARK SMILES IDX 25 25 23 26 24 27
REMARK H PARENT 12 9
ROOT
ATOM      1  C   UNL     1      -0.236   0.560   2.236  1.00  0.00    -0.025 A 
ATOM      2  C   UNL     1       0.888  -0.214   2.545  1.00  0.00     0.006 A 
ATOM      3  C   UNL     1       2.168   0.258   2.260  1.00  0.00     0.004 A 
ATOM      4  C   UNL     1       2.343   1.508   1.659  1.00  0.00     0.046 A 
ATOM      5  C   UNL     1       1.235   2.290   1.336  1.00  0.00     0.119 A 
ATOM      6  C   UNL     1      -0.046   1.808   1.622  1.00  0.00     0.052 A 
ENDROOT
BRANCH   1   7
ATOM      7  C   UNL     1      -1.629   0.051   2.521  1.00  0.00     0.150 C 
BRANCH   7   8
ATOM      8  N   UNL     1      -2.199  -0.567   1.331  1.00  0.00    -0.364 N 
ATOM      9  H   UNL     1      -3.184  -0.345   1.227  1.00  0.00     0.162 HD
BRANCH   8  10
ATOM     10  C   UNL     1      -2.023  -1.952   1.182  1.00  0.00     0.148 A 
ATOM     11  C   UNL     1      -2.456  -2.598   0.011  1.00  0.00     0.080 A 
ATOM     12  N   UNL     1      -2.322  -3.939  -0.180  1.00  0.00    -0.248 NA
ATOM     13  C   UNL     1      -1.727  -4.632   0.803  1.00  0.00     0.089 A 
ATOM     14  N   UNL     1      -1.427  -2.665   2.161  1.00  0.00    -0.227 NA
ATOM     15  C   UNL     1      -1.548  -6.004   0.668  1.00  0.00     0.030 A 
ATOM     16  C   UNL     1      -1.276  -3.991   1.978  1.00  0.00     0.091 A 
ATOM     17  C   UNL     1      -0.934  -6.759   1.668  1.00  0.00     0.002 A 
ATOM     18  C   UNL     1      -0.666  -4.752   2.968  1.00  0.00     0.031 A 
ATOM     19  C   UNL     1      -0.490  -6.130   2.824  1.00  0.00     0.002 A 
ATOM     20  C   UNL     1      -3.087  -1.831  -1.114  1.00  0.00     0.071 C 
ENDBRANCH   8  10
ENDBRANCH   7   8
ENDBRANCH   1   7
BRANCH   5  21
ATOM     21  O   UNL     1       1.253   3.522   0.744  1.00  0.00    -0.491 OA
BRANCH  21  22
ATOM     22  C   UNL     1       2.511   4.089   0.362  1.00  0.00     0.261 C 
BRANCH  22  23
ATOM     23  C   UNL     1       2.972   3.571  -1.004  1.00  0.00     0.156 C 
ATOM     24  C   UNL     1       4.415   3.931  -1.316  1.00  0.00     0.038 C 
ATOM     25  O   UNL     1       2.196   4.165  -2.067  1.00  0.00    -0.375 OA
ATOM     26  C   UNL     1       4.424   3.864  -2.822  1.00  0.00     0.031 C 
ATOM     27  C   UNL     1       3.068   4.437  -3.174  1.00  0.00     0.161 C 
ENDBRANCH  22  23
ENDBRANCH  21  22
ENDBRANCH   5  21
TORSDOF 6
