REMARK SMILES Fc1ccc(C[NH+]2CCC(Nc3ncnc4nc[nH]c34)CC2)cc1
REMARK SMILES IDX 7 1 8 2 9 3 10 4 21 5 22 6 6 8 5 9 2 10 3 11 24 12 4 13
REMARK SMILES IDX 23 14 1 15 11 16 12 18 13 19 20 20 14 21 19 22 16 23 15 24
REMARK SMILES IDX 18 25 17 26
REMARK H PARENT 7 7 11 17 19 27
ROOT
ATOM      1  N   UNL     1       0.495   1.227  -1.963  1.00  0.00    -0.331 N 
ATOM      2  C   UNL     1       1.846   0.560  -1.830  1.00  0.00     0.264 C 
ATOM      3  C   UNL     1       2.043  -0.051  -0.456  1.00  0.00     0.086 C 
ATOM      4  C   UNL     1       1.927   1.028   0.625  1.00  0.00     0.091 C 
ATOM      5  C   UNL     1       0.794   2.031   0.376  1.00  0.00     0.086 C 
ATOM      6  C   UNL     1      -0.204   1.523  -0.651  1.00  0.00     0.264 C 
ATOM      7  H   UNL     1       0.693   2.147  -2.375  1.00  0.00     0.348 HD
ENDROOT
BRANCH   1   8
ATOM      8  C   UNL     1      -0.424   0.576  -2.988  1.00  0.00     0.299 C 
BRANCH   8   9
ATOM      9  C   UNL     1      -1.064  -0.729  -2.585  1.00  0.00     0.006 A 
ATOM     10  C   UNL     1      -2.266  -3.131  -1.797  1.00  0.00     0.123 A 
ATOM     11  C   UNL     1      -0.981  -3.146  -2.322  1.00  0.00     0.040 A 
ATOM     12  C   UNL     1      -2.968  -1.941  -1.668  1.00  0.00     0.040 A 
ATOM     13  C   UNL     1      -0.381  -1.949  -2.721  1.00  0.00     0.012 A 
ATOM     14  C   UNL     1      -2.371  -0.742  -2.062  1.00  0.00     0.012 A 
ATOM     15  F   UNL     1      -2.836  -4.279  -1.414  1.00  0.00    -0.207 F 
ENDBRANCH   8   9
ENDBRANCH   1   8
BRANCH   4  16
ATOM     16  N   UNL     1       1.914   0.460   1.969  1.00  0.00    -0.365 N 
ATOM     17  H   UNL     1       2.430   0.977   2.672  1.00  0.00     0.162 HD
BRANCH  16  18
ATOM     18  C   UNL     1       0.859  -0.281   2.466  1.00  0.00     0.155 A 
ATOM     19  N   UNL     1      -0.166  -0.662   1.673  1.00  0.00    -0.217 NA
ATOM     20  C   UNL     1       0.786  -0.681   3.791  1.00  0.00     0.128 A 
ATOM     21  C   UNL     1      -1.168  -1.401   2.205  1.00  0.00     0.226 A 
ATOM     22  N   UNL     1       1.592  -0.544   4.890  1.00  0.00    -0.340 N 
ATOM     23  C   UNL     1      -0.291  -1.418   4.250  1.00  0.00     0.182 A 
ATOM     24  N   UNL     1      -1.313  -1.801   3.468  1.00  0.00    -0.215 NA
ATOM     25  C   UNL     1       0.975  -1.165   5.940  1.00  0.00     0.199 A 
ATOM     26  N   UNL     1      -0.170  -1.698   5.582  1.00  0.00    -0.217 NA
ATOM     27  H   UNL     1       2.492  -0.088   4.925  1.00  0.00     0.168 HD
ENDBRANCH  16  18
ENDBRANCH   4  16
TORSDOF 4
