REMARK SMILES CN(C)C(=O)COc1cccc(CNc2ncnc3nc[nH]c23)c1
REMARK SMILES IDX 8 1 9 2 10 3 11 4 12 5 24 6 7 7 6 8 4 9 2 10 1 11 3 12 5 13
REMARK SMILES IDX 13 14 14 15 15 17 16 18 23 19 17 20 22 21 19 22 18 23 21 24
REMARK SMILES IDX 20 25
REMARK H PARENT 14 16 22 26
ROOT
ATOM      1  C   UNL     1      -1.545  -1.076  -1.418  1.00  0.00     0.120 A 
ATOM      2  C   UNL     1      -2.528  -0.545  -0.581  1.00  0.00     0.046 A 
ATOM      3  C   UNL     1      -2.423   0.759  -0.099  1.00  0.00     0.004 A 
ATOM      4  C   UNL     1      -1.332   1.546  -0.458  1.00  0.00     0.006 A 
ATOM      5  C   UNL     1      -0.339   1.036  -1.307  1.00  0.00    -0.025 A 
ATOM      6  C   UNL     1      -0.451  -0.285  -1.777  1.00  0.00     0.052 A 
ENDROOT
BRANCH   1   7
ATOM      7  O   UNL     1      -1.771  -2.366  -1.812  1.00  0.00    -0.484 OA
BRANCH   7   8
ATOM      8  C   UNL     1      -0.781  -2.982  -2.625  1.00  0.00     0.329 C 
BRANCH   8   9
ATOM      9  C   UNL     1      -1.173  -4.423  -2.965  1.00  0.00     0.259 C 
ATOM     10  N   UNL     1      -1.289  -5.340  -1.919  1.00  0.00    -0.346 N 
ATOM     11  C   UNL     1      -1.311  -4.955  -0.516  1.00  0.00     0.146 C 
ATOM     12  C   UNL     1      -1.807  -6.663  -2.226  1.00  0.00     0.146 C 
ATOM     13  O   UNL     1      -1.330  -4.751  -4.144  1.00  0.00    -0.271 OA
ENDBRANCH   8   9
ENDBRANCH   7   8
ENDBRANCH   1   7
BRANCH   5  14
ATOM     14  C   UNL     1       0.854   1.888  -1.680  1.00  0.00     0.150 C 
BRANCH  14  15
ATOM     15  N   UNL     1       1.910   1.737  -0.688  1.00  0.00    -0.364 N 
ATOM     16  H   UNL     1       2.031   0.782  -0.382  1.00  0.00     0.162 HD
BRANCH  15  17
ATOM     17  C   UNL     1       1.929   2.651   0.359  1.00  0.00     0.155 A 
ATOM     18  N   UNL     1       1.305   3.847   0.275  1.00  0.00    -0.217 NA
ATOM     19  C   UNL     1       2.608   2.407   1.542  1.00  0.00     0.128 A 
ATOM     20  C   UNL     1       1.362   4.696   1.324  1.00  0.00     0.226 A 
ATOM     21  N   UNL     1       3.380   1.380   2.013  1.00  0.00    -0.340 N 
ATOM     22  C   UNL     1       2.608   3.335   2.568  1.00  0.00     0.182 A 
ATOM     23  N   UNL     1       1.976   4.518   2.498  1.00  0.00    -0.215 NA
ATOM     24  C   UNL     1       3.787   1.710   3.276  1.00  0.00     0.199 A 
ATOM     25  N   UNL     1       3.332   2.887   3.641  1.00  0.00    -0.217 NA
ATOM     26  H   UNL     1       3.622   0.538   1.512  1.00  0.00     0.168 HD
ENDBRANCH  15  17
ENDBRANCH  14  15
ENDBRANCH   5  14
TORSDOF 6
