REMARK SMILES CCOc1ncccc1CNC(=O)CN(C)c1ncnc2nc[nH]c12
REMARK SMILES IDX 11 1 12 2 13 3 10 5 9 6 4 7 5 8 6 9 8 10 7 11 3 12 2 13 1 14
REMARK SMILES IDX 14 15 15 16 16 17 17 18 18 19 25 20 19 21 24 22 21 23 20 24
REMARK SMILES IDX 23 25 22 26
REMARK H PARENT 11 4 24 27
ROOT
ATOM      1  N   UNL     1       1.887  -0.750  -0.673  1.00  0.00    -0.350 N 
ATOM      2  C   UNL     1       2.490  -0.424   0.519  1.00  0.00     0.239 C 
ATOM      3  O   UNL     1       3.524   0.232   0.597  1.00  0.00    -0.273 OA
ATOM      4  H   UNL     1       0.994  -1.236  -0.603  1.00  0.00     0.163 HD
ENDROOT
BRANCH   1   5
ATOM      5  C   UNL     1       2.350  -0.283  -1.957  1.00  0.00     0.157 C 
BRANCH   5   6
ATOM      6  C   UNL     1       1.801   1.078  -2.274  1.00  0.00     0.033 A 
ATOM      7  C   UNL     1       0.477   1.266  -2.661  1.00  0.00     0.218 A 
ATOM      8  N   UNL     1      -0.071   2.478  -2.899  1.00  0.00    -0.222 NA
ATOM      9  C   UNL     1       0.736   3.553  -2.776  1.00  0.00     0.115 A 
ATOM     10  C   UNL     1       2.598   2.220  -2.131  1.00  0.00     0.013 A 
ATOM     11  C   UNL     1       2.063   3.476  -2.393  1.00  0.00     0.021 A 
BRANCH   7  12
ATOM     12  O   UNL     1      -0.326   0.144  -2.718  1.00  0.00    -0.478 OA
BRANCH  12  13
ATOM     13  C   UNL     1      -1.680   0.423  -3.082  1.00  0.00     0.228 C 
ATOM     14  C   UNL     1      -2.442  -0.890  -3.067  1.00  0.00     0.049 C 
ENDBRANCH  12  13
ENDBRANCH   7  12
ENDBRANCH   5   6
ENDBRANCH   1   5
BRANCH   2  15
ATOM     15  C   UNL     1       1.737  -0.934   1.758  1.00  0.00     0.217 C 
BRANCH  15  16
ATOM     16  N   UNL     1       0.466  -1.605   1.366  1.00  0.00    -0.348 N 
ATOM     17  C   UNL     1       0.463  -3.052   1.608  1.00  0.00     0.146 C 
BRANCH  16  18
ATOM     18  C   UNL     1      -0.667  -0.966   1.895  1.00  0.00     0.158 A 
ATOM     19  N   UNL     1      -1.481  -1.595   2.776  1.00  0.00    -0.217 NA
ATOM     20  C   UNL     1      -1.063   0.312   1.522  1.00  0.00     0.128 A 
ATOM     21  C   UNL     1      -2.568  -0.951   3.250  1.00  0.00     0.226 A 
ATOM     22  N   UNL     1      -0.589   1.250   0.646  1.00  0.00    -0.340 N 
ATOM     23  C   UNL     1      -2.201   0.891   2.055  1.00  0.00     0.182 A 
ATOM     24  N   UNL     1      -2.993   0.280   2.952  1.00  0.00    -0.215 NA
ATOM     25  C   UNL     1      -1.431   2.326   0.686  1.00  0.00     0.199 A 
ATOM     26  N   UNL     1      -2.412   2.143   1.541  1.00  0.00    -0.217 NA
ATOM     27  H   UNL     1       0.219   1.154   0.047  1.00  0.00     0.168 HD
ENDBRANCH  16  18
ENDBRANCH  15  16
ENDBRANCH   2  15
TORSDOF 7
