REMARK SMILES O=C(NCC1CC1)C1CCCN(C(=O)c2cccc3cn[nH]c23)C1
REMARK SMILES IDX 8 1 9 2 10 3 11 4 12 5 24 6 2 7 3 8 1 9 4 11 5 12 6 13 7 14
REMARK SMILES IDX 13 15 14 16 15 17 16 18 23 19 17 20 22 21 19 22 18 23 21 24
REMARK SMILES IDX 20 25
REMARK H PARENT 3 10 22 26
ROOT
ATOM      1  C   UNL     1      -0.480   1.537   1.390  1.00  0.00     0.098 C 
ATOM      2  C   UNL     1      -0.062   0.908   2.732  1.00  0.00     0.017 C 
ATOM      3  C   UNL     1       1.421   0.541   2.798  1.00  0.00     0.022 C 
ATOM      4  C   UNL     1       1.935   0.036   1.457  1.00  0.00     0.120 C 
ATOM      5  N   UNL     1       1.789   1.055   0.417  1.00  0.00    -0.338 N 
ATOM      6  C   UNL     1       0.716   2.034   0.574  1.00  0.00     0.133 C 
ENDROOT
BRANCH   1   7
ATOM      7  C   UNL     1      -1.352   0.577   0.580  1.00  0.00     0.224 C 
ATOM      8  N   UNL     1      -2.580   0.329   1.164  1.00  0.00    -0.356 N 
ATOM      9  O   UNL     1      -1.003   0.056  -0.473  1.00  0.00    -0.275 OA
ATOM     10  H   UNL     1      -2.900   0.958   1.885  1.00  0.00     0.163 HD
BRANCH   8  11
ATOM     11  C   UNL     1      -3.565  -0.479   0.483  1.00  0.00     0.119 C 
BRANCH  11  12
ATOM     12  C   UNL     1      -4.707  -0.891   1.360  1.00  0.00     0.008 C 
ATOM     13  C   UNL     1      -4.579  -1.067   2.855  1.00  0.00     0.006 C 
ATOM     14  C   UNL     1      -5.405   0.064   2.300  1.00  0.00     0.006 C 
ENDBRANCH  11  12
ENDBRANCH   8  11
ENDBRANCH   1   7
BRANCH   5  15
ATOM     15  C   UNL     1       2.735   1.297  -0.577  1.00  0.00     0.256 C 
ATOM     16  O   UNL     1       2.844   2.384  -1.144  1.00  0.00    -0.269 OA
BRANCH  15  17
ATOM     17  C   UNL     1       3.683   0.227  -0.962  1.00  0.00     0.065 A 
ATOM     18  C   UNL     1       3.303  -1.113  -1.126  1.00  0.00     0.016 A 
ATOM     19  C   UNL     1       5.013   0.552  -1.254  1.00  0.00     0.078 A 
ATOM     20  C   UNL     1       4.238  -2.084  -1.494  1.00  0.00     0.002 A 
ATOM     21  N   UNL     1       5.667   1.756  -1.278  1.00  0.00    -0.277 N 
ATOM     22  C   UNL     1       5.962  -0.394  -1.618  1.00  0.00     0.020 A 
ATOM     23  C   UNL     1       5.577  -1.742  -1.730  1.00  0.00     0.012 A 
ATOM     24  N   UNL     1       6.980   1.658  -1.566  1.00  0.00    -0.183 NA
ATOM     25  C   UNL     1       7.150   0.351  -1.786  1.00  0.00     0.143 A 
ATOM     26  H   UNL     1       5.258   2.673  -1.118  1.00  0.00     0.190 HD
ENDBRANCH  15  17
ENDBRANCH   5  15
TORSDOF 5
