REMARK SMILES CN(CC(=O)N1CCCC1C1CCCC1)c1ncnc2nc[nH]c12
REMARK SMILES IDX 3 1 2 2 1 3 16 4 17 5 24 6 18 7 23 8 20 9 19 10 22 11 21 12
REMARK SMILES IDX 4 14 5 15 6 16 7 17 10 18 8 19 9 20 11 21 12 22 15 23 13 24
REMARK SMILES IDX 14 25
REMARK H PARENT 23 13
ROOT
ATOM      1  C   UNL     1      -1.853  -0.701  -0.100  1.00  0.00     0.218 C 
ENDROOT
BRANCH   1   2
ATOM      2  N   UNL     1      -2.020  -2.042   0.485  1.00  0.00    -0.348 N 
ATOM      3  C   UNL     1      -1.796  -3.193  -0.374  1.00  0.00     0.146 C 
BRANCH   2   4
ATOM      4  C   UNL     1      -1.569  -2.126   1.796  1.00  0.00     0.158 A 
ATOM      5  N   UNL     1      -2.422  -1.782   2.787  1.00  0.00    -0.217 NA
ATOM      6  C   UNL     1      -0.297  -2.504   2.202  1.00  0.00     0.128 A 
ATOM      7  C   UNL     1      -2.022  -1.900   4.070  1.00  0.00     0.226 A 
ATOM      8  N   UNL     1       0.871  -2.797   1.551  1.00  0.00    -0.340 N 
ATOM      9  C   UNL     1       0.031  -2.581   3.543  1.00  0.00     0.182 A 
ATOM     10  N   UNL     1      -0.831  -2.294   4.533  1.00  0.00    -0.215 NA
ATOM     11  C   UNL     1       1.819  -3.071   2.497  1.00  0.00     0.199 A 
ATOM     12  N   UNL     1       1.337  -2.960   3.715  1.00  0.00    -0.217 NA
ATOM     13  H   UNL     1       1.022  -2.704   0.553  1.00  0.00     0.168 HD
ENDBRANCH   2   4
ENDBRANCH   1   2
BRANCH   1  14
ATOM     14  C   UNL     1      -0.380  -0.322  -0.386  1.00  0.00     0.242 C 
ATOM     15  O   UNL     1       0.459  -1.174  -0.703  1.00  0.00    -0.273 OA
BRANCH  14  16
ATOM     16  N   UNL     1      -0.040   1.019  -0.298  1.00  0.00    -0.338 N 
ATOM     17  C   UNL     1      -0.871   2.060   0.287  1.00  0.00     0.120 C 
ATOM     18  C   UNL     1       1.345   1.472  -0.481  1.00  0.00     0.088 C 
ATOM     19  C   UNL     1      -0.072   3.339   0.123  1.00  0.00     0.024 C 
ATOM     20  C   UNL     1       1.372   2.857   0.184  1.00  0.00     0.027 C 
BRANCH  18  21
ATOM     21  C   UNL     1       1.784   1.424  -1.958  1.00  0.00     0.012 C 
ATOM     22  C   UNL     1       3.283   1.671  -2.165  1.00  0.00     0.006 C 
ATOM     23  C   UNL     1       1.143   2.434  -2.908  1.00  0.00     0.006 C 
ATOM     24  C   UNL     1       3.426   2.105  -3.626  1.00  0.00     0.000 C 
ATOM     25  C   UNL     1       2.009   2.311  -4.155  1.00  0.00     0.000 C 
ENDBRANCH  18  21
ENDBRANCH  14  16
ENDBRANCH   1  14
TORSDOF 5
