REMARK SMILES O=C(c1c[nH]c2ncccc12)N(Cc1ccccc1)CC1CCCO1
REMARK SMILES IDX 1 1 2 2 3 3 4 4 11 5 5 6 10 7 6 8 9 9 7 10 8 11 12 13 13 14
REMARK SMILES IDX 14 15 15 16 19 17 16 18 18 19 17 20 20 21 21 22 22 23 25 24
REMARK SMILES IDX 23 25 24 26
REMARK H PARENT 5 12
ROOT
ATOM      1  O   UNL     1      -1.266   2.162  -0.937  1.00  0.00    -0.269 OA
ATOM      2  C   UNL     1      -0.825   1.114  -0.469  1.00  0.00     0.256 C 
ENDROOT
BRANCH   2   3
ATOM      3  C   UNL     1      -0.787   0.932   0.976  1.00  0.00     0.067 A 
ATOM      4  C   UNL     1      -0.129   1.780   1.854  1.00  0.00     0.098 A 
ATOM      5  C   UNL     1      -1.460  -0.048   1.774  1.00  0.00     0.031 A 
ATOM      6  N   UNL     1      -0.334   1.323   3.129  1.00  0.00    -0.345 N 
ATOM      7  C   UNL     1      -2.318  -1.136   1.531  1.00  0.00     0.014 A 
ATOM      8  C   UNL     1      -1.140   0.219   3.101  1.00  0.00     0.138 A 
ATOM      9  C   UNL     1      -2.766  -1.869   2.630  1.00  0.00     0.021 A 
ATOM     10  N   UNL     1      -1.541  -0.454   4.194  1.00  0.00    -0.239 NA
ATOM     11  C   UNL     1      -2.355  -1.494   3.903  1.00  0.00     0.113 A 
ATOM     12  H   UNL     1       0.018   1.733   3.981  1.00  0.00     0.167 HD
ENDBRANCH   2   3
BRANCH   2  13
ATOM     13  N   UNL     1      -0.371   0.073  -1.281  1.00  0.00    -0.332 N 
BRANCH  13  14
ATOM     14  C   UNL     1       0.377  -1.096  -0.803  1.00  0.00     0.155 C 
BRANCH  14  15
ATOM     15  C   UNL     1       1.833  -1.069  -1.213  1.00  0.00    -0.029 A 
ATOM     16  C   UNL     1       2.696  -0.078  -0.722  1.00  0.00     0.005 A 
ATOM     17  C   UNL     1       2.344  -2.041  -2.085  1.00  0.00     0.005 A 
ATOM     18  C   UNL     1       4.040  -0.058  -1.099  1.00  0.00     0.000 A 
ATOM     19  C   UNL     1       3.688  -2.020  -2.461  1.00  0.00     0.000 A 
ATOM     20  C   UNL     1       4.535  -1.029  -1.968  1.00  0.00     0.000 A 
ENDBRANCH  14  15
ENDBRANCH  13  14
BRANCH  13  21
ATOM     21  C   UNL     1      -0.568   0.198  -2.732  1.00  0.00     0.152 C 
BRANCH  21  22
ATOM     22  C   UNL     1      -1.827  -0.501  -3.267  1.00  0.00     0.137 C 
ATOM     23  C   UNL     1      -3.152  -0.052  -2.674  1.00  0.00     0.036 C 
ATOM     24  O   UNL     1      -1.770  -1.930  -3.073  1.00  0.00    -0.376 OA
ATOM     25  C   UNL     1      -4.038  -1.225  -3.015  1.00  0.00     0.031 C 
ATOM     26  C   UNL     1      -3.102  -2.398  -2.809  1.00  0.00     0.160 C 
ENDBRANCH  21  22
ENDBRANCH  13  21
ENDBRANCH   2  13
TORSDOF 6
