REMARK SMILES Cc1[nH]nc2ncc(C(=O)N(Cc3ccccc3)CC3CCCO3)cc12
REMARK SMILES IDX 9 1 10 2 8 3 2 4 3 5 26 6 4 7 25 8 5 9 6 10 7 11 1 12 11 14
REMARK SMILES IDX 12 15 13 16 14 17 18 18 15 19 17 20 16 21 19 22 20 23 21 24
REMARK SMILES IDX 24 25 22 26 23 27
REMARK H PARENT 3 13
ROOT
ATOM      1  C   UNL     1       0.195  -0.546   1.931  1.00  0.00     0.255 C 
ATOM      2  O   UNL     1       0.066  -0.724   3.138  1.00  0.00    -0.269 OA
ENDROOT
BRANCH   1   3
ATOM      3  C   UNL     1      -0.344  -1.589   1.047  1.00  0.00     0.059 A 
ATOM      4  C   UNL     1      -3.242  -3.048  -0.512  1.00  0.00     0.042 A 
ATOM      5  N   UNL     1      -2.996  -4.100  -1.361  1.00  0.00    -0.280 N 
ATOM      6  C   UNL     1      -2.001  -2.693  -0.044  1.00  0.00     0.042 A 
ATOM      7  N   UNL     1      -1.696  -4.431  -1.487  1.00  0.00    -0.155 NA
ATOM      8  C   UNL     1      -1.729  -1.665   0.848  1.00  0.00     0.029 A 
ATOM      9  C   UNL     1      -1.069  -3.580  -0.674  1.00  0.00     0.181 A 
ATOM     10  N   UNL     1       0.268  -3.501  -0.439  1.00  0.00    -0.234 NA
ATOM     11  C   UNL     1       0.563  -2.494   0.444  1.00  0.00     0.127 A 
ATOM     12  C   UNL     1      -4.604  -2.526  -0.262  1.00  0.00     0.067 C 
ATOM     13  H   UNL     1      -3.672  -4.636  -1.894  1.00  0.00     0.190 HD
ENDBRANCH   1   3
BRANCH   1  14
ATOM     14  N   UNL     1       0.797   0.573   1.350  1.00  0.00    -0.332 N 
BRANCH  14  15
ATOM     15  C   UNL     1       0.759   0.872  -0.086  1.00  0.00     0.155 C 
BRANCH  15  16
ATOM     16  C   UNL     1      -0.617   1.237  -0.595  1.00  0.00    -0.029 A 
ATOM     17  C   UNL     1      -1.438   2.141   0.095  1.00  0.00     0.005 A 
ATOM     18  C   UNL     1      -1.083   0.692  -1.802  1.00  0.00     0.005 A 
ATOM     19  C   UNL     1      -2.702   2.472  -0.397  1.00  0.00     0.000 A 
ATOM     20  C   UNL     1      -2.347   1.023  -2.292  1.00  0.00     0.000 A 
ATOM     21  C   UNL     1      -3.157   1.912  -1.588  1.00  0.00     0.000 A 
ENDBRANCH  15  16
ENDBRANCH  14  15
BRANCH  14  22
ATOM     22  C   UNL     1       1.492   1.515   2.236  1.00  0.00     0.152 C 
BRANCH  22  23
ATOM     23  C   UNL     1       2.994   1.225   2.457  1.00  0.00     0.137 C 
ATOM     24  C   UNL     1       3.898   1.472   1.254  1.00  0.00     0.036 C 
ATOM     25  O   UNL     1       3.210  -0.138   2.868  1.00  0.00    -0.376 OA
ATOM     26  C   UNL     1       4.240   0.084   0.773  1.00  0.00     0.031 C 
ATOM     27  C   UNL     1       4.248  -0.701   2.062  1.00  0.00     0.160 C 
ENDBRANCH  22  23
ENDBRANCH  14  22
ENDBRANCH   1  14
TORSDOF 6
