REMARK SMILES Cc1oc2nc[nH]c(=O)c2c1C(=O)Nc1cccc(COC2CCCCC2)c1
REMARK SMILES IDX 15 1 16 2 17 3 18 4 19 5 28 6 14 7 12 8 13 9 11 11 2 12 3 13
REMARK SMILES IDX 4 14 10 15 5 16 8 17 6 18 7 19 1 20 9 21 20 23 21 24 22 25
REMARK SMILES IDX 23 26 27 27 24 28 26 29 25 30
REMARK H PARENT 14 10 7 22
ROOT
ATOM      1  C   UNL     1       1.021   1.069  -0.144  1.00  0.00     0.041 A 
ATOM      2  C   UNL     1       2.412   1.140  -0.220  1.00  0.00     0.026 A 
ATOM      3  C   UNL     1       3.205   0.605   0.799  1.00  0.00     0.003 A 
ATOM      4  C   UNL     1       2.613   0.006   1.911  1.00  0.00     0.006 A 
ATOM      5  C   UNL     1       1.219  -0.057   2.018  1.00  0.00    -0.020 A 
ATOM      6  C   UNL     1       0.433   0.460   0.975  1.00  0.00     0.032 A 
ENDROOT
BRANCH   1   7
ATOM      7  N   UNL     1       0.148   1.587  -1.123  1.00  0.00    -0.322 N 
ATOM      8  C   UNL     1       0.483   2.228  -2.301  1.00  0.00     0.260 C 
ATOM      9  O   UNL     1       1.611   2.418  -2.734  1.00  0.00    -0.269 OA
ATOM     10  H   UNL     1      -0.837   1.434  -0.959  1.00  0.00     0.170 HD
BRANCH   8  11
ATOM     11  C   UNL     1      -0.682   2.700  -3.035  1.00  0.00     0.096 A 
ATOM     12  C   UNL     1      -1.752   3.421  -2.521  1.00  0.00     0.117 A 
ATOM     13  O   UNL     1      -2.643   3.725  -3.508  1.00  0.00    -0.442 OA
ATOM     14  C   UNL     1      -2.149   3.227  -4.676  1.00  0.00     0.234 A 
ATOM     15  C   UNL     1      -0.951   2.588  -4.422  1.00  0.00     0.118 A 
ATOM     16  N   UNL     1      -2.774   3.361  -5.871  1.00  0.00    -0.203 NA
ATOM     17  C   UNL     1      -0.271   1.972  -5.529  1.00  0.00     0.262 C 
ATOM     18  C   UNL     1      -2.118   2.827  -6.852  1.00  0.00     0.203 C 
ATOM     19  N   UNL     1      -0.910   2.176  -6.736  1.00  0.00    -0.312 N 
ATOM     20  C   UNL     1      -2.088   3.943  -1.176  1.00  0.00     0.088 C 
ATOM     21  O   UNL     1       0.741   1.287  -5.443  1.00  0.00    -0.269 OA
ATOM     22  H   UNL     1      -0.474   1.746  -7.540  1.00  0.00     0.171 HD
ENDBRANCH   8  11
ENDBRANCH   1   7
BRANCH   5  23
ATOM     23  C   UNL     1       0.573  -0.691   3.221  1.00  0.00     0.196 C 
BRANCH  23  24
ATOM     24  O   UNL     1       0.389  -2.078   2.959  1.00  0.00    -0.374 OA
BRANCH  24  25
ATOM     25  C   UNL     1      -0.228  -2.780   4.046  1.00  0.00     0.118 C 
ATOM     26  C   UNL     1       0.127  -4.270   3.901  1.00  0.00     0.032 C 
ATOM     27  C   UNL     1      -1.747  -2.581   4.024  1.00  0.00     0.032 C 
ATOM     28  C   UNL     1      -0.921  -5.087   3.134  1.00  0.00     0.003 C 
ATOM     29  C   UNL     1      -2.374  -3.056   2.707  1.00  0.00     0.003 C 
ATOM     30  C   UNL     1      -1.653  -4.257   2.086  1.00  0.00     0.000 C 
ENDBRANCH  24  25
ENDBRANCH  23  24
ENDBRANCH   5  23
TORSDOF 5
