REMARK SMILES N#Cc1ccccc1OCc1nc(N)nc(Nc2ccccc2)n1
REMARK SMILES IDX 9 1 8 2 3 3 4 4 5 5 7 6 6 7 2 8 1 9 10 10 11 11 12 12 24 13
REMARK SMILES IDX 13 14 16 15 15 16 14 17 17 20 18 22 19 23 23 24 20 25 22 26
REMARK SMILES IDX 21 27
REMARK H PARENT 14 18 14 19 17 21
ROOT
ATOM      1  O   UNL     1      -4.567   0.279   0.754  1.00  0.00    -0.484 OA
ENDROOT
BRANCH   1   2
ATOM      2  C   UNL     1      -4.303   1.580   0.407  1.00  0.00     0.137 A 
ATOM      3  C   UNL     1      -3.923   2.478   1.415  1.00  0.00     0.094 A 
ATOM      4  C   UNL     1      -3.669   3.817   1.086  1.00  0.00     0.023 A 
ATOM      5  C   UNL     1      -3.810   4.257  -0.230  1.00  0.00     0.002 A 
ATOM      6  C   UNL     1      -4.469   2.031  -0.906  1.00  0.00     0.048 A 
ATOM      7  C   UNL     1      -4.215   3.366  -1.223  1.00  0.00     0.004 A 
BRANCH   3   8
ATOM      8  C   UNL     1      -3.770   2.052   2.778  1.00  0.00     0.103 C 
ATOM      9  N   UNL     1      -3.639   1.749   3.891  1.00  0.00    -0.192 NA
ENDBRANCH   3   8
ENDBRANCH   1   2
BRANCH   1  10
ATOM     10  C   UNL     1      -3.819  -0.701   0.010  1.00  0.00     0.307 C 
BRANCH  10  11
ATOM     11  C   UNL     1      -2.314  -0.644   0.197  1.00  0.00     0.173 A 
ATOM     12  N   UNL     1      -1.840  -0.231   1.369  1.00  0.00    -0.194 NA
ATOM     13  N   UNL     1      -1.550  -1.051  -0.820  1.00  0.00    -0.194 NA
ATOM     14  C   UNL     1      -0.525  -0.197   1.467  1.00  0.00     0.225 A 
ATOM     15  C   UNL     1      -0.235  -1.001  -0.612  1.00  0.00     0.232 A 
ATOM     16  N   UNL     1       0.314  -0.586   0.524  1.00  0.00    -0.177 NA
BRANCH  14  17
ATOM     17  N   UNL     1       0.003   0.259   2.657  1.00  0.00    -0.368 N 
ATOM     18  H   UNL     1       0.912  -0.145   2.827  1.00  0.00     0.159 HD
ATOM     19  H   UNL     1      -0.684   0.194   3.398  1.00  0.00     0.159 HD
ENDBRANCH  14  17
BRANCH  15  20
ATOM     20  N   UNL     1       0.539  -1.442  -1.684  1.00  0.00    -0.324 N 
ATOM     21  H   UNL     1      -0.067  -1.717  -2.443  1.00  0.00     0.170 HD
BRANCH  20  22
ATOM     22  C   UNL     1       1.915  -1.477  -1.942  1.00  0.00     0.041 A 
ATOM     23  C   UNL     1       2.887  -0.981  -1.068  1.00  0.00     0.026 A 
ATOM     24  C   UNL     1       2.357  -2.081  -3.131  1.00  0.00     0.026 A 
ATOM     25  C   UNL     1       4.250  -1.067  -1.375  1.00  0.00     0.002 A 
ATOM     26  C   UNL     1       3.718  -2.171  -3.442  1.00  0.00     0.002 A 
ATOM     27  C   UNL     1       4.666  -1.662  -2.562  1.00  0.00     0.000 A 
ENDBRANCH  20  22
ENDBRANCH  15  20
ENDBRANCH  10  11
ENDBRANCH   1  10
TORSDOF 7
