REMARK SMILES Nc1nc(CSc2nnc(-c3ccccc3F)n2C2CC2)nc(Nc2ccccc2)n1
REMARK SMILES IDX 5 1 4 2 2 3 3 4 31 5 23 6 22 7 1 8 24 11 25 13 26 14 30 15
REMARK SMILES IDX 27 16 29 17 28 18 6 19 7 20 8 21 18 22 9 23 10 24 19 25
REMARK SMILES IDX 20 26 21 27 11 28 12 29 16 30 13 31 15 32 14 33 17 34
REMARK H PARENT 1 9 1 10 24 12
ROOT
ATOM      1  C   UNL     1      -0.060  -2.724  -2.346  1.00  0.00     0.155 C 
ENDROOT
BRANCH   1   2
ATOM      2  C   UNL     1       0.348  -2.565  -0.901  1.00  0.00     0.146 A 
ATOM      3  C   UNL     1       1.843  -1.889   0.624  1.00  0.00     0.225 A 
ATOM      4  N   UNL     1       1.568  -2.099  -0.649  1.00  0.00    -0.197 NA
ATOM      5  N   UNL     1       1.003  -2.094   1.624  1.00  0.00    -0.177 NA
ATOM      6  C   UNL     1      -0.194  -2.571   1.292  1.00  0.00     0.232 A 
ATOM      7  N   UNL     1      -0.565  -2.814   0.039  1.00  0.00    -0.197 NA
BRANCH   3   8
ATOM      8  N   UNL     1       3.083  -1.358   0.918  1.00  0.00    -0.368 N 
ATOM      9  H   UNL     1       3.449  -0.883   0.101  1.00  0.00     0.159 HD
ATOM     10  H   UNL     1       3.046  -0.820   1.771  1.00  0.00     0.159 HD
ENDBRANCH   3   8
BRANCH   6  11
ATOM     11  N   UNL     1      -1.058  -2.780   2.364  1.00  0.00    -0.324 N 
ATOM     12  H   UNL     1      -0.578  -2.553   3.223  1.00  0.00     0.170 HD
BRANCH  11  13
ATOM     13  C   UNL     1      -2.398  -3.166   2.476  1.00  0.00     0.041 A 
ATOM     14  C   UNL     1      -3.231  -3.431   1.385  1.00  0.00     0.026 A 
ATOM     15  C   UNL     1      -2.946  -3.314   3.762  1.00  0.00     0.026 A 
ATOM     16  C   UNL     1      -4.563  -3.822   1.566  1.00  0.00     0.002 A 
ATOM     17  C   UNL     1      -4.276  -3.704   3.949  1.00  0.00     0.002 A 
ATOM     18  C   UNL     1      -5.086  -3.958   2.848  1.00  0.00     0.000 A 
ENDBRANCH  11  13
ENDBRANCH   6  11
ENDBRANCH   1   2
BRANCH   1  19
ATOM     19  S   UNL     1      -0.931  -1.250  -2.985  1.00  0.00    -0.078 SA
BRANCH  19  20
ATOM     20  C   UNL     1       0.365  -0.110  -2.907  1.00  0.00     0.192 A 
ATOM     21  N   UNL     1       1.526  -0.236  -3.507  1.00  0.00    -0.123 NA
ATOM     22  N   UNL     1       0.345   1.051  -2.187  1.00  0.00    -0.299 N 
ATOM     23  N   UNL     1       2.281   0.872  -3.190  1.00  0.00    -0.129 NA
ATOM     24  C   UNL     1       1.568   1.649  -2.393  1.00  0.00     0.167 A 
BRANCH  22  25
ATOM     25  C   UNL     1      -0.814   1.666  -1.495  1.00  0.00     0.091 C 
ATOM     26  C   UNL     1      -0.764   2.100  -0.046  1.00  0.00     0.028 C 
ATOM     27  C   UNL     1      -1.642   0.958  -0.447  1.00  0.00     0.028 C 
ENDBRANCH  22  25
BRANCH  24  28
ATOM     28  C   UNL     1       1.989   2.932  -1.860  1.00  0.00     0.055 A 
ATOM     29  C   UNL     1       1.879   4.090  -2.639  1.00  0.00     0.015 A 
ATOM     30  C   UNL     1       2.540   3.028  -0.580  1.00  0.00     0.134 A 
ATOM     31  C   UNL     1       2.294   5.324  -2.129  1.00  0.00     0.001 A 
ATOM     32  C   UNL     1       2.954   4.255  -0.066  1.00  0.00     0.040 A 
ATOM     33  C   UNL     1       2.828   5.406  -0.843  1.00  0.00     0.003 A 
ATOM     34  F   UNL     1       2.668   1.934   0.187  1.00  0.00    -0.206 F 
ENDBRANCH  24  28
ENDBRANCH  19  20
ENDBRANCH   1  19
TORSDOF 8
