REMARK SMILES Cc1ccc(Nc2nc(N)nc(COc3ccccc3C(N)=O)n2)cc1
REMARK SMILES IDX 13 1 12 2 7 3 8 4 24 5 9 6 11 7 6 8 5 10 2 11 3 12 26 13
REMARK SMILES IDX 4 14 25 15 1 16 10 17 14 20 15 21 16 22 20 23 17 24 19 25
REMARK SMILES IDX 18 26 21 27 22 28 23 29
REMARK H PARENT 6 9 10 18 10 19 22 30 22 31
ROOT
ATOM      1  C   UNL     1      -2.017  -0.858   0.808  1.00  0.00     0.307 C 
ENDROOT
BRANCH   1   2
ATOM      2  C   UNL     1      -0.812  -0.223   1.460  1.00  0.00     0.173 A 
ATOM      3  C   UNL     1       0.875   1.277   1.393  1.00  0.00     0.232 A 
ATOM      4  N   UNL     1       1.350   0.839   2.556  1.00  0.00    -0.177 NA
ATOM      5  N   UNL     1      -0.209   0.775   0.812  1.00  0.00    -0.194 NA
ATOM      6  C   UNL     1       0.688  -0.160   3.116  1.00  0.00     0.225 A 
ATOM      7  N   UNL     1      -0.403  -0.721   2.627  1.00  0.00    -0.194 NA
BRANCH   3   8
ATOM      8  N   UNL     1       1.604   2.314   0.816  1.00  0.00    -0.324 N 
ATOM      9  H   UNL     1       2.410   2.512   1.392  1.00  0.00     0.170 HD
BRANCH   8  10
ATOM     10  C   UNL     1       1.496   3.040  -0.376  1.00  0.00     0.041 A 
ATOM     11  C   UNL     1       1.402   4.578  -2.761  1.00  0.00    -0.051 A 
ATOM     12  C   UNL     1       0.404   3.644  -2.472  1.00  0.00     0.005 A 
ATOM     13  C   UNL     1       2.437   4.758  -1.842  1.00  0.00     0.005 A 
ATOM     14  C   UNL     1       0.456   2.884  -1.296  1.00  0.00     0.026 A 
ATOM     15  C   UNL     1       2.482   3.996  -0.669  1.00  0.00     0.026 A 
ATOM     16  C   UNL     1       1.328   5.411  -4.006  1.00  0.00     0.044 C 
ENDBRANCH   8  10
ENDBRANCH   3   8
BRANCH   6  17
ATOM     17  N   UNL     1       1.154  -0.632   4.326  1.00  0.00    -0.368 N 
ATOM     18  H   UNL     1       1.705   0.070   4.798  1.00  0.00     0.159 HD
ATOM     19  H   UNL     1       0.411  -1.069   4.852  1.00  0.00     0.159 HD
ENDBRANCH   6  17
ENDBRANCH   1   2
BRANCH   1  20
ATOM     20  O   UNL     1      -1.582  -1.833  -0.161  1.00  0.00    -0.485 OA
BRANCH  20  21
ATOM     21  C   UNL     1      -2.203  -3.042   0.020  1.00  0.00     0.132 A 
ATOM     22  C   UNL     1      -1.841  -3.819   1.129  1.00  0.00     0.047 A 
ATOM     23  C   UNL     1      -3.130  -3.529  -0.913  1.00  0.00     0.081 A 
ATOM     24  C   UNL     1      -2.440  -5.061   1.344  1.00  0.00     0.004 A 
ATOM     25  C   UNL     1      -3.729  -4.778  -0.679  1.00  0.00     0.018 A 
ATOM     26  C   UNL     1      -3.389  -5.537   0.444  1.00  0.00     0.001 A 
BRANCH  23  27
ATOM     27  C   UNL     1      -3.541  -2.804  -2.152  1.00  0.00     0.252 C 
ATOM     28  N   UNL     1      -2.820  -1.707  -2.527  1.00  0.00    -0.365 N 
ATOM     29  O   UNL     1      -4.483  -3.186  -2.838  1.00  0.00    -0.269 OA
ATOM     30  H   UNL     1      -1.937  -1.486  -2.082  1.00  0.00     0.159 HD
ATOM     31  H   UNL     1      -3.020  -1.310  -3.434  1.00  0.00     0.159 HD
ENDBRANCH  23  27
ENDBRANCH  20  21
ENDBRANCH   1  20
TORSDOF 7
