REMARK SMILES Cc1ccc(Nc2nc(N)nc(COc3ccc(C)cc3)n2)cc1
REMARK SMILES IDX 7 1 8 2 9 3 11 4 12 5 22 6 6 7 5 9 2 10 3 11 24 12 4 13
REMARK SMILES IDX 23 14 1 15 10 16 13 19 14 20 15 21 16 22 21 23 17 24 20 25
REMARK SMILES IDX 18 26 19 27
REMARK H PARENT 6 8 10 17 10 18
ROOT
ATOM      1  C   UNL     1      -0.644  -0.195  -1.422  1.00  0.00     0.232 A 
ATOM      2  N   UNL     1      -0.254  -1.451  -1.607  1.00  0.00    -0.177 NA
ATOM      3  C   UNL     1       0.938  -1.617  -2.153  1.00  0.00     0.225 A 
ATOM      4  N   UNL     1       1.734  -0.643  -2.552  1.00  0.00    -0.194 NA
ATOM      5  C   UNL     1       1.277   0.588  -2.321  1.00  0.00     0.173 A 
ATOM      6  N   UNL     1       0.088   0.860  -1.775  1.00  0.00    -0.194 NA
ENDROOT
BRANCH   1   7
ATOM      7  N   UNL     1      -1.882   0.116  -0.864  1.00  0.00    -0.324 N 
ATOM      8  H   UNL     1      -1.983   1.119  -0.812  1.00  0.00     0.170 HD
BRANCH   7   9
ATOM      9  C   UNL     1      -2.893  -0.641  -0.261  1.00  0.00     0.041 A 
ATOM     10  C   UNL     1      -5.046  -2.068   0.919  1.00  0.00    -0.051 A 
ATOM     11  C   UNL     1      -3.876  -2.727   0.537  1.00  0.00     0.005 A 
ATOM     12  C   UNL     1      -5.149  -0.695   0.685  1.00  0.00     0.005 A 
ATOM     13  C   UNL     1      -2.815  -2.020  -0.045  1.00  0.00     0.026 A 
ATOM     14  C   UNL     1      -4.085   0.004   0.105  1.00  0.00     0.026 A 
ATOM     15  C   UNL     1      -6.193  -2.831   1.510  1.00  0.00     0.044 C 
ENDBRANCH   7   9
ENDBRANCH   1   7
BRANCH   3  16
ATOM     16  N   UNL     1       1.364  -2.912  -2.369  1.00  0.00    -0.368 N 
ATOM     17  H   UNL     1       0.573  -3.537  -2.437  1.00  0.00     0.159 HD
ATOM     18  H   UNL     1       2.049  -2.939  -3.111  1.00  0.00     0.159 HD
ENDBRANCH   3  16
BRANCH   5  19
ATOM     19  C   UNL     1       2.143   1.757  -2.737  1.00  0.00     0.307 C 
BRANCH  19  20
ATOM     20  O   UNL     1       3.391   1.809  -2.039  1.00  0.00    -0.486 OA
BRANCH  20  21
ATOM     21  C   UNL     1       3.431   2.380  -0.799  1.00  0.00     0.120 A 
ATOM     22  C   UNL     1       4.699   2.398  -0.214  1.00  0.00     0.047 A 
ATOM     23  C   UNL     1       2.355   2.918  -0.096  1.00  0.00     0.047 A 
ATOM     24  C   UNL     1       4.896   2.951   1.054  1.00  0.00     0.007 A 
ATOM     25  C   UNL     1       2.549   3.472   1.176  1.00  0.00     0.007 A 
ATOM     26  C   UNL     1       3.823   3.505   1.755  1.00  0.00    -0.051 A 
ATOM     27  C   UNL     1       4.018   4.066   3.132  1.00  0.00     0.044 C 
ENDBRANCH  20  21
ENDBRANCH  19  20
ENDBRANCH   5  19
TORSDOF 6
