REMARK SMILES NC(=O)c1ccc(Nc2nc(-c3ccccc3)c3ccccc3n2)cc1
REMARK SMILES IDX 4 1 5 2 6 3 7 4 25 5 26 6 2 7 1 8 3 11 8 12 9 14 10 15 24 16
REMARK SMILES IDX 11 17 23 18 18 19 22 20 19 21 21 22 20 23 12 24 13 25 17 26
REMARK SMILES IDX 14 27 16 28 15 29
REMARK H PARENT 1 9 1 10 8 13
ROOT
ATOM      1  C   UNL     1      -1.882  -3.205   3.328  1.00  0.00     0.039 A 
ATOM      2  C   UNL     1      -2.117  -1.975   2.711  1.00  0.00     0.016 A 
ATOM      3  C   UNL     1      -1.122  -1.369   1.933  1.00  0.00     0.027 A 
ATOM      4  C   UNL     1       0.131  -1.966   1.765  1.00  0.00     0.041 A 
ATOM      5  C   UNL     1       0.355  -3.198   2.402  1.00  0.00     0.027 A 
ATOM      6  C   UNL     1      -0.634  -3.814   3.179  1.00  0.00     0.016 A 
ENDROOT
BRANCH   1   7
ATOM      7  C   UNL     1      -2.970  -3.812   4.141  1.00  0.00     0.248 C 
ATOM      8  N   UNL     1      -2.930  -5.166   4.335  1.00  0.00    -0.366 N 
ATOM      9  H   UNL     1      -2.383  -5.772   3.741  1.00  0.00     0.159 HD
ATOM     10  H   UNL     1      -3.752  -5.566   4.771  1.00  0.00     0.159 HD
ATOM     11  O   UNL     1      -3.890  -3.144   4.593  1.00  0.00    -0.270 OA
ENDBRANCH   1   7
BRANCH   4  12
ATOM     12  N   UNL     1       1.159  -1.421   0.989  1.00  0.00    -0.324 N 
ATOM     13  H   UNL     1       2.049  -1.896   1.000  1.00  0.00     0.170 HD
BRANCH  12  14
ATOM     14  C   UNL     1       1.275  -0.277   0.204  1.00  0.00     0.228 A 
ATOM     15  N   UNL     1       0.249   0.553   0.011  1.00  0.00    -0.212 NA
ATOM     16  N   UNL     1       2.485  -0.090  -0.341  1.00  0.00    -0.213 NA
ATOM     17  C   UNL     1       0.448   1.641  -0.764  1.00  0.00     0.084 A 
ATOM     18  C   UNL     1       2.675   0.979  -1.124  1.00  0.00     0.076 A 
ATOM     19  C   UNL     1       1.670   1.912  -1.392  1.00  0.00     0.027 A 
ATOM     20  C   UNL     1       3.926   1.168  -1.699  1.00  0.00     0.029 A 
ATOM     21  C   UNL     1       1.943   3.008  -2.254  1.00  0.00     0.012 A 
ATOM     22  C   UNL     1       4.201   2.251  -2.539  1.00  0.00     0.002 A 
ATOM     23  C   UNL     1       3.204   3.174  -2.820  1.00  0.00     0.001 A 
BRANCH  17  24
ATOM     24  C   UNL     1      -0.740   2.502  -0.880  1.00  0.00     0.001 A 
ATOM     25  C   UNL     1      -0.751   3.808  -0.360  1.00  0.00     0.010 A 
ATOM     26  C   UNL     1      -1.910   2.023  -1.492  1.00  0.00     0.010 A 
ATOM     27  C   UNL     1      -1.885   4.616  -0.472  1.00  0.00     0.001 A 
ATOM     28  C   UNL     1      -3.044   2.829  -1.605  1.00  0.00     0.001 A 
ATOM     29  C   UNL     1      -3.030   4.127  -1.098  1.00  0.00     0.000 A 
ENDBRANCH  17  24
ENDBRANCH  12  14
ENDBRANCH   4  12
TORSDOF 4
