REMARK SMILES CCOc1ccc(C2CCC[NH+]2Cc2nc(N)nc(Nc3ccccc3C)n2)cc1
REMARK SMILES IDX 8 1 9 2 10 3 11 4 12 5 7 7 4 8 5 9 30 10 6 11 29 12 3 13
REMARK SMILES IDX 2 14 1 15 13 16 14 17 15 18 28 19 16 20 19 21 18 22 17 23
REMARK SMILES IDX 20 26 21 28 22 29 26 30 23 31 25 32 24 33 27 34
REMARK H PARENT 12 6 17 24 17 25 20 27
ROOT
ATOM      1  C   UNL     1      -2.192   0.665  -0.853  1.00  0.00     0.215 C 
ATOM      2  C   UNL     1      -3.564   1.285  -1.119  1.00  0.00     0.076 C 
ATOM      3  C   UNL     1      -4.184   1.470   0.255  1.00  0.00     0.068 C 
ATOM      4  C   UNL     1      -3.657   0.320   1.092  1.00  0.00     0.263 C 
ATOM      5  N   UNL     1      -2.477  -0.241   0.342  1.00  0.00    -0.322 N 
ATOM      6  H   UNL     1      -1.638  -0.215   0.945  1.00  0.00     0.349 HD
ENDROOT
BRANCH   1   7
ATOM      7  C   UNL     1      -1.036   1.606  -0.565  1.00  0.00     0.010 A 
ATOM      8  C   UNL     1       1.216   3.225   0.037  1.00  0.00     0.119 A 
ATOM      9  C   UNL     1       1.387   1.898  -0.334  1.00  0.00     0.047 A 
ATOM     10  C   UNL     1      -0.076   3.742   0.105  1.00  0.00     0.047 A 
ATOM     11  C   UNL     1       0.276   1.104  -0.641  1.00  0.00     0.014 A 
ATOM     12  C   UNL     1      -1.189   2.949  -0.200  1.00  0.00     0.014 A 
BRANCH   8  13
ATOM     13  O   UNL     1       2.204   4.101   0.377  1.00  0.00    -0.494 OA
BRANCH  13  14
ATOM     14  C   UNL     1       3.541   3.805  -0.020  1.00  0.00     0.226 C 
ATOM     15  C   UNL     1       4.293   3.120   1.105  1.00  0.00     0.049 C 
ENDBRANCH  13  14
ENDBRANCH   8  13
ENDBRANCH   1   7
BRANCH   5  16
ATOM     16  C   UNL     1      -2.650  -1.714  -0.023  1.00  0.00     0.341 C 
BRANCH  16  17
ATOM     17  C   UNL     1      -1.356  -2.435  -0.331  1.00  0.00     0.190 A 
ATOM     18  N   UNL     1      -1.354  -3.352  -1.290  1.00  0.00    -0.192 NA
ATOM     19  N   UNL     1      -0.293  -2.073   0.388  1.00  0.00    -0.191 NA
ATOM     20  C   UNL     1      -0.178  -3.914  -1.517  1.00  0.00     0.225 A 
ATOM     21  C   UNL     1       0.843  -2.701   0.091  1.00  0.00     0.232 A 
ATOM     22  N   UNL     1       0.933  -3.625  -0.859  1.00  0.00    -0.177 NA
BRANCH  20  23
ATOM     23  N   UNL     1      -0.104  -4.868  -2.504  1.00  0.00    -0.368 N 
ATOM     24  H   UNL     1      -0.989  -5.316  -2.695  1.00  0.00     0.159 HD
ATOM     25  H   UNL     1       0.702  -5.471  -2.392  1.00  0.00     0.159 HD
ENDBRANCH  20  23
BRANCH  21  26
ATOM     26  N   UNL     1       2.040  -2.367   0.710  1.00  0.00    -0.324 N 
ATOM     27  H   UNL     1       2.784  -2.928   0.316  1.00  0.00     0.170 HD
BRANCH  26  28
ATOM     28  C   UNL     1       2.384  -1.566   1.810  1.00  0.00     0.044 A 
ATOM     29  C   UNL     1       1.422  -1.048   2.690  1.00  0.00     0.026 A 
ATOM     30  C   UNL     1       3.736  -1.201   2.019  1.00  0.00    -0.027 A 
ATOM     31  C   UNL     1       1.775  -0.210   3.752  1.00  0.00     0.002 A 
ATOM     32  C   UNL     1       4.079  -0.356   3.090  1.00  0.00     0.005 A 
ATOM     33  C   UNL     1       3.104   0.138   3.951  1.00  0.00     0.000 A 
ATOM     34  C   UNL     1       4.840  -1.673   1.107  1.00  0.00     0.046 C 
ENDBRANCH  26  28
ENDBRANCH  21  26
ENDBRANCH  16  17
ENDBRANCH   5  16
TORSDOF 8
