REMARK SMILES O=C(CCNc1nc2ccccc2c(=O)[nH]1)NC1CCCCC1
REMARK SMILES IDX 3 1 2 2 17 3 1 4 18 6 19 7 23 8 20 9 22 10 21 11 4 12 5 13
REMARK SMILES IDX 6 14 7 15 16 16 8 17 14 18 9 19 13 20 10 21 12 22 11 23
REMARK SMILES IDX 15 26
REMARK H PARENT 17 5 5 24 16 25
ROOT
ATOM      1  C   UNL     1      -0.240  -1.566   1.413  1.00  0.00     0.121 C 
ENDROOT
BRANCH   1   2
ATOM      2  C   UNL     1       0.895  -0.567   1.486  1.00  0.00     0.221 C 
ATOM      3  N   UNL     1       0.471   0.705   1.817  1.00  0.00    -0.353 N 
ATOM      4  O   UNL     1       2.068  -0.857   1.267  1.00  0.00    -0.275 OA
ATOM      5  H   UNL     1      -0.520   0.900   1.753  1.00  0.00     0.163 HD
BRANCH   3   6
ATOM      6  C   UNL     1       1.386   1.839   1.812  1.00  0.00     0.082 C 
ATOM      7  C   UNL     1       1.599   2.372   0.393  1.00  0.00     0.025 C 
ATOM      8  C   UNL     1       0.872   2.945   2.748  1.00  0.00     0.025 C 
ATOM      9  C   UNL     1       2.633   3.500   0.357  1.00  0.00     0.002 C 
ATOM     10  C   UNL     1       1.371   4.344   2.376  1.00  0.00     0.002 C 
ATOM     11  C   UNL     1       2.712   4.300   1.658  1.00  0.00     0.000 C 
ENDBRANCH   3   6
ENDBRANCH   1   2
BRANCH   1  12
ATOM     12  C   UNL     1       0.258  -2.976   1.119  1.00  0.00     0.126 C 
BRANCH  12  13
ATOM     13  N   UNL     1       0.880  -3.070  -0.194  1.00  0.00    -0.355 N 
ATOM     14  C   UNL     1       0.160  -3.060  -1.352  1.00  0.00     0.203 C 
ATOM     15  N   UNL     1      -1.126  -3.213  -1.384  1.00  0.00    -0.214 NA
ATOM     16  N   UNL     1       0.894  -2.868  -2.489  1.00  0.00    -0.292 N 
ATOM     17  C   UNL     1      -1.778  -3.186  -2.627  1.00  0.00     0.080 A 
ATOM     18  C   UNL     1       0.363  -2.833  -3.753  1.00  0.00     0.260 C 
ATOM     19  C   UNL     1      -3.165  -3.351  -2.668  1.00  0.00     0.029 A 
ATOM     20  C   UNL     1      -1.096  -3.000  -3.830  1.00  0.00     0.066 A 
ATOM     21  C   UNL     1      -3.849  -3.329  -3.887  1.00  0.00     0.002 A 
ATOM     22  C   UNL     1      -1.767  -2.975  -5.056  1.00  0.00     0.016 A 
ATOM     23  C   UNL     1      -3.151  -3.140  -5.080  1.00  0.00     0.001 A 
ATOM     24  H   UNL     1       1.787  -2.608  -0.217  1.00  0.00     0.163 HD
ATOM     25  H   UNL     1       1.895  -2.783  -2.431  1.00  0.00     0.173 HD
ATOM     26  O   UNL     1       1.054  -2.672  -4.752  1.00  0.00    -0.269 OA
ENDBRANCH  12  13
ENDBRANCH   1  12
TORSDOF 4
