REMARK SMILES c1ccc(-c2noc(NCC3CCN(c4ccccc4)C3)n2)cc1
REMARK SMILES IDX 9 1 8 3 5 4 6 5 22 6 7 7 4 8 1 9 2 10 24 11 3 12 23 13 10 14
REMARK SMILES IDX 11 15 12 16 21 17 13 18 14 19 15 20 16 21 20 22 17 23 19 24
REMARK SMILES IDX 18 25
REMARK H PARENT 9 2
ROOT
ATOM      1  N   UNL     1       1.827  -1.242   0.255  1.00  0.00    -0.337 N 
ATOM      2  H   UNL     1       2.794  -0.960   0.150  1.00  0.00     0.165 HD
ENDROOT
BRANCH   1   3
ATOM      3  C   UNL     1       1.376  -1.495   1.494  1.00  0.00     0.321 A 
ATOM      4  C   UNL     1       0.333  -1.868   3.279  1.00  0.00     0.204 A 
ATOM      5  N   UNL     1       1.620  -1.846   3.666  1.00  0.00    -0.055 NA
ATOM      6  N   UNL     1       0.152  -1.644   1.930  1.00  0.00    -0.171 NA
ATOM      7  O   UNL     1       2.312  -1.603   2.480  1.00  0.00    -0.315 OA
BRANCH   4   8
ATOM      8  C   UNL     1      -0.788  -2.096   4.186  1.00  0.00     0.023 A 
ATOM      9  C   UNL     1      -2.961  -2.532   5.915  1.00  0.00     0.000 A 
ATOM     10  C   UNL     1      -1.661  -2.512   6.418  1.00  0.00     0.001 A 
ATOM     11  C   UNL     1      -3.182  -2.336   4.553  1.00  0.00     0.001 A 
ATOM     12  C   UNL     1      -0.580  -2.296   5.559  1.00  0.00     0.012 A 
ATOM     13  C   UNL     1      -2.101  -2.119   3.693  1.00  0.00     0.012 A 
ENDBRANCH   4   8
ENDBRANCH   1   3
BRANCH   1  14
ATOM     14  C   UNL     1       0.901  -0.830  -0.786  1.00  0.00     0.123 C 
BRANCH  14  15
ATOM     15  C   UNL     1       0.502   0.646  -0.638  1.00  0.00     0.029 C 
ATOM     16  C   UNL     1       1.648   1.615  -0.934  1.00  0.00     0.028 C 
ATOM     17  C   UNL     1      -0.528   1.038  -1.704  1.00  0.00     0.122 C 
ATOM     18  C   UNL     1       1.663   1.725  -2.458  1.00  0.00     0.117 C 
ATOM     19  N   UNL     1       0.285   1.436  -2.851  1.00  0.00    -0.371 N 
BRANCH  19  20
ATOM     20  C   UNL     1      -0.227   1.733  -4.095  1.00  0.00     0.037 A 
ATOM     21  C   UNL     1       0.604   2.077  -5.174  1.00  0.00     0.026 A 
ATOM     22  C   UNL     1      -1.605   1.688  -4.362  1.00  0.00     0.026 A 
ATOM     23  C   UNL     1       0.092   2.371  -6.444  1.00  0.00     0.002 A 
ATOM     24  C   UNL     1      -2.128   1.981  -5.629  1.00  0.00     0.002 A 
ATOM     25  C   UNL     1      -1.277   2.325  -6.672  1.00  0.00     0.000 A 
ENDBRANCH  19  20
ENDBRANCH  14  15
ENDBRANCH   1  14
TORSDOF 5
