REMARK SMILES NC(=O)c1cc(NC(=O)c2ccccc2OCC2CC2)ccc1F
REMARK SMILES IDX 10 1 11 2 12 3 13 4 14 5 15 6 8 7 7 8 9 10 6 11 4 12 5 13
REMARK SMILES IDX 23 14 22 15 21 16 24 17 2 18 1 19 3 22 16 23 17 24 18 25
REMARK SMILES IDX 19 26 20 27
REMARK H PARENT 7 9 1 20 1 21
ROOT
ATOM      1  C   UNL     1      -0.977  -1.865   1.552  1.00  0.00     0.082 A 
ATOM      2  C   UNL     1      -0.944  -2.954   2.439  1.00  0.00     0.018 A 
ATOM      3  C   UNL     1      -2.088  -3.716   2.677  1.00  0.00     0.001 A 
ATOM      4  C   UNL     1      -3.282  -3.399   2.036  1.00  0.00     0.004 A 
ATOM      5  C   UNL     1      -3.328  -2.334   1.137  1.00  0.00     0.047 A 
ATOM      6  C   UNL     1      -2.174  -1.586   0.874  1.00  0.00     0.132 A 
ENDROOT
BRANCH   1   7
ATOM      7  C   UNL     1       0.288  -1.075   1.390  1.00  0.00     0.259 C 
ATOM      8  N   UNL     1       0.144   0.194   0.865  1.00  0.00    -0.322 N 
ATOM      9  H   UNL     1      -0.805   0.457   0.605  1.00  0.00     0.170 HD
ATOM     10  O   UNL     1       1.346  -1.584   1.748  1.00  0.00    -0.269 OA
BRANCH   8  11
ATOM     11  C   UNL     1       1.142   1.155   0.614  1.00  0.00     0.042 A 
ATOM     12  C   UNL     1       1.644   3.397  -0.222  1.00  0.00     0.077 A 
ATOM     13  C   UNL     1       0.723   2.376   0.066  1.00  0.00     0.043 A 
ATOM     14  C   UNL     1       2.994   3.180   0.047  1.00  0.00     0.136 A 
ATOM     15  C   UNL     1       3.425   1.972   0.589  1.00  0.00     0.042 A 
ATOM     16  C   UNL     1       2.501   0.962   0.872  1.00  0.00     0.029 A 
ATOM     17  F   UNL     1       3.917   4.120  -0.213  1.00  0.00    -0.206 F 
BRANCH  12  18
ATOM     18  C   UNL     1       1.126   4.658  -0.810  1.00  0.00     0.251 C 
ATOM     19  N   UNL     1       2.009   5.666  -1.067  1.00  0.00    -0.366 N 
ATOM     20  H   UNL     1       1.652   6.517  -1.482  1.00  0.00     0.159 HD
ATOM     21  H   UNL     1       3.007   5.579  -0.920  1.00  0.00     0.159 HD
ATOM     22  O   UNL     1      -0.067   4.800  -1.061  1.00  0.00    -0.269 OA
ENDBRANCH  12  18
ENDBRANCH   8  11
ENDBRANCH   1   7
BRANCH   6  23
ATOM     23  O   UNL     1      -2.249  -0.536  -0.006  1.00  0.00    -0.492 OA
BRANCH  23  24
ATOM     24  C   UNL     1      -2.520  -0.958  -1.352  1.00  0.00     0.233 C 
BRANCH  24  25
ATOM     25  C   UNL     1      -1.330  -0.631  -2.200  1.00  0.00     0.027 C 
ATOM     26  C   UNL     1      -1.153   0.753  -2.767  1.00  0.00     0.007 C 
ATOM     27  C   UNL     1      -1.477  -0.398  -3.681  1.00  0.00     0.007 C 
ENDBRANCH  24  25
ENDBRANCH  23  24
ENDBRANCH   6  23
TORSDOF 6
