/home/pchatterjee/Documents/git/vs_workflow/DiffDock/diffdock_run/pdbqt_scrubbed/Z2996605995.pdbqt
     RDKit          3D

 23 25  0  0  0  0  0  0  0  0999 V2000
    5.4049   43.0471   50.0434 C   0  0  0  0  0  0  0  0  0  0  0  0
    5.8308   42.0355   49.1775 C   0  0  0  0  0  0  0  0  0  0  0  0
    7.4301   42.0347   48.4672 Cl  0  0  0  0  0  0  0  0  0  0  0  0
    5.0007   40.9766   48.8366 C   0  0  0  0  0  3  0  0  0  0  0  0
    3.7209   40.8703   49.3327 C   0  0  0  0  0  3  0  0  0  0  0  0
    3.2896   41.8600   50.1875 C   0  0  0  0  0  3  0  0  0  0  0  0
    4.1320   42.9255   50.5283 C   0  0  0  0  0  0  0  0  0  0  0  0
    6.3384   44.0974   50.3319 C   0  0  0  0  0  0  0  0  0  0  0  0
    7.5136   44.0076   51.1049 N   0  0  0  0  0  0  0  0  0  0  0  0
    6.0850   45.2478   49.8409 O   0  0  0  0  0  0  0  0  0  0  0  0
    8.0123   45.1579   51.7922 C   0  0  0  0  0  0  0  0  0  0  0  0
    8.9614   47.3753   53.1226 C   0  0  0  0  0  0  0  0  0  0  0  0
    7.6593   46.9696   53.3459 C   0  0  0  0  0  3  0  0  0  0  0  0
    9.7457   46.6929   52.2680 N   0  0  0  0  0  0  0  0  0  0  0  0
    7.2066   45.8566   52.6683 C   0  0  0  0  0  3  0  0  0  0  0  0
    9.3041   45.5931   51.5961 C   0  0  0  0  0  0  0  0  0  0  0  0
    9.4897   48.5718   53.8339 C   0  0  0  0  0  1  0  0  0  0  0  0
   10.2183   44.8821   50.6656 C   0  0  0  0  0  1  0  0  0  0  0  0
    3.5885   43.8537   51.4010 O   0  0  0  0  0  0  0  0  0  0  0  0
    2.8973   43.4487   52.5833 C   0  0  0  0  0  2  0  0  0  0  0  0
    2.3794   44.6636   53.3324 C   0  0  0  0  0  3  0  0  0  0  0  0
    1.0554   45.2548   52.7868 C   0  0  0  0  0  2  0  0  0  0  0  0
    2.3318   45.9811   52.6507 C   0  0  0  0  0  2  0  0  0  0  0  0
  1  7  1  0
  1  8  1  0
  2  1  2  0
  3  2  1  0
  4  5  2  0
  4  2  1  0
  5  6  1  0
  6  7  2  0
  7 19  1  0
  8  9  1  0
  9 11  1  0
 10  8  2  0
 11 15  2  0
 12 13  2  0
 12 17  1  0
 14 12  1  0
 15 13  1  0
 16 11  1  0
 16 14  2  0
 18 16  1  0
 19 20  1  0
 20 21  1  0
 21 22  1  0
 21 23  1  0
 22 23  1  0
M  RAD  8   4   2   5   2   6   2  13   2  15   2  17   2  18   2  20   3
M  RAD  3  21   2  22   3  23   3
M  END
>  <REMARK>  (1) 
 SMILES Cc1ccc(NC(=O)c2c(Cl)cccc2OCC2CC2)c(C)n1
 SMILES IDX 9 1 10 2 11 3 12 4 13 5 14 6 15 7 7 8 6 9 8 11 5 12 2 13
 SMILES IDX 3 14 23 15 4 16 21 17 1 18 22 19 16 20 17 21 18 22 19 23
 SMILES IDX 20 24
 H PARENT 6 10

>  <TORSDO>  (1) 
F 5

$$$$
