/home/pchatterjee/Documents/git/vs_workflow/DiffDock/diffdock_run/pdbqt_scrubbed/Z2996605995.pdbqt
     RDKit          3D

 23 25  0  0  0  0  0  0  0  0999 V2000
   15.0053   84.4180   70.3898 C   0  0  0  0  0  0  0  0  0  0  0  0
   16.3808   84.4618   70.6360 C   0  0  0  0  0  0  0  0  0  0  0  0
   17.3585   85.8446   70.1956 Cl  0  0  0  0  0  0  0  0  0  0  0  0
   17.0417   83.4040   71.2448 C   0  0  0  0  0  3  0  0  0  0  0  0
   16.3778   82.2629   71.6352 C   0  0  0  0  0  3  0  0  0  0  0  0
   15.0223   82.2077   71.3991 C   0  0  0  0  0  3  0  0  0  0  0  0
   14.3608   83.2785   70.7852 C   0  0  0  0  0  0  0  0  0  0  0  0
   14.4174   85.5623   69.7552 C   0  0  0  0  0  0  0  0  0  0  0  0
   13.0973   86.0350   69.8989 N   0  0  0  0  0  0  0  0  0  0  0  0
   15.1636   86.2341   68.9674 O   0  0  0  0  0  0  0  0  0  0  0  0
   12.6114   87.0804   69.0532 C   0  0  0  0  0  0  0  0  0  0  0  0
   11.6864   89.0939   67.4167 C   0  0  0  0  0  0  0  0  0  0  0  0
   12.9338   88.5528   67.1693 C   0  0  0  0  0  3  0  0  0  0  0  0
   10.9426   88.6389   68.4419 N   0  0  0  0  0  0  0  0  0  0  0  0
   13.3755   87.5457   68.0023 C   0  0  0  0  0  3  0  0  0  0  0  0
   11.3736   87.6447   69.2678 C   0  0  0  0  0  0  0  0  0  0  0  0
   11.1718   90.1828   66.5414 C   0  0  0  0  0  1  0  0  0  0  0  0
   10.5060   87.1856   70.3829 C   0  0  0  0  0  1  0  0  0  0  0  0
   12.9976   83.1084   70.6079 O   0  0  0  0  0  0  0  0  0  0  0  0
   12.1415   82.7673   71.6990 C   0  0  0  0  0  2  0  0  0  0  0  0
   10.7191   82.5646   71.2083 C   0  0  0  0  0  3  0  0  0  0  0  0
   10.2029   83.6480   70.2284 C   0  0  0  0  0  2  0  0  0  0  0  0
    9.6636   83.5332   71.5964 C   0  0  0  0  0  2  0  0  0  0  0  0
  1  7  1  0
  1  8  1  0
  2  1  2  0
  3  2  1  0
  4  5  2  0
  4  2  1  0
  5  6  1  0
  6  7  2  0
  7 19  1  0
  8  9  1  0
  9 11  1  0
 10  8  2  0
 11 15  2  0
 12 13  2  0
 12 17  1  0
 14 12  1  0
 15 13  1  0
 16 11  1  0
 16 14  2  0
 18 16  1  0
 19 20  1  0
 20 21  1  0
 21 22  1  0
 21 23  1  0
 22 23  1  0
M  RAD  8   4   2   5   2   6   2  13   2  15   2  17   2  18   2  20   3
M  RAD  3  21   2  22   3  23   3
M  END
>  <REMARK>  (1) 
 SMILES Cc1ccc(NC(=O)c2c(Cl)cccc2OCC2CC2)c(C)n1
 SMILES IDX 9 1 10 2 11 3 12 4 13 5 14 6 15 7 7 8 6 9 8 11 5 12 2 13
 SMILES IDX 3 14 23 15 4 16 21 17 1 18 22 19 16 20 17 21 18 22 19 23
 SMILES IDX 20 24
 H PARENT 6 10

>  <TORSDO>  (1) 
F 5

$$$$
