/home/pchatterjee/Documents/git/vs_workflow/DiffDock/diffdock_run/pdbqt_scrubbed/Z2996605995.pdbqt
     RDKit          3D

 23 25  0  0  0  0  0  0  0  0999 V2000
    5.5673   46.6785   53.2973 C   0  0  0  0  0  0  0  0  0  0  0  0
    4.2279   46.4492   53.6257 C   0  0  0  0  0  0  0  0  0  0  0  0
    3.1791   45.4761   52.6183 Cl  0  0  0  0  0  0  0  0  0  0  0  0
    3.6614   46.9860   54.7736 C   0  0  0  0  0  3  0  0  0  0  0  0
    4.3881   47.7682   55.6427 C   0  0  0  0  0  3  0  0  0  0  0  0
    5.7089   48.0008   55.3309 C   0  0  0  0  0  3  0  0  0  0  0  0
    6.2752   47.4559   54.1718 C   0  0  0  0  0  0  0  0  0  0  0  0
    6.0565   46.0793   52.0892 C   0  0  0  0  0  0  0  0  0  0  0  0
    7.2247   45.3067   51.9307 N   0  0  0  0  0  0  0  0  0  0  0  0
    5.3658   46.2622   51.0318 O   0  0  0  0  0  0  0  0  0  0  0  0
    7.4182   44.5297   50.7463 C   0  0  0  0  0  0  0  0  0  0  0  0
    7.7784   43.0285   48.4649 C   0  0  0  0  0  0  0  0  0  0  0  0
    6.5463   43.0066   49.0907 C   0  0  0  0  0  3  0  0  0  0  0  0
    8.7799   43.7734   48.9683 N   0  0  0  0  0  0  0  0  0  0  0  0
    6.3901   43.7664   50.2315 C   0  0  0  0  0  3  0  0  0  0  0  0
    8.6314   44.5256   50.0944 C   0  0  0  0  0  0  0  0  0  0  0  0
    7.9894   42.2228   47.2309 C   0  0  0  0  0  1  0  0  0  0  0  0
    9.7750   45.3272   50.6009 C   0  0  0  0  0  1  0  0  0  0  0  0
    7.6127   47.7541   53.9701 O   0  0  0  0  0  0  0  0  0  0  0  0
    8.3240   48.6211   54.8544 C   0  0  0  0  0  2  0  0  0  0  0  0
    9.8134   48.5597   54.5664 C   0  0  0  0  0  3  0  0  0  0  0  0
   10.4218   47.1349   54.5605 C   0  0  0  0  0  2  0  0  0  0  0  0
   10.7476   48.1023   55.6251 C   0  0  0  0  0  2  0  0  0  0  0  0
  1  7  1  0
  1  8  1  0
  2  1  2  0
  3  2  1  0
  4  5  2  0
  4  2  1  0
  5  6  1  0
  6  7  2  0
  7 19  1  0
  8  9  1  0
  9 11  1  0
 10  8  2  0
 11 15  2  0
 12 13  2  0
 12 17  1  0
 14 12  1  0
 15 13  1  0
 16 11  1  0
 16 14  2  0
 18 16  1  0
 19 20  1  0
 20 21  1  0
 21 22  1  0
 21 23  1  0
 22 23  1  0
M  RAD  8   4   2   5   2   6   2  13   2  15   2  17   2  18   2  20   3
M  RAD  3  21   2  22   3  23   3
M  END
>  <REMARK>  (1) 
 SMILES Cc1ccc(NC(=O)c2c(Cl)cccc2OCC2CC2)c(C)n1
 SMILES IDX 9 1 10 2 11 3 12 4 13 5 14 6 15 7 7 8 6 9 8 11 5 12 2 13
 SMILES IDX 3 14 23 15 4 16 21 17 1 18 22 19 16 20 17 21 18 22 19 23
 SMILES IDX 20 24
 H PARENT 6 10

>  <TORSDO>  (1) 
F 5

$$$$
