/home/pchatterjee/Documents/git/vs_workflow/DiffDock/diffdock_run/pdbqt_scrubbed/Z2996605995.pdbqt
     RDKit          3D

 23 25  0  0  0  0  0  0  0  0999 V2000
    5.0325   45.8802   53.3153 C   0  0  0  0  0  0  0  0  0  0  0  0
    3.8671   45.4108   53.9285 C   0  0  0  0  0  0  0  0  0  0  0  0
    2.9023   44.1294   53.2291 Cl  0  0  0  0  0  0  0  0  0  0  0  0
    3.4158   45.9419   55.1288 C   0  0  0  0  0  3  0  0  0  0  0  0
    4.0912   46.9540   55.7730 C   0  0  0  0  0  3  0  0  0  0  0  0
    5.2412   47.4246   55.1796 C   0  0  0  0  0  3  0  0  0  0  0  0
    5.6920   46.8843   53.9689 C   0  0  0  0  0  0  0  0  0  0  0  0
    5.4132   45.2654   52.0764 C   0  0  0  0  0  0  0  0  0  0  0  0
    6.5970   44.5500   51.8058 N   0  0  0  0  0  0  0  0  0  0  0  0
    4.5968   45.3745   51.1015 O   0  0  0  0  0  0  0  0  0  0  0  0
    6.7452   43.8448   50.5709 C   0  0  0  0  0  0  0  0  0  0  0  0
    7.0177   42.4835   48.1916 C   0  0  0  0  0  0  0  0  0  0  0  0
    5.7733   42.5383   48.7906 C   0  0  0  0  0  3  0  0  0  0  0  0
    8.0732   43.0879   48.7678 N   0  0  0  0  0  0  0  0  0  0  0  0
    5.6617   43.2257   49.9814 C   0  0  0  0  0  3  0  0  0  0  0  0
    7.9689   43.7681   49.9436 C   0  0  0  0  0  0  0  0  0  0  0  0
    7.1817   41.7518   46.9055 C   0  0  0  0  0  1  0  0  0  0  0  0
    9.1712   44.4144   50.5298 C   0  0  0  0  0  1  0  0  0  0  0  0
    6.8633   47.4346   53.4750 O   0  0  0  0  0  0  0  0  0  0  0  0
    8.0311   47.5535   54.2884 C   0  0  0  0  0  2  0  0  0  0  0  0
    9.2131   48.0049   53.4492 C   0  0  0  0  0  3  0  0  0  0  0  0
    9.2954   47.3708   52.0380 C   0  0  0  0  0  2  0  0  0  0  0  0
   10.2726   47.0299   53.0888 C   0  0  0  0  0  2  0  0  0  0  0  0
  1  7  1  0
  1  8  1  0
  2  1  2  0
  3  2  1  0
  4  5  2  0
  4  2  1  0
  5  6  1  0
  6  7  2  0
  7 19  1  0
  8  9  1  0
  9 11  1  0
 10  8  2  0
 11 15  2  0
 12 13  2  0
 12 17  1  0
 14 12  1  0
 15 13  1  0
 16 11  1  0
 16 14  2  0
 18 16  1  0
 19 20  1  0
 20 21  1  0
 21 22  1  0
 21 23  1  0
 22 23  1  0
M  RAD  8   4   2   5   2   6   2  13   2  15   2  17   2  18   2  20   3
M  RAD  3  21   2  22   3  23   3
M  END
>  <REMARK>  (1) 
 SMILES Cc1ccc(NC(=O)c2c(Cl)cccc2OCC2CC2)c(C)n1
 SMILES IDX 9 1 10 2 11 3 12 4 13 5 14 6 15 7 7 8 6 9 8 11 5 12 2 13
 SMILES IDX 3 14 23 15 4 16 21 17 1 18 22 19 16 20 17 21 18 22 19 23
 SMILES IDX 20 24
 H PARENT 6 10

>  <TORSDO>  (1) 
F 5

$$$$
