/home/pchatterjee/Documents/git/vs_workflow/DiffDock/diffdock_run/pdbqt_scrubbed/Z2996605995.pdbqt
     RDKit          3D

 23 25  0  0  0  0  0  0  0  0999 V2000
    5.4894   46.7659   53.1854 C   0  0  0  0  0  0  0  0  0  0  0  0
    4.1153   46.6004   53.3822 C   0  0  0  0  0  0  0  0  0  0  0  0
    3.1331   45.6352   52.3024 Cl  0  0  0  0  0  0  0  0  0  0  0  0
    3.4592   47.1976   54.4496 C   0  0  0  0  0  3  0  0  0  0  0  0
    4.1270   47.9799   55.3647 C   0  0  0  0  0  3  0  0  0  0  0  0
    5.4812   48.1501   55.1825 C   0  0  0  0  0  3  0  0  0  0  0  0
    6.1378   47.5444   54.1040 C   0  0  0  0  0  0  0  0  0  0  0  0
    6.0722   46.1074   52.0520 C   0  0  0  0  0  0  0  0  0  0  0  0
    7.0410   45.0838   52.0633 N   0  0  0  0  0  0  0  0  0  0  0  0
    5.6785   46.4847   50.8982 O   0  0  0  0  0  0  0  0  0  0  0  0
    7.2193   44.2492   50.9162 C   0  0  0  0  0  0  0  0  0  0  0  0
    7.5501   42.6370   48.7072 C   0  0  0  0  0  0  0  0  0  0  0  0
    6.3319   42.6331   49.3600 C   0  0  0  0  0  3  0  0  0  0  0  0
    8.5525   43.4183   49.1499 N   0  0  0  0  0  0  0  0  0  0  0  0
    6.1902   43.4486   50.4636 C   0  0  0  0  0  3  0  0  0  0  0  0
    8.4183   44.2256   50.2391 C   0  0  0  0  0  0  0  0  0  0  0  0
    7.7451   41.7715   47.5117 C   0  0  0  0  0  1  0  0  0  0  0  0
    9.5622   45.0653   50.6790 C   0  0  0  0  0  1  0  0  0  0  0  0
    7.5002   47.7832   54.0310 O   0  0  0  0  0  0  0  0  0  0  0  0
    8.1612   48.6216   54.9796 C   0  0  0  0  0  2  0  0  0  0  0  0
    9.6649   48.5599   54.7787 C   0  0  0  0  0  3  0  0  0  0  0  0
   10.2763   47.1376   54.8378 C   0  0  0  0  0  2  0  0  0  0  0  0
   10.5381   48.1284   55.8985 C   0  0  0  0  0  2  0  0  0  0  0  0
  1  7  1  0
  1  8  1  0
  2  1  2  0
  3  2  1  0
  4  5  2  0
  4  2  1  0
  5  6  1  0
  6  7  2  0
  7 19  1  0
  8  9  1  0
  9 11  1  0
 10  8  2  0
 11 15  2  0
 12 13  2  0
 12 17  1  0
 14 12  1  0
 15 13  1  0
 16 11  1  0
 16 14  2  0
 18 16  1  0
 19 20  1  0
 20 21  1  0
 21 22  1  0
 21 23  1  0
 22 23  1  0
M  RAD  8   4   2   5   2   6   2  13   2  15   2  17   2  18   2  20   3
M  RAD  3  21   2  22   3  23   3
M  END
>  <REMARK>  (1) 
 SMILES Cc1ccc(NC(=O)c2c(Cl)cccc2OCC2CC2)c(C)n1
 SMILES IDX 9 1 10 2 11 3 12 4 13 5 14 6 15 7 7 8 6 9 8 11 5 12 2 13
 SMILES IDX 3 14 23 15 4 16 21 17 1 18 22 19 16 20 17 21 18 22 19 23
 SMILES IDX 20 24
 H PARENT 6 10

>  <TORSDO>  (1) 
F 5

$$$$
