/home/pchatterjee/Documents/git/vs_workflow/DiffDock/diffdock_run/pdbqt_scrubbed/Z2996605995.pdbqt
     RDKit          3D

 23 25  0  0  0  0  0  0  0  0999 V2000
    5.0588   46.0577   53.2936 C   0  0  0  0  0  0  0  0  0  0  0  0
    3.6638   46.0926   53.3783 C   0  0  0  0  0  0  0  0  0  0  0  0
    2.6409   45.5898   52.0506 Cl  0  0  0  0  0  0  0  0  0  0  0  0
    3.0186   46.5308   54.5264 C   0  0  0  0  0  3  0  0  0  0  0  0
    3.7180   46.9515   55.6350 C   0  0  0  0  0  3  0  0  0  0  0  0
    5.0929   46.9211   55.5646 C   0  0  0  0  0  3  0  0  0  0  0  0
    5.7383   46.4772   54.4038 C   0  0  0  0  0  0  0  0  0  0  0  0
    5.6281   45.5889   52.0632 C   0  0  0  0  0  0  0  0  0  0  0  0
    6.8832   44.9736   51.8820 N   0  0  0  0  0  0  0  0  0  0  0  0
    4.9295   45.7436   51.0064 O   0  0  0  0  0  0  0  0  0  0  0  0
    7.1511   44.2210   50.6962 C   0  0  0  0  0  0  0  0  0  0  0  0
    7.6549   42.7664   48.4119 C   0  0  0  0  0  0  0  0  0  0  0  0
    6.4159   42.6555   49.0141 C   0  0  0  0  0  3  0  0  0  0  0  0
    8.5937   43.5737   48.9392 N   0  0  0  0  0  0  0  0  0  0  0  0
    6.1871   43.3936   50.1569 C   0  0  0  0  0  3  0  0  0  0  0  0
    8.3735   44.3050   50.0674 C   0  0  0  0  0  0  0  0  0  0  0  0
    7.9431   41.9868   47.1767 C   0  0  0  0  0  1  0  0  0  0  0  0
    9.4502   45.1785   50.6008 C   0  0  0  0  0  1  0  0  0  0  0  0
    7.1224   46.4858   54.4562 O   0  0  0  0  0  0  0  0  0  0  0  0
    7.8601   47.7087   54.4547 C   0  0  0  0  0  2  0  0  0  0  0  0
    9.3324   47.4353   54.7055 C   0  0  0  0  0  3  0  0  0  0  0  0
   10.3110   48.3260   53.8998 C   0  0  0  0  0  2  0  0  0  0  0  0
   10.1736   46.8858   53.6130 C   0  0  0  0  0  2  0  0  0  0  0  0
  1  7  1  0
  1  8  1  0
  2  1  2  0
  3  2  1  0
  4  5  2  0
  4  2  1  0
  5  6  1  0
  6  7  2  0
  7 19  1  0
  8  9  1  0
  9 11  1  0
 10  8  2  0
 11 15  2  0
 12 13  2  0
 12 17  1  0
 14 12  1  0
 15 13  1  0
 16 11  1  0
 16 14  2  0
 18 16  1  0
 19 20  1  0
 20 21  1  0
 21 22  1  0
 21 23  1  0
 22 23  1  0
M  RAD  8   4   2   5   2   6   2  13   2  15   2  17   2  18   2  20   3
M  RAD  3  21   2  22   3  23   3
M  END
>  <REMARK>  (1) 
 SMILES Cc1ccc(NC(=O)c2c(Cl)cccc2OCC2CC2)c(C)n1
 SMILES IDX 9 1 10 2 11 3 12 4 13 5 14 6 15 7 7 8 6 9 8 11 5 12 2 13
 SMILES IDX 3 14 23 15 4 16 21 17 1 18 22 19 16 20 17 21 18 22 19 23
 SMILES IDX 20 24
 H PARENT 6 10

>  <TORSDO>  (1) 
F 5

$$$$
