/home/pchatterjee/Documents/git/vs_workflow/DiffDock/diffdock_run/pdbqt_scrubbed/Z2996605995.pdbqt
     RDKit          3D

 23 25  0  0  0  0  0  0  0  0999 V2000
    5.1846   45.3991   51.8933 C   0  0  0  0  0  0  0  0  0  0  0  0
    3.9200   45.7335   52.3867 C   0  0  0  0  0  0  0  0  0  0  0  0
    2.4632   44.9547   51.8094 Cl  0  0  0  0  0  0  0  0  0  0  0  0
    3.7575   46.7057   53.3639 C   0  0  0  0  0  3  0  0  0  0  0  0
    4.8301   47.3867   53.8941 C   0  0  0  0  0  3  0  0  0  0  0  0
    6.0814   47.0659   53.4171 C   0  0  0  0  0  3  0  0  0  0  0  0
    6.2391   46.0835   52.4316 C   0  0  0  0  0  0  0  0  0  0  0  0
    5.2451   44.3816   50.8840 C   0  0  0  0  0  0  0  0  0  0  0  0
    4.4262   43.2399   50.7714 N   0  0  0  0  0  0  0  0  0  0  0  0
    6.1391   44.5130   49.9828 O   0  0  0  0  0  0  0  0  0  0  0  0
    4.5034   42.4109   49.6092 C   0  0  0  0  0  0  0  0  0  0  0  0
    4.6644   40.8184   47.3673 C   0  0  0  0  0  0  0  0  0  0  0  0
    5.7223   41.6550   47.6691 C   0  0  0  0  0  3  0  0  0  0  0  0
    3.5777   40.7884   48.1606 N   0  0  0  0  0  0  0  0  0  0  0  0
    5.6186   42.4428   48.7967 C   0  0  0  0  0  3  0  0  0  0  0  0
    3.4697   41.5642   49.2754 C   0  0  0  0  0  0  0  0  0  0  0  0
    4.7358   39.9513   46.1591 C   0  0  0  0  0  1  0  0  0  0  0  0
    2.2441   41.4862   50.1112 C   0  0  0  0  0  1  0  0  0  0  0  0
    7.5455   45.8445   52.0381 O   0  0  0  0  0  0  0  0  0  0  0  0
    8.5235   46.8852   52.0315 C   0  0  0  0  0  2  0  0  0  0  0  0
    9.8601   46.3481   51.5515 C   0  0  0  0  0  3  0  0  0  0  0  0
    9.7900   45.4415   50.2971 C   0  0  0  0  0  2  0  0  0  0  0  0
   10.1338   44.8911   51.6216 C   0  0  0  0  0  2  0  0  0  0  0  0
  1  7  1  0
  1  8  1  0
  2  1  2  0
  3  2  1  0
  4  5  2  0
  4  2  1  0
  5  6  1  0
  6  7  2  0
  7 19  1  0
  8  9  1  0
  9 11  1  0
 10  8  2  0
 11 15  2  0
 12 13  2  0
 12 17  1  0
 14 12  1  0
 15 13  1  0
 16 11  1  0
 16 14  2  0
 18 16  1  0
 19 20  1  0
 20 21  1  0
 21 22  1  0
 21 23  1  0
 22 23  1  0
M  RAD  8   4   2   5   2   6   2  13   2  15   2  17   2  18   2  20   3
M  RAD  3  21   2  22   3  23   3
M  END
>  <REMARK>  (1) 
 SMILES Cc1ccc(NC(=O)c2c(Cl)cccc2OCC2CC2)c(C)n1
 SMILES IDX 9 1 10 2 11 3 12 4 13 5 14 6 15 7 7 8 6 9 8 11 5 12 2 13
 SMILES IDX 3 14 23 15 4 16 21 17 1 18 22 19 16 20 17 21 18 22 19 23
 SMILES IDX 20 24
 H PARENT 6 10

>  <TORSDO>  (1) 
F 5

$$$$
