/home/pchatterjee/Documents/git/vs_workflow/DiffDock/diffdock_run/pdbqt_scrubbed/Z2996605995.pdbqt
     RDKit          3D

 23 25  0  0  0  0  0  0  0  0999 V2000
    7.4480   47.1049   53.6648 C   0  0  0  0  0  0  0  0  0  0  0  0
    8.6125   47.8234   53.9514 C   0  0  0  0  0  0  0  0  0  0  0  0
   10.1549   47.4153   53.2326 Cl  0  0  0  0  0  0  0  0  0  0  0  0
    8.6019   48.9014   54.8256 C   0  0  0  0  0  3  0  0  0  0  0  0
    7.4478   49.3153   55.4518 C   0  0  0  0  0  3  0  0  0  0  0  0
    6.2936   48.6163   55.1772 C   0  0  0  0  0  3  0  0  0  0  0  0
    6.3104   47.5300   54.2937 C   0  0  0  0  0  0  0  0  0  0  0  0
    7.5651   46.0074   52.7486 C   0  0  0  0  0  0  0  0  0  0  0  0
    7.4787   46.0551   51.3425 N   0  0  0  0  0  0  0  0  0  0  0  0
    7.7677   44.8524   53.2521 O   0  0  0  0  0  0  0  0  0  0  0  0
    7.3817   44.8456   50.5862 C   0  0  0  0  0  0  0  0  0  0  0  0
    7.1818   42.5152   49.1312 C   0  0  0  0  0  0  0  0  0  0  0  0
    6.0396   43.0482   49.6980 C   0  0  0  0  0  3  0  0  0  0  0  0
    8.3678   43.1307   49.2923 N   0  0  0  0  0  0  0  0  0  0  0  0
    6.1647   44.2158   50.4220 C   0  0  0  0  0  3  0  0  0  0  0  0
    8.4974   44.2838   50.0062 C   0  0  0  0  0  0  0  0  0  0  0  0
    7.0908   41.2562   48.3417 C   0  0  0  0  0  1  0  0  0  0  0  0
    9.8343   44.9158   50.1482 C   0  0  0  0  0  1  0  0  0  0  0  0
    5.0872   46.9121   54.0924 O   0  0  0  0  0  0  0  0  0  0  0  0
    3.9765   47.6208   53.5415 C   0  0  0  0  0  2  0  0  0  0  0  0
    2.7612   46.7142   53.4612 C   0  0  0  0  0  3  0  0  0  0  0  0
    3.0765   45.2129   53.2445 C   0  0  0  0  0  2  0  0  0  0  0  0
    2.4439   46.0230   52.1867 C   0  0  0  0  0  2  0  0  0  0  0  0
  1  7  1  0
  1  8  1  0
  2  1  2  0
  3  2  1  0
  4  5  2  0
  4  2  1  0
  5  6  1  0
  6  7  2  0
  7 19  1  0
  8  9  1  0
  9 11  1  0
 10  8  2  0
 11 15  2  0
 12 13  2  0
 12 17  1  0
 14 12  1  0
 15 13  1  0
 16 11  1  0
 16 14  2  0
 18 16  1  0
 19 20  1  0
 20 21  1  0
 21 22  1  0
 21 23  1  0
 22 23  1  0
M  RAD  8   4   2   5   2   6   2  13   2  15   2  17   2  18   2  20   3
M  RAD  3  21   2  22   3  23   3
M  END
>  <REMARK>  (1) 
 SMILES Cc1ccc(NC(=O)c2c(Cl)cccc2OCC2CC2)c(C)n1
 SMILES IDX 9 1 10 2 11 3 12 4 13 5 14 6 15 7 7 8 6 9 8 11 5 12 2 13
 SMILES IDX 3 14 23 15 4 16 21 17 1 18 22 19 16 20 17 21 18 22 19 23
 SMILES IDX 20 24
 H PARENT 6 10

>  <TORSDO>  (1) 
F 5

$$$$
