/home/pchatterjee/Documents/git/vs_workflow/DiffDock/diffdock_run/pdbqt_scrubbed/Z2996605995.pdbqt
     RDKit          3D

 23 25  0  0  0  0  0  0  0  0999 V2000
    3.3388   44.8830   51.8969 C   0  0  0  0  0  0  0  0  0  0  0  0
    2.4843   45.8554   52.4247 C   0  0  0  0  0  0  0  0  0  0  0  0
    3.0555   47.4471   52.8744 Cl  0  0  0  0  0  0  0  0  0  0  0  0
    1.1332   45.6039   52.6194 C   0  0  0  0  0  3  0  0  0  0  0  0
    0.5695   44.3883   52.3033 C   0  0  0  0  0  3  0  0  0  0  0  0
    1.4005   43.4221   51.7818 C   0  0  0  0  0  3  0  0  0  0  0  0
    2.7627   43.6820   51.5869 C   0  0  0  0  0  0  0  0  0  0  0  0
    4.7182   45.2421   51.7354 C   0  0  0  0  0  0  0  0  0  0  0  0
    5.6340   44.7176   50.8011 N   0  0  0  0  0  0  0  0  0  0  0  0
    5.1799   46.1341   52.5227 O   0  0  0  0  0  0  0  0  0  0  0  0
    7.0259   45.0272   50.9062 C   0  0  0  0  0  0  0  0  0  0  0  0
    9.7053   45.6296   51.1205 C   0  0  0  0  0  0  0  0  0  0  0  0
    8.8477   46.0346   52.1257 C   0  0  0  0  0  3  0  0  0  0  0  0
    9.2311   44.9527   50.0583 N   0  0  0  0  0  0  0  0  0  0  0  0
    7.5104   45.7214   51.9962 C   0  0  0  0  0  3  0  0  0  0  0  0
    7.9116   44.6406   49.9250 C   0  0  0  0  0  0  0  0  0  0  0  0
   11.1563   45.9472   51.2212 C   0  0  0  0  0  1  0  0  0  0  0  0
    7.4492   43.8912   48.7286 C   0  0  0  0  0  1  0  0  0  0  0  0
    3.4938   42.6354   51.0497 O   0  0  0  0  0  0  0  0  0  0  0  0
    2.9901   41.8546   49.9652 C   0  0  0  0  0  2  0  0  0  0  0  0
    4.0459   40.8731   49.4885 C   0  0  0  0  0  3  0  0  0  0  0  0
    5.3903   41.5130   49.0605 C   0  0  0  0  0  2  0  0  0  0  0  0
    4.4854   40.8985   48.0711 C   0  0  0  0  0  2  0  0  0  0  0  0
  1  7  1  0
  1  8  1  0
  2  1  2  0
  3  2  1  0
  4  5  2  0
  4  2  1  0
  5  6  1  0
  6  7  2  0
  7 19  1  0
  8  9  1  0
  9 11  1  0
 10  8  2  0
 11 15  2  0
 12 13  2  0
 12 17  1  0
 14 12  1  0
 15 13  1  0
 16 11  1  0
 16 14  2  0
 18 16  1  0
 19 20  1  0
 20 21  1  0
 21 22  1  0
 21 23  1  0
 22 23  1  0
M  RAD  8   4   2   5   2   6   2  13   2  15   2  17   2  18   2  20   3
M  RAD  3  21   2  22   3  23   3
M  END
>  <REMARK>  (1) 
 SMILES Cc1ccc(NC(=O)c2c(Cl)cccc2OCC2CC2)c(C)n1
 SMILES IDX 9 1 10 2 11 3 12 4 13 5 14 6 15 7 7 8 6 9 8 11 5 12 2 13
 SMILES IDX 3 14 23 15 4 16 21 17 1 18 22 19 16 20 17 21 18 22 19 23
 SMILES IDX 20 24
 H PARENT 6 10

>  <TORSDO>  (1) 
F 5

$$$$
