/home/pchatterjee/Documents/git/vs_workflow/DiffDock/diffdock_run/pdbqt_scrubbed/Z2996605995.pdbqt
     RDKit          3D

 23 25  0  0  0  0  0  0  0  0999 V2000
    7.5812   46.1674   52.7573 C   0  0  0  0  0  0  0  0  0  0  0  0
    8.9275   46.5132   52.6080 C   0  0  0  0  0  0  0  0  0  0  0  0
    9.9963   45.6384   51.5335 Cl  0  0  0  0  0  0  0  0  0  0  0  0
    9.4852   47.5731   53.3093 C   0  0  0  0  0  3  0  0  0  0  0  0
    8.7427   48.3341   54.1839 C   0  0  0  0  0  3  0  0  0  0  0  0
    7.4149   48.0042   54.3393 C   0  0  0  0  0  3  0  0  0  0  0  0
    6.8576   46.9341   53.6284 C   0  0  0  0  0  0  0  0  0  0  0  0
    7.1020   45.0555   51.9880 C   0  0  0  0  0  0  0  0  0  0  0  0
    7.1883   44.8818   50.5919 N   0  0  0  0  0  0  0  0  0  0  0  0
    6.5287   44.1125   52.6290 O   0  0  0  0  0  0  0  0  0  0  0  0
    6.5462   43.7692   49.9643 C   0  0  0  0  0  0  0  0  0  0  0  0
    5.2983   41.6274   48.7627 C   0  0  0  0  0  0  0  0  0  0  0  0
    4.6414   42.3004   49.7754 C   0  0  0  0  0  3  0  0  0  0  0  0
    6.5268   42.0183   48.3763 N   0  0  0  0  0  0  0  0  0  0  0  0
    5.2863   43.3696   50.3618 C   0  0  0  0  0  3  0  0  0  0  0  0
    7.1686   43.0733   48.9517 C   0  0  0  0  0  0  0  0  0  0  0  0
    4.6376   40.4677   48.1030 C   0  0  0  0  0  1  0  0  0  0  0  0
    8.5245   43.4564   48.4810 C   0  0  0  0  0  1  0  0  0  0  0  0
    5.5120   46.7045   53.8633 O   0  0  0  0  0  0  0  0  0  0  0  0
    4.5071   47.5856   53.3597 C   0  0  0  0  0  2  0  0  0  0  0  0
    3.1287   46.9820   53.5618 C   0  0  0  0  0  3  0  0  0  0  0  0
    3.0797   45.4339   53.5294 C   0  0  0  0  0  2  0  0  0  0  0  0
    2.4812   46.2417   52.4503 C   0  0  0  0  0  2  0  0  0  0  0  0
  1  7  1  0
  1  8  1  0
  2  1  2  0
  3  2  1  0
  4  5  2  0
  4  2  1  0
  5  6  1  0
  6  7  2  0
  7 19  1  0
  8  9  1  0
  9 11  1  0
 10  8  2  0
 11 15  2  0
 12 13  2  0
 12 17  1  0
 14 12  1  0
 15 13  1  0
 16 11  1  0
 16 14  2  0
 18 16  1  0
 19 20  1  0
 20 21  1  0
 21 22  1  0
 21 23  1  0
 22 23  1  0
M  RAD  8   4   2   5   2   6   2  13   2  15   2  17   2  18   2  20   3
M  RAD  3  21   2  22   3  23   3
M  END
>  <REMARK>  (1) 
 SMILES Cc1ccc(NC(=O)c2c(Cl)cccc2OCC2CC2)c(C)n1
 SMILES IDX 9 1 10 2 11 3 12 4 13 5 14 6 15 7 7 8 6 9 8 11 5 12 2 13
 SMILES IDX 3 14 23 15 4 16 21 17 1 18 22 19 16 20 17 21 18 22 19 23
 SMILES IDX 20 24
 H PARENT 6 10

>  <TORSDO>  (1) 
F 5

$$$$
