/home/pchatterjee/Documents/git/vs_workflow/DiffDock/diffdock_run/pdbqt_scrubbed/Z1827616875.pdbqt
     RDKit          3D

 32 35  0  0  1  0  0  0  0  0999 V2000
   13.4405   60.8321   87.3559 C   0  0  0  0  0  0  0  0  0  0  0  0
   14.4397   61.2635   86.7243 O   0  0  0  0  0  0  0  0  0  0  0  0
   12.3846   60.1683   86.6537 N   0  0  0  0  0  0  0  0  0  0  0  0
   13.3660   61.0110   88.7938 C   0  0  0  0  0  0  0  0  0  0  0  0
   13.5108   59.9125   89.6134 C   0  0  0  0  0  0  0  0  0  0  0  0
   13.4377   60.0980   90.9746 C   0  0  0  0  0  3  0  0  0  0  0  0
   13.2247   61.3541   91.5009 C   0  0  0  0  0  3  0  0  0  0  0  0
   13.1555   62.2508   89.3201 C   0  0  0  0  0  3  0  0  0  0  0  0
   13.0809   62.4474   90.6776 C   0  0  0  0  0  3  0  0  0  0  0  0
   13.7269   58.6278   89.1295 O   0  0  0  0  0  0  0  0  0  0  0  0
   13.6840   57.5264   90.0305 C   0  0  0  0  0  2  0  0  0  0  0  0
   14.0758   56.2927   89.2317 C   0  0  0  0  0  1  0  0  0  0  0  0
   12.4029   59.9116   85.2476 C   0  0  0  0  0  2  0  0  0  0  0  0
   12.5922   61.1290   84.4212 C   0  0  0  0  0  0  0  0  0  0  0  0
   11.8218   62.1118   84.5821 O   0  0  0  0  0  0  0  0  0  0  0  0
   13.6344   61.1908   83.4531 N   0  0  0  0  0  0  0  0  0  0  0  0
   14.4674   60.0221   83.2265 C   0  0  0  0  0  2  0  0  0  0  0  0
   13.8982   62.3660   82.6873 C   0  0  0  0  0  3  0  0  0  0  0  0
   15.9173   60.5067   83.3063 C   0  0  0  0  0  2  0  0  0  0  0  0
   15.2846   62.8961   82.8200 C   0  0  0  0  0  2  0  0  0  0  0  0
   16.0291   61.9352   83.7527 C   0  0  0  0  0  2  0  0  0  0  0  0
   12.8329   63.3651   82.6422 C   0  0  0  0  0  0  0  0  0  0  0  0
   12.8201   64.5617   82.0051 N   0  0  0  0  0  0  0  0  0  0  0  0
   11.6259   63.2423   83.2654 N   0  0  0  0  0  0  0  0  0  0  0  0
   11.6513   65.1818   82.2114 C   0  0  0  0  0  0  0  0  0  0  0  0
   10.8791   64.3407   83.0199 C   0  0  0  0  0  3  0  0  0  0  0  0
   11.2083   66.4982   81.7085 C   0  0  0  0  0  0  0  0  0  0  0  0
    9.9419   66.8912   82.0551 C   0  0  0  0  0  3  0  0  0  0  0  0
   12.0286   67.2882   80.9311 C   0  0  0  0  0  3  0  0  0  0  0  0
    9.4454   68.0988   81.6333 C   0  0  0  0  0  3  0  0  0  0  0  0
   11.5142   68.5139   80.5075 C   0  0  0  0  0  3  0  0  0  0  0  0
   10.2436   68.9274   80.8451 C   0  0  0  0  0  3  0  0  0  0  0  0
  1  4  1  0
  1  3  1  0
  2  1  2  0
  4  5  2  0
  5  6  1  0
  5 10  1  0
  7  6  2  0
  8  9  2  0
  8  4  1  0
  9  7  1  0
 10 11  1  0
 11 12  1  0
 13  3  1  0
 13 14  1  0
 14 16  1  0
 15 14  2  0
 16 18  1  0
 16 17  1  0
 17 19  1  0
 18 22  1  0
 18 20  1  0
 19 21  1  0
 20 21  1  0
 22 23  2  0
 22 24  1  0
 23 25  1  0
 24 26  1  0
 25 26  2  0
 25 27  1  0
 27 29  2  0
 28 30  2  0
 28 27  1  0
 29 31  1  0
 30 32  1  0
 32 31  2  0
M  RAD  8   6   2   7   2   8   2   9   2  11   3  12   2  13   3  17   3
M  RAD  8  18   2  19   3  20   3  21   3  26   2  28   2  29   2  30   2
M  RAD  2  31   2  32   2
M  END
>  <REMARK>  (1) 
 SMILES CCOc1ccccc1C(=O)NCC(=O)N1CCCCC1c1nc(-c2ccccc2)c[nH]1
 SMILES IDX 10 1 11 2 12 3 9 5 4 6 5 7 6 8 8 9 7 10 3 11 2 12 1 13 13 14
 SMILES IDX 14 15 15 16 16 17 17 18 21 19 18 20 20 21 19 22 22 23 23 24
 SMILES IDX 32 25 24 26 31 27 25 29 26 30 30 31 27 32 29 33 28 34
 H PARENT 12 4 32 28

>  <TORSDO>  (1) 
F 8

$$$$
