/home/pchatterjee/Documents/git/vs_workflow/DiffDock/diffdock_run/pdbqt_scrubbed/Z1827616875.pdbqt
     RDKit          3D

 32 35  0  0  1  0  0  0  0  0999 V2000
    4.2446   46.7469   53.8926 C   0  0  0  0  0  0  0  0  0  0  0  0
    4.6277   46.7562   55.0911 O   0  0  0  0  0  0  0  0  0  0  0  0
    5.1162   47.2213   52.8611 N   0  0  0  0  0  0  0  0  0  0  0  0
    2.9198   46.2546   53.5644 C   0  0  0  0  0  0  0  0  0  0  0  0
    2.0289   45.9990   54.5844 C   0  0  0  0  0  0  0  0  0  0  0  0
    0.7767   45.5327   54.2573 C   0  0  0  0  0  3  0  0  0  0  0  0
    0.4264   45.3277   52.9400 C   0  0  0  0  0  3  0  0  0  0  0  0
    2.5677   46.0501   52.2634 C   0  0  0  0  0  3  0  0  0  0  0  0
    1.3201   45.5847   51.9256 C   0  0  0  0  0  3  0  0  0  0  0  0
    2.3363   46.1901   55.9261 O   0  0  0  0  0  0  0  0  0  0  0  0
    1.3088   46.0601   56.9028 C   0  0  0  0  0  2  0  0  0  0  0  0
    1.9446   46.3681   58.2498 C   0  0  0  0  0  1  0  0  0  0  0  0
    6.5427   47.1896   52.9484 C   0  0  0  0  0  2  0  0  0  0  0  0
    7.1417   45.9198   52.4691 C   0  0  0  0  0  0  0  0  0  0  0  0
    6.3905   45.0032   52.0438 O   0  0  0  0  0  0  0  0  0  0  0  0
    8.5532   45.7340   52.4877 N   0  0  0  0  0  0  0  0  0  0  0  0
    9.3211   46.2169   53.6227 C   0  0  0  0  0  2  0  0  0  0  0  0
    9.2532   45.0859   51.4261 C   0  0  0  0  0  3  0  0  0  0  0  0
   10.4741   47.0394   53.0417 C   0  0  0  0  0  2  0  0  0  0  0  0
   10.3256   45.9071   50.7964 C   0  0  0  0  0  2  0  0  0  0  0  0
   10.3584   47.2359   51.5583 C   0  0  0  0  0  2  0  0  0  0  0  0
    8.4471   44.2780   50.5137 C   0  0  0  0  0  0  0  0  0  0  0  0
    7.2008   43.7783   50.7005 N   0  0  0  0  0  0  0  0  0  0  0  0
    8.8436   43.8818   49.2703 N   0  0  0  0  0  0  0  0  0  0  0  0
    6.8132   43.0889   49.6199 C   0  0  0  0  0  0  0  0  0  0  0  0
    7.8630   43.1509   48.6971 C   0  0  0  0  0  3  0  0  0  0  0  0
    5.5375   42.3803   49.3910 C   0  0  0  0  0  0  0  0  0  0  0  0
    5.3323   41.8811   48.1312 C   0  0  0  0  0  3  0  0  0  0  0  0
    4.6038   42.2305   50.3945 C   0  0  0  0  0  3  0  0  0  0  0  0
    4.1759   41.2081   47.8264 C   0  0  0  0  0  3  0  0  0  0  0  0
    3.4318   41.5449   50.0742 C   0  0  0  0  0  3  0  0  0  0  0  0
    3.2063   41.0353   48.8137 C   0  0  0  0  0  3  0  0  0  0  0  0
  1  4  1  0
  1  3  1  0
  2  1  2  0
  4  5  2  0
  5  6  1  0
  5 10  1  0
  7  6  2  0
  8  9  2  0
  8  4  1  0
  9  7  1  0
 10 11  1  0
 11 12  1  0
 13  3  1  0
 13 14  1  0
 14 16  1  0
 15 14  2  0
 16 18  1  0
 16 17  1  0
 17 19  1  0
 18 22  1  0
 18 20  1  0
 19 21  1  0
 20 21  1  0
 22 23  2  0
 22 24  1  0
 23 25  1  0
 24 26  1  0
 25 26  2  0
 25 27  1  0
 27 29  2  0
 28 30  2  0
 28 27  1  0
 29 31  1  0
 30 32  1  0
 32 31  2  0
M  RAD  8   6   2   7   2   8   2   9   2  11   3  12   2  13   3  17   3
M  RAD  8  18   2  19   3  20   3  21   3  26   2  28   2  29   2  30   2
M  RAD  2  31   2  32   2
M  END
>  <REMARK>  (1) 
 SMILES CCOc1ccccc1C(=O)NCC(=O)N1CCCCC1c1nc(-c2ccccc2)c[nH]1
 SMILES IDX 10 1 11 2 12 3 9 5 4 6 5 7 6 8 8 9 7 10 3 11 2 12 1 13 13 14
 SMILES IDX 14 15 15 16 16 17 17 18 21 19 18 20 20 21 19 22 22 23 23 24
 SMILES IDX 32 25 24 26 31 27 25 29 26 30 30 31 27 32 29 33 28 34
 H PARENT 12 4 32 28

>  <TORSDO>  (1) 
F 8

$$$$
