/home/pchatterjee/Documents/git/vs_workflow/DiffDock/diffdock_run/pdbqt_scrubbed/Z1827616875.pdbqt
     RDKit          3D

 32 35  0  0  1  0  0  0  0  0999 V2000
    3.8671   46.4816   54.1650 C   0  0  0  0  0  0  0  0  0  0  0  0
    4.2292   47.0124   55.2470 O   0  0  0  0  0  0  0  0  0  0  0  0
    4.8402   46.1676   53.1635 N   0  0  0  0  0  0  0  0  0  0  0  0
    2.4634   46.1913   53.9403 C   0  0  0  0  0  0  0  0  0  0  0  0
    1.6376   45.9978   55.0266 C   0  0  0  0  0  0  0  0  0  0  0  0
    0.3091   45.7234   54.7975 C   0  0  0  0  0  3  0  0  0  0  0  0
   -0.1791   45.6449   53.5108 C   0  0  0  0  0  3  0  0  0  0  0  0
    1.9748   46.1124   52.6701 C   0  0  0  0  0  3  0  0  0  0  0  0
    0.6501   45.8390   52.4299 C   0  0  0  0  0  3  0  0  0  0  0  0
    2.0838   46.0669   56.3409 O   0  0  0  0  0  0  0  0  0  0  0  0
    1.6050   45.1210   57.2910 C   0  0  0  0  0  2  0  0  0  0  0  0
    2.2567   45.4689   58.6207 C   0  0  0  0  0  1  0  0  0  0  0  0
    6.1479   46.7429   53.1171 C   0  0  0  0  0  2  0  0  0  0  0  0
    6.9726   46.2596   51.9826 C   0  0  0  0  0  0  0  0  0  0  0  0
    6.4518   46.1510   50.8414 O   0  0  0  0  0  0  0  0  0  0  0  0
    8.3416   45.9200   52.1770 N   0  0  0  0  0  0  0  0  0  0  0  0
    9.0566   46.4658   53.3181 C   0  0  0  0  0  2  0  0  0  0  0  0
    9.0490   45.0563   51.2878 C   0  0  0  0  0  3  0  0  0  0  0  0
   10.3527   47.0645   52.7658 C   0  0  0  0  0  2  0  0  0  0  0  0
   10.2698   45.6561   50.6789 C   0  0  0  0  0  2  0  0  0  0  0  0
   10.3998   47.0654   51.2657 C   0  0  0  0  0  2  0  0  0  0  0  0
    8.2347   44.2260   50.4032 C   0  0  0  0  0  0  0  0  0  0  0  0
    6.9929   43.7256   50.6164 N   0  0  0  0  0  0  0  0  0  0  0  0
    8.6172   43.8048   49.1636 N   0  0  0  0  0  0  0  0  0  0  0  0
    6.5947   43.0118   49.5557 C   0  0  0  0  0  0  0  0  0  0  0  0
    7.6325   43.0580   48.6185 C   0  0  0  0  0  3  0  0  0  0  0  0
    5.3191   42.2936   49.3581 C   0  0  0  0  0  0  0  0  0  0  0  0
    4.4650   42.2571   50.4294 C   0  0  0  0  0  3  0  0  0  0  0  0
    5.0069   41.6921   48.1573 C   0  0  0  0  0  3  0  0  0  0  0  0
    3.2572   41.6124   50.3380 C   0  0  0  0  0  3  0  0  0  0  0  0
    3.7766   41.0394   48.0749 C   0  0  0  0  0  3  0  0  0  0  0  0
    2.9038   40.9913   49.1404 C   0  0  0  0  0  3  0  0  0  0  0  0
  1  4  1  0
  1  3  1  0
  2  1  2  0
  4  5  2  0
  5  6  1  0
  5 10  1  0
  7  6  2  0
  8  9  2  0
  8  4  1  0
  9  7  1  0
 10 11  1  0
 11 12  1  0
 13  3  1  0
 13 14  1  0
 14 16  1  0
 15 14  2  0
 16 18  1  0
 16 17  1  0
 17 19  1  0
 18 22  1  0
 18 20  1  0
 19 21  1  0
 20 21  1  0
 22 23  2  0
 22 24  1  0
 23 25  1  0
 24 26  1  0
 25 26  2  0
 25 27  1  0
 27 29  2  0
 28 30  2  0
 28 27  1  0
 29 31  1  0
 30 32  1  0
 32 31  2  0
M  RAD  8   6   2   7   2   8   2   9   2  11   3  12   2  13   3  17   3
M  RAD  8  18   2  19   3  20   3  21   3  26   2  28   2  29   2  30   2
M  RAD  2  31   2  32   2
M  END
>  <REMARK>  (1) 
 SMILES CCOc1ccccc1C(=O)NCC(=O)N1CCCCC1c1nc(-c2ccccc2)c[nH]1
 SMILES IDX 10 1 11 2 12 3 9 5 4 6 5 7 6 8 8 9 7 10 3 11 2 12 1 13 13 14
 SMILES IDX 14 15 15 16 16 17 17 18 21 19 18 20 20 21 19 22 22 23 23 24
 SMILES IDX 32 25 24 26 31 27 25 29 26 30 30 31 27 32 29 33 28 34
 H PARENT 12 4 32 28

>  <TORSDO>  (1) 
F 8

$$$$
