/home/pchatterjee/Documents/git/vs_workflow/DiffDock/diffdock_run/pdbqt_scrubbed/Z1827616875.pdbqt
     RDKit          3D

 32 35  0  0  1  0  0  0  0  0999 V2000
    4.4465   46.6274   54.5856 C   0  0  0  0  0  0  0  0  0  0  0  0
    4.5529   47.0908   55.7506 O   0  0  0  0  0  0  0  0  0  0  0  0
    5.5553   45.9532   53.9817 N   0  0  0  0  0  0  0  0  0  0  0  0
    3.1984   46.7802   53.8616 C   0  0  0  0  0  0  0  0  0  0  0  0
    2.6596   48.0401   53.7148 C   0  0  0  0  0  0  0  0  0  0  0  0
    1.4758   48.1689   53.0259 C   0  0  0  0  0  3  0  0  0  0  0  0
    0.8478   47.0616   52.4972 C   0  0  0  0  0  3  0  0  0  0  0  0
    2.5728   45.6887   53.3366 C   0  0  0  0  0  3  0  0  0  0  0  0
    1.3905   45.8059   52.6469 C   0  0  0  0  0  3  0  0  0  0  0  0
    3.2556   49.1851   54.2296 O   0  0  0  0  0  0  0  0  0  0  0  0
    3.7165   50.1936   53.3368 C   0  0  0  0  0  2  0  0  0  0  0  0
    4.4048   51.2497   54.1880 C   0  0  0  0  0  1  0  0  0  0  0  0
    6.6908   46.6250   53.4317 C   0  0  0  0  0  2  0  0  0  0  0  0
    7.2877   45.9302   52.2647 C   0  0  0  0  0  0  0  0  0  0  0  0
    6.5362   45.4943   51.3534 O   0  0  0  0  0  0  0  0  0  0  0  0
    8.6976   45.7552   52.1710 N   0  0  0  0  0  0  0  0  0  0  0  0
    9.5535   46.2880   53.2173 C   0  0  0  0  0  2  0  0  0  0  0  0
    9.3124   45.0705   51.0800 C   0  0  0  0  0  3  0  0  0  0  0  0
   10.6448   47.0950   52.5094 C   0  0  0  0  0  2  0  0  0  0  0  0
   10.3193   45.8736   50.3304 C   0  0  0  0  0  2  0  0  0  0  0  0
   10.4025   47.2318   51.0346 C   0  0  0  0  0  2  0  0  0  0  0  0
    8.4406   44.2215   50.2712 C   0  0  0  0  0  0  0  0  0  0  0  0
    7.2293   43.7031   50.5903 N   0  0  0  0  0  0  0  0  0  0  0  0
    8.7249   43.7980   49.0062 N   0  0  0  0  0  0  0  0  0  0  0  0
    6.7553   42.9759   49.5706 C   0  0  0  0  0  0  0  0  0  0  0  0
    7.7103   43.0321   48.5496 C   0  0  0  0  0  3  0  0  0  0  0  0
    5.4796   42.2365   49.4844 C   0  0  0  0  0  0  0  0  0  0  0  0
    5.1586   41.7104   48.2603 C   0  0  0  0  0  3  0  0  0  0  0  0
    4.6565   42.0849   50.5803 C   0  0  0  0  0  3  0  0  0  0  0  0
    3.9930   41.0077   48.0859 C   0  0  0  0  0  3  0  0  0  0  0  0
    3.4740   41.3689   50.3924 C   0  0  0  0  0  3  0  0  0  0  0  0
    3.1331   40.8321   49.1697 C   0  0  0  0  0  3  0  0  0  0  0  0
  1  4  1  0
  1  3  1  0
  2  1  2  0
  4  5  2  0
  5  6  1  0
  5 10  1  0
  7  6  2  0
  8  9  2  0
  8  4  1  0
  9  7  1  0
 10 11  1  0
 11 12  1  0
 13  3  1  0
 13 14  1  0
 14 16  1  0
 15 14  2  0
 16 18  1  0
 16 17  1  0
 17 19  1  0
 18 22  1  0
 18 20  1  0
 19 21  1  0
 20 21  1  0
 22 23  2  0
 22 24  1  0
 23 25  1  0
 24 26  1  0
 25 26  2  0
 25 27  1  0
 27 29  2  0
 28 30  2  0
 28 27  1  0
 29 31  1  0
 30 32  1  0
 32 31  2  0
M  RAD  8   6   2   7   2   8   2   9   2  11   3  12   2  13   3  17   3
M  RAD  8  18   2  19   3  20   3  21   3  26   2  28   2  29   2  30   2
M  RAD  2  31   2  32   2
M  END
>  <REMARK>  (1) 
 SMILES CCOc1ccccc1C(=O)NCC(=O)N1CCCCC1c1nc(-c2ccccc2)c[nH]1
 SMILES IDX 10 1 11 2 12 3 9 5 4 6 5 7 6 8 8 9 7 10 3 11 2 12 1 13 13 14
 SMILES IDX 14 15 15 16 16 17 17 18 21 19 18 20 20 21 19 22 22 23 23 24
 SMILES IDX 32 25 24 26 31 27 25 29 26 30 30 31 27 32 29 33 28 34
 H PARENT 12 4 32 28

>  <TORSDO>  (1) 
F 8

$$$$
