/home/pchatterjee/Documents/git/vs_workflow/DiffDock/diffdock_run/pdbqt_scrubbed/Z1827616875.pdbqt
     RDKit          3D

 32 35  0  0  1  0  0  0  0  0999 V2000
    4.2450   46.5843   53.9811 C   0  0  0  0  0  0  0  0  0  0  0  0
    4.6692   46.3274   55.1376 O   0  0  0  0  0  0  0  0  0  0  0  0
    5.1159   47.1887   53.0194 N   0  0  0  0  0  0  0  0  0  0  0  0
    2.8737   46.2653   53.6304 C   0  0  0  0  0  0  0  0  0  0  0  0
    1.9982   45.8891   54.6261 C   0  0  0  0  0  0  0  0  0  0  0  0
    0.7014   45.5898   54.2779 C   0  0  0  0  0  3  0  0  0  0  0  0
    0.2926   45.6660   52.9637 C   0  0  0  0  0  3  0  0  0  0  0  0
    2.4636   46.3388   52.3324 C   0  0  0  0  0  3  0  0  0  0  0  0
    1.1711   46.0422   51.9736 C   0  0  0  0  0  3  0  0  0  0  0  0
    2.3640   45.7981   55.9637 O   0  0  0  0  0  0  0  0  0  0  0  0
    1.4257   45.3000   56.9114 C   0  0  0  0  0  2  0  0  0  0  0  0
    2.1040   45.3604   58.2714 C   0  0  0  0  0  1  0  0  0  0  0  0
    6.5422   47.1614   53.1103 C   0  0  0  0  0  2  0  0  0  0  0  0
    7.1794   46.1787   52.1999 C   0  0  0  0  0  0  0  0  0  0  0  0
    6.5020   45.6669   51.2702 O   0  0  0  0  0  0  0  0  0  0  0  0
    8.5450   45.8138   52.3715 N   0  0  0  0  0  0  0  0  0  0  0  0
    9.2871   46.3410   53.5040 C   0  0  0  0  0  2  0  0  0  0  0  0
    9.2230   44.9419   51.4676 C   0  0  0  0  0  3  0  0  0  0  0  0
   10.5851   46.9192   52.9346 C   0  0  0  0  0  2  0  0  0  0  0  0
   10.4449   45.5228   50.8427 C   0  0  0  0  0  2  0  0  0  0  0  0
   10.6092   46.9266   51.4340 C   0  0  0  0  0  2  0  0  0  0  0  0
    8.3805   44.1307   50.5917 C   0  0  0  0  0  0  0  0  0  0  0  0
    7.1133   43.6963   50.7996 N   0  0  0  0  0  0  0  0  0  0  0  0
    8.7577   43.6614   49.3678 N   0  0  0  0  0  0  0  0  0  0  0  0
    6.6941   42.9769   49.7508 C   0  0  0  0  0  0  0  0  0  0  0  0
    7.7447   42.9500   48.8272 C   0  0  0  0  0  3  0  0  0  0  0  0
    5.3877   42.3166   49.5528 C   0  0  0  0  0  0  0  0  0  0  0  0
    4.4802   42.4373   50.5726 C   0  0  0  0  0  3  0  0  0  0  0  0
    5.0993   41.6160   48.4007 C   0  0  0  0  0  3  0  0  0  0  0  0
    3.2405   41.8568   50.4768 C   0  0  0  0  0  3  0  0  0  0  0  0
    3.8363   41.0297   48.3133 C   0  0  0  0  0  3  0  0  0  0  0  0
    2.9096   41.1394   49.3275 C   0  0  0  0  0  3  0  0  0  0  0  0
  1  4  1  0
  1  3  1  0
  2  1  2  0
  4  5  2  0
  5  6  1  0
  5 10  1  0
  7  6  2  0
  8  9  2  0
  8  4  1  0
  9  7  1  0
 10 11  1  0
 11 12  1  0
 13  3  1  0
 13 14  1  0
 14 16  1  0
 15 14  2  0
 16 18  1  0
 16 17  1  0
 17 19  1  0
 18 22  1  0
 18 20  1  0
 19 21  1  0
 20 21  1  0
 22 23  2  0
 22 24  1  0
 23 25  1  0
 24 26  1  0
 25 26  2  0
 25 27  1  0
 27 29  2  0
 28 30  2  0
 28 27  1  0
 29 31  1  0
 30 32  1  0
 32 31  2  0
M  RAD  8   6   2   7   2   8   2   9   2  11   3  12   2  13   3  17   3
M  RAD  8  18   2  19   3  20   3  21   3  26   2  28   2  29   2  30   2
M  RAD  2  31   2  32   2
M  END
>  <REMARK>  (1) 
 SMILES CCOc1ccccc1C(=O)NCC(=O)N1CCCCC1c1nc(-c2ccccc2)c[nH]1
 SMILES IDX 10 1 11 2 12 3 9 5 4 6 5 7 6 8 8 9 7 10 3 11 2 12 1 13 13 14
 SMILES IDX 14 15 15 16 16 17 17 18 21 19 18 20 20 21 19 22 22 23 23 24
 SMILES IDX 32 25 24 26 31 27 25 29 26 30 30 31 27 32 29 33 28 34
 H PARENT 12 4 32 28

>  <TORSDO>  (1) 
F 8

$$$$
