/home/pchatterjee/Documents/git/vs_workflow/DiffDock/diffdock_run/pdbqt_scrubbed/Z1827616875.pdbqt
     RDKit          3D

 32 35  0  0  1  0  0  0  0  0999 V2000
    4.3562   46.5533   54.4221 C   0  0  0  0  0  0  0  0  0  0  0  0
    4.6176   46.5680   55.6529 O   0  0  0  0  0  0  0  0  0  0  0  0
    5.2961   45.9926   53.4996 N   0  0  0  0  0  0  0  0  0  0  0  0
    3.1018   47.1057   53.9462 C   0  0  0  0  0  0  0  0  0  0  0  0
    2.9950   48.4682   53.7683 C   0  0  0  0  0  0  0  0  0  0  0  0
    1.7994   48.9770   53.3165 C   0  0  0  0  0  3  0  0  0  0  0  0
    0.7371   48.1402   53.0497 C   0  0  0  0  0  3  0  0  0  0  0  0
    2.0477   46.2831   53.6806 C   0  0  0  0  0  3  0  0  0  0  0  0
    0.8494   46.7805   53.2292 C   0  0  0  0  0  3  0  0  0  0  0  0
    4.0376   49.3509   54.0237 O   0  0  0  0  0  0  0  0  0  0  0  0
    3.7932   50.7525   53.9746 C   0  0  0  0  0  2  0  0  0  0  0  0
    5.0818   51.4363   54.4054 C   0  0  0  0  0  1  0  0  0  0  0  0
    6.6366   46.4641   53.3448 C   0  0  0  0  0  2  0  0  0  0  0  0
    7.3043   45.9710   52.1153 C   0  0  0  0  0  0  0  0  0  0  0  0
    6.6337   45.8387   51.0579 O   0  0  0  0  0  0  0  0  0  0  0  0
    8.6911   45.6488   52.1253 N   0  0  0  0  0  0  0  0  0  0  0  0
    9.5289   46.1374   53.2072 C   0  0  0  0  0  2  0  0  0  0  0  0
    9.2997   44.8570   51.1056 C   0  0  0  0  0  3  0  0  0  0  0  0
   10.7423   46.7963   52.5462 C   0  0  0  0  0  2  0  0  0  0  0  0
   10.4315   45.5188   50.3973 C   0  0  0  0  0  2  0  0  0  0  0  0
   10.6113   46.8913   51.0541 C   0  0  0  0  0  2  0  0  0  0  0  0
    8.3975   44.0665   50.2713 C   0  0  0  0  0  0  0  0  0  0  0  0
    7.1709   43.5770   50.5775 N   0  0  0  0  0  0  0  0  0  0  0  0
    8.6632   43.6792   48.9907 N   0  0  0  0  0  0  0  0  0  0  0  0
    6.6697   42.9025   49.5349 C   0  0  0  0  0  0  0  0  0  0  0  0
    7.6223   42.9638   48.5120 C   0  0  0  0  0  3  0  0  0  0  0  0
    5.3700   42.2088   49.4285 C   0  0  0  0  0  0  0  0  0  0  0  0
    4.6078   42.1593   50.5664 C   0  0  0  0  0  3  0  0  0  0  0  0
    4.9483   41.6414   48.2446 C   0  0  0  0  0  3  0  0  0  0  0  0
    3.3856   41.5354   50.5619 C   0  0  0  0  0  3  0  0  0  0  0  0
    3.7045   41.0096   48.2507 C   0  0  0  0  0  3  0  0  0  0  0  0
    2.9229   40.9490   49.3842 C   0  0  0  0  0  3  0  0  0  0  0  0
  1  4  1  0
  1  3  1  0
  2  1  2  0
  4  5  2  0
  5  6  1  0
  5 10  1  0
  7  6  2  0
  8  9  2  0
  8  4  1  0
  9  7  1  0
 10 11  1  0
 11 12  1  0
 13  3  1  0
 13 14  1  0
 14 16  1  0
 15 14  2  0
 16 18  1  0
 16 17  1  0
 17 19  1  0
 18 22  1  0
 18 20  1  0
 19 21  1  0
 20 21  1  0
 22 23  2  0
 22 24  1  0
 23 25  1  0
 24 26  1  0
 25 26  2  0
 25 27  1  0
 27 29  2  0
 28 30  2  0
 28 27  1  0
 29 31  1  0
 30 32  1  0
 32 31  2  0
M  RAD  8   6   2   7   2   8   2   9   2  11   3  12   2  13   3  17   3
M  RAD  8  18   2  19   3  20   3  21   3  26   2  28   2  29   2  30   2
M  RAD  2  31   2  32   2
M  END
>  <REMARK>  (1) 
 SMILES CCOc1ccccc1C(=O)NCC(=O)N1CCCCC1c1nc(-c2ccccc2)c[nH]1
 SMILES IDX 10 1 11 2 12 3 9 5 4 6 5 7 6 8 8 9 7 10 3 11 2 12 1 13 13 14
 SMILES IDX 14 15 15 16 16 17 17 18 21 19 18 20 20 21 19 22 22 23 23 24
 SMILES IDX 32 25 24 26 31 27 25 29 26 30 30 31 27 32 29 33 28 34
 H PARENT 12 4 32 28

>  <TORSDO>  (1) 
F 8

$$$$
