/home/pchatterjee/Documents/git/vs_workflow/DiffDock/diffdock_run/pdbqt_scrubbed/Z1827616875.pdbqt
     RDKit          3D

 32 35  0  0  1  0  0  0  0  0999 V2000
    4.0689   46.4439   54.1799 C   0  0  0  0  0  0  0  0  0  0  0  0
    4.5192   46.2784   55.3431 O   0  0  0  0  0  0  0  0  0  0  0  0
    4.9184   46.9666   53.1534 N   0  0  0  0  0  0  0  0  0  0  0  0
    2.6893   46.1030   53.8871 C   0  0  0  0  0  0  0  0  0  0  0  0
    1.8024   45.9469   54.9304 C   0  0  0  0  0  0  0  0  0  0  0  0
    0.4978   45.6237   54.6369 C   0  0  0  0  0  3  0  0  0  0  0  0
    0.0926   45.4610   53.3295 C   0  0  0  0  0  3  0  0  0  0  0  0
    2.2827   45.9408   52.5961 C   0  0  0  0  0  3  0  0  0  0  0  0
    0.9826   45.6181   52.2917 C   0  0  0  0  0  3  0  0  0  0  0  0
    2.1641   46.1007   56.2634 O   0  0  0  0  0  0  0  0  0  0  0  0
    1.1622   46.0233   57.2717 C   0  0  0  0  0  2  0  0  0  0  0  0
    1.8521   46.3108   58.5965 C   0  0  0  0  0  1  0  0  0  0  0  0
    6.3437   47.0175   53.2500 C   0  0  0  0  0  2  0  0  0  0  0  0
    7.0405   46.1994   52.2272 C   0  0  0  0  0  0  0  0  0  0  0  0
    6.4106   45.8174   51.2062 O   0  0  0  0  0  0  0  0  0  0  0  0
    8.4098   45.8465   52.3938 N   0  0  0  0  0  0  0  0  0  0  0  0
    9.1140   46.2678   53.5929 C   0  0  0  0  0  2  0  0  0  0  0  0
    9.1278   45.0877   51.4213 C   0  0  0  0  0  3  0  0  0  0  0  0
   10.4110   46.9286   53.1189 C   0  0  0  0  0  2  0  0  0  0  0  0
   10.3498   45.7553   50.8905 C   0  0  0  0  0  2  0  0  0  0  0  0
   10.4687   47.0929   51.6282 C   0  0  0  0  0  2  0  0  0  0  0  0
    8.3240   44.3552   50.4454 C   0  0  0  0  0  0  0  0  0  0  0  0
    7.1384   43.7234   50.6276 N   0  0  0  0  0  0  0  0  0  0  0  0
    8.6588   44.1852   49.1342 N   0  0  0  0  0  0  0  0  0  0  0  0
    6.7290   43.1702   49.4789 C   0  0  0  0  0  0  0  0  0  0  0  0
    7.7002   43.4625   48.5152 C   0  0  0  0  0  3  0  0  0  0  0  0
    5.5005   42.3918   49.2207 C   0  0  0  0  0  0  0  0  0  0  0  0
    5.2638   42.0360   47.9185 C   0  0  0  0  0  3  0  0  0  0  0  0
    4.6385   42.0428   50.2388 C   0  0  0  0  0  3  0  0  0  0  0  0
    4.1471   41.3121   47.5840 C   0  0  0  0  0  3  0  0  0  0  0  0
    3.5063   41.3069   49.8882 C   0  0  0  0  0  3  0  0  0  0  0  0
    3.2503   40.9393   48.5849 C   0  0  0  0  0  3  0  0  0  0  0  0
  1  4  1  0
  1  3  1  0
  2  1  2  0
  4  5  2  0
  5  6  1  0
  5 10  1  0
  7  6  2  0
  8  9  2  0
  8  4  1  0
  9  7  1  0
 10 11  1  0
 11 12  1  0
 13  3  1  0
 13 14  1  0
 14 16  1  0
 15 14  2  0
 16 18  1  0
 16 17  1  0
 17 19  1  0
 18 22  1  0
 18 20  1  0
 19 21  1  0
 20 21  1  0
 22 23  2  0
 22 24  1  0
 23 25  1  0
 24 26  1  0
 25 26  2  0
 25 27  1  0
 27 29  2  0
 28 30  2  0
 28 27  1  0
 29 31  1  0
 30 32  1  0
 32 31  2  0
M  RAD  8   6   2   7   2   8   2   9   2  11   3  12   2  13   3  17   3
M  RAD  8  18   2  19   3  20   3  21   3  26   2  28   2  29   2  30   2
M  RAD  2  31   2  32   2
M  END
>  <REMARK>  (1) 
 SMILES CCOc1ccccc1C(=O)NCC(=O)N1CCCCC1c1nc(-c2ccccc2)c[nH]1
 SMILES IDX 10 1 11 2 12 3 9 5 4 6 5 7 6 8 8 9 7 10 3 11 2 12 1 13 13 14
 SMILES IDX 14 15 15 16 16 17 17 18 21 19 18 20 20 21 19 22 22 23 23 24
 SMILES IDX 32 25 24 26 31 27 25 29 26 30 30 31 27 32 29 33 28 34
 H PARENT 12 4 32 28

>  <TORSDO>  (1) 
F 8

$$$$
