/home/pchatterjee/Documents/git/vs_workflow/DiffDock/diffdock_run/pdbqt_scrubbed/Z1827616875.pdbqt
     RDKit          3D

 32 35  0  0  1  0  0  0  0  0999 V2000
   13.0395   61.5204   85.8333 C   0  0  0  0  0  0  0  0  0  0  0  0
   12.7388   62.1970   86.8507 O   0  0  0  0  0  0  0  0  0  0  0  0
   12.0991   61.3852   84.7628 N   0  0  0  0  0  0  0  0  0  0  0  0
   14.3396   60.8813   85.7526 C   0  0  0  0  0  0  0  0  0  0  0  0
   14.9454   60.7493   84.5218 C   0  0  0  0  0  0  0  0  0  0  0  0
   16.1779   60.1411   84.4615 C   0  0  0  0  0  3  0  0  0  0  0  0
   16.7878   59.6768   85.6071 C   0  0  0  0  0  3  0  0  0  0  0  0
   14.9476   60.4201   86.8822 C   0  0  0  0  0  3  0  0  0  0  0  0
   16.1781   59.8113   86.8334 C   0  0  0  0  0  3  0  0  0  0  0  0
   14.3700   61.2013   83.3403 O   0  0  0  0  0  0  0  0  0  0  0  0
   15.1983   61.4396   82.2073 C   0  0  0  0  0  2  0  0  0  0  0  0
   14.2965   61.9953   81.1157 C   0  0  0  0  0  1  0  0  0  0  0  0
   10.7416   61.8268   84.8361 C   0  0  0  0  0  2  0  0  0  0  0  0
   10.3713   62.7958   83.7757 C   0  0  0  0  0  0  0  0  0  0  0  0
   11.2354   63.6061   83.3489 O   0  0  0  0  0  0  0  0  0  0  0  0
    9.0515   62.8138   83.2416 N   0  0  0  0  0  0  0  0  0  0  0  0
    8.1362   61.7329   83.5658 C   0  0  0  0  0  2  0  0  0  0  0  0
    8.5847   63.8610   82.3916 C   0  0  0  0  0  3  0  0  0  0  0  0
    7.5593   61.2455   82.2343 C   0  0  0  0  0  2  0  0  0  0  0  0
    8.0954   63.4080   81.0588 C   0  0  0  0  0  2  0  0  0  0  0  0
    8.2209   61.8811   81.0466 C   0  0  0  0  0  2  0  0  0  0  0  0
    9.3589   65.1001   82.4015 C   0  0  0  0  0  0  0  0  0  0  0  0
   10.5997   65.3279   81.9051 N   0  0  0  0  0  0  0  0  0  0  0  0
    8.9315   66.2787   82.9387 N   0  0  0  0  0  0  0  0  0  0  0  0
   10.9542   66.6020   82.1155 C   0  0  0  0  0  0  0  0  0  0  0  0
    9.8880   67.2190   82.7788 C   0  0  0  0  0  3  0  0  0  0  0  0
   12.2127   67.2791   81.7420 C   0  0  0  0  0  0  0  0  0  0  0  0
   12.0997   68.5541   81.2522 C   0  0  0  0  0  3  0  0  0  0  0  0
   13.4361   66.6582   81.8802 C   0  0  0  0  0  3  0  0  0  0  0  0
   13.2154   69.2607   80.8794 C   0  0  0  0  0  3  0  0  0  0  0  0
   14.5640   67.3851   81.4985 C   0  0  0  0  0  3  0  0  0  0  0  0
   14.4717   68.6681   81.0037 C   0  0  0  0  0  3  0  0  0  0  0  0
  1  4  1  0
  1  3  1  0
  2  1  2  0
  4  5  2  0
  5  6  1  0
  5 10  1  0
  7  6  2  0
  8  9  2  0
  8  4  1  0
  9  7  1  0
 10 11  1  0
 11 12  1  0
 13  3  1  0
 13 14  1  0
 14 16  1  0
 15 14  2  0
 16 18  1  0
 16 17  1  0
 17 19  1  0
 18 22  1  0
 18 20  1  0
 19 21  1  0
 20 21  1  0
 22 23  2  0
 22 24  1  0
 23 25  1  0
 24 26  1  0
 25 26  2  0
 25 27  1  0
 27 29  2  0
 28 30  2  0
 28 27  1  0
 29 31  1  0
 30 32  1  0
 32 31  2  0
M  RAD  8   6   2   7   2   8   2   9   2  11   3  12   2  13   3  17   3
M  RAD  8  18   2  19   3  20   3  21   3  26   2  28   2  29   2  30   2
M  RAD  2  31   2  32   2
M  END
>  <REMARK>  (1) 
 SMILES CCOc1ccccc1C(=O)NCC(=O)N1CCCCC1c1nc(-c2ccccc2)c[nH]1
 SMILES IDX 10 1 11 2 12 3 9 5 4 6 5 7 6 8 8 9 7 10 3 11 2 12 1 13 13 14
 SMILES IDX 14 15 15 16 16 17 17 18 21 19 18 20 20 21 19 22 22 23 23 24
 SMILES IDX 32 25 24 26 31 27 25 29 26 30 30 31 27 32 29 33 28 34
 H PARENT 12 4 32 28

>  <TORSDO>  (1) 
F 8

$$$$
