/home/pchatterjee/Documents/git/vs_workflow/DiffDock/diffdock_run/pdbqt_scrubbed/Z1827616875.pdbqt
     RDKit          3D

 32 35  0  0  1  0  0  0  0  0999 V2000
   11.5992   84.4676   70.6887 C   0  0  0  0  0  0  0  0  0  0  0  0
   10.4813   84.1198   70.2274 O   0  0  0  0  0  0  0  0  0  0  0  0
   11.8675   85.8503   70.9426 N   0  0  0  0  0  0  0  0  0  0  0  0
   12.6098   83.4624   70.9602 C   0  0  0  0  0  0  0  0  0  0  0  0
   13.5267   83.6891   71.9638 C   0  0  0  0  0  0  0  0  0  0  0  0
   14.4787   82.7268   72.2094 C   0  0  0  0  0  3  0  0  0  0  0  0
   14.5105   81.5660   71.4668 C   0  0  0  0  0  3  0  0  0  0  0  0
   12.6462   82.3124   70.2291 C   0  0  0  0  0  3  0  0  0  0  0  0
   13.5924   81.3451   70.4658 C   0  0  0  0  0  3  0  0  0  0  0  0
   13.5343   84.8429   72.7384 O   0  0  0  0  0  0  0  0  0  0  0  0
   14.7762   85.3713   73.1911 C   0  0  0  0  0  2  0  0  0  0  0  0
   14.4497   86.5952   74.0332 C   0  0  0  0  0  1  0  0  0  0  0  0
   11.5786   86.8998   70.0161 C   0  0  0  0  0  2  0  0  0  0  0  0
   12.6976   87.2036   69.0907 C   0  0  0  0  0  0  0  0  0  0  0  0
   13.1647   86.2882   68.3634 O   0  0  0  0  0  0  0  0  0  0  0  0
   13.2423   88.5173   69.0216 N   0  0  0  0  0  0  0  0  0  0  0  0
   12.5145   89.6234   69.6202 C   0  0  0  0  0  2  0  0  0  0  0  0
   14.4872   88.7963   68.3819 C   0  0  0  0  0  3  0  0  0  0  0  0
   12.4351   90.7143   68.5491 C   0  0  0  0  0  2  0  0  0  0  0  0
   14.4095   89.7978   67.2810 C   0  0  0  0  0  2  0  0  0  0  0  0
   12.9495   90.2578   67.2151 C   0  0  0  0  0  2  0  0  0  0  0  0
   15.3675   87.6542   68.1466 C   0  0  0  0  0  0  0  0  0  0  0  0
   16.4143   87.2234   68.8928 N   0  0  0  0  0  0  0  0  0  0  0  0
   15.2674   86.8016   67.0867 N   0  0  0  0  0  0  0  0  0  0  0  0
   16.9638   86.1377   68.3337 C   0  0  0  0  0  0  0  0  0  0  0  0
   16.2326   85.8608   67.1734 C   0  0  0  0  0  3  0  0  0  0  0  0
   18.1179   85.3457   68.8054 C   0  0  0  0  0  0  0  0  0  0  0  0
   18.7921   85.8350   69.8937 C   0  0  0  0  0  3  0  0  0  0  0  0
   18.4948   84.1753   68.1814 C   0  0  0  0  0  3  0  0  0  0  0  0
   19.8771   85.1661   70.4019 C   0  0  0  0  0  3  0  0  0  0  0  0
   19.5990   83.5030   68.7058 C   0  0  0  0  0  3  0  0  0  0  0  0
   20.2904   83.9783   69.7992 C   0  0  0  0  0  3  0  0  0  0  0  0
  1  4  1  0
  1  3  1  0
  2  1  2  0
  4  5  2  0
  5  6  1  0
  5 10  1  0
  7  6  2  0
  8  9  2  0
  8  4  1  0
  9  7  1  0
 10 11  1  0
 11 12  1  0
 13  3  1  0
 13 14  1  0
 14 16  1  0
 15 14  2  0
 16 18  1  0
 16 17  1  0
 17 19  1  0
 18 22  1  0
 18 20  1  0
 19 21  1  0
 20 21  1  0
 22 23  2  0
 22 24  1  0
 23 25  1  0
 24 26  1  0
 25 26  2  0
 25 27  1  0
 27 29  2  0
 28 30  2  0
 28 27  1  0
 29 31  1  0
 30 32  1  0
 32 31  2  0
M  RAD  8   6   2   7   2   8   2   9   2  11   3  12   2  13   3  17   3
M  RAD  8  18   2  19   3  20   3  21   3  26   2  28   2  29   2  30   2
M  RAD  2  31   2  32   2
M  END
>  <REMARK>  (1) 
 SMILES CCOc1ccccc1C(=O)NCC(=O)N1CCCCC1c1nc(-c2ccccc2)c[nH]1
 SMILES IDX 10 1 11 2 12 3 9 5 4 6 5 7 6 8 8 9 7 10 3 11 2 12 1 13 13 14
 SMILES IDX 14 15 15 16 16 17 17 18 21 19 18 20 20 21 19 22 22 23 23 24
 SMILES IDX 32 25 24 26 31 27 25 29 26 30 30 31 27 32 29 33 28 34
 H PARENT 12 4 32 28

>  <TORSDO>  (1) 
F 8

$$$$
