/home/pchatterjee/Documents/git/vs_workflow/DiffDock/diffdock_run/pdbqt_scrubbed/Z1827616875.pdbqt
     RDKit          3D

 32 35  0  0  1  0  0  0  0  0999 V2000
    4.9892   47.3867   54.0856 C   0  0  0  0  0  0  0  0  0  0  0  0
    5.4344   48.4896   54.4962 O   0  0  0  0  0  0  0  0  0  0  0  0
    5.8207   46.2223   54.1245 N   0  0  0  0  0  0  0  0  0  0  0  0
    3.6337   47.3031   53.5748 C   0  0  0  0  0  0  0  0  0  0  0  0
    2.9938   48.4589   53.1823 C   0  0  0  0  0  0  0  0  0  0  0  0
    1.7089   48.3636   52.7001 C   0  0  0  0  0  3  0  0  0  0  0  0
    1.0812   47.1395   52.6136 C   0  0  0  0  0  3  0  0  0  0  0  0
    3.0077   46.0953   53.4869 C   0  0  0  0  0  3  0  0  0  0  0  0
    1.7250   45.9887   53.0070 C   0  0  0  0  0  3  0  0  0  0  0  0
    3.5853   49.7146   53.2508 O   0  0  0  0  0  0  0  0  0  0  0  0
    2.7635   50.8763   53.2100 C   0  0  0  0  0  2  0  0  0  0  0  0
    3.6903   52.0729   53.3611 C   0  0  0  0  0  1  0  0  0  0  0  0
    7.2321   46.2452   53.8995 C   0  0  0  0  0  2  0  0  0  0  0  0
    7.6527   45.5230   52.6738 C   0  0  0  0  0  0  0  0  0  0  0  0
    6.7771   45.0323   51.9137 O   0  0  0  0  0  0  0  0  0  0  0  0
    9.0333   45.3830   52.3550 N   0  0  0  0  0  0  0  0  0  0  0  0
   10.0340   45.7505   53.3423 C   0  0  0  0  0  2  0  0  0  0  0  0
    9.4805   44.8913   51.0919 C   0  0  0  0  0  3  0  0  0  0  0  0
   11.0228   46.6749   52.6273 C   0  0  0  0  0  2  0  0  0  0  0  0
   10.3798   45.8175   50.3475 C   0  0  0  0  0  2  0  0  0  0  0  0
   10.5760   47.0450   51.2431 C   0  0  0  0  0  2  0  0  0  0  0  0
    8.4942   44.1733   50.2878 C   0  0  0  0  0  0  0  0  0  0  0  0
    7.2879   43.6831   50.6653 N   0  0  0  0  0  0  0  0  0  0  0  0
    8.6420   43.8698   48.9662 N   0  0  0  0  0  0  0  0  0  0  0  0
    6.6858   43.0889   49.6273 C   0  0  0  0  0  0  0  0  0  0  0  0
    7.5492   43.2047   48.5325 C   0  0  0  0  0  3  0  0  0  0  0  0
    5.3673   42.4241   49.5875 C   0  0  0  0  0  0  0  0  0  0  0  0
    4.7174   42.2814   50.7857 C   0  0  0  0  0  3  0  0  0  0  0  0
    4.8214   41.9719   48.4048 C   0  0  0  0  0  3  0  0  0  0  0  0
    3.4874   41.6760   50.8454 C   0  0  0  0  0  3  0  0  0  0  0  0
    3.5707   41.3579   48.4765 C   0  0  0  0  0  3  0  0  0  0  0  0
    2.9009   41.2047   49.6712 C   0  0  0  0  0  3  0  0  0  0  0  0
  1  4  1  0
  1  3  1  0
  2  1  2  0
  4  5  2  0
  5  6  1  0
  5 10  1  0
  7  6  2  0
  8  9  2  0
  8  4  1  0
  9  7  1  0
 10 11  1  0
 11 12  1  0
 13  3  1  0
 13 14  1  0
 14 16  1  0
 15 14  2  0
 16 18  1  0
 16 17  1  0
 17 19  1  0
 18 22  1  0
 18 20  1  0
 19 21  1  0
 20 21  1  0
 22 23  2  0
 22 24  1  0
 23 25  1  0
 24 26  1  0
 25 26  2  0
 25 27  1  0
 27 29  2  0
 28 30  2  0
 28 27  1  0
 29 31  1  0
 30 32  1  0
 32 31  2  0
M  RAD  8   6   2   7   2   8   2   9   2  11   3  12   2  13   3  17   3
M  RAD  8  18   2  19   3  20   3  21   3  26   2  28   2  29   2  30   2
M  RAD  2  31   2  32   2
M  END
>  <REMARK>  (1) 
 SMILES CCOc1ccccc1C(=O)NCC(=O)N1CCCCC1c1nc(-c2ccccc2)c[nH]1
 SMILES IDX 10 1 11 2 12 3 9 5 4 6 5 7 6 8 8 9 7 10 3 11 2 12 1 13 13 14
 SMILES IDX 14 15 15 16 16 17 17 18 21 19 18 20 20 21 19 22 22 23 23 24
 SMILES IDX 32 25 24 26 31 27 25 29 26 30 30 31 27 32 29 33 28 34
 H PARENT 12 4 32 28

>  <TORSDO>  (1) 
F 8

$$$$
