/home/pchatterjee/Documents/git/vs_workflow/DiffDock/diffdock_run/pdbqt_scrubbed/Z1440380604.pdbqt
     RDKit          3D

 25 28  0  0  1  0  0  0  0  0999 V2000
    5.0890   45.9028   51.9448 O   0  0  0  0  0  0  0  0  0  0  0  0
    4.4489   44.9222   51.5050 C   0  0  0  0  0  0  0  0  0  0  0  0
    5.1321   43.9312   50.7577 N   0  0  0  0  0  0  0  0  0  0  0  0
    3.0578   44.7880   51.7414 N   0  0  0  0  0  0  0  0  0  0  0  0
    2.2829   45.8245   52.3910 C   0  0  0  0  0  2  0  0  0  0  0  0
    2.7033   46.0589   53.7819 C   0  0  0  0  0  0  0  0  0  0  0  0
    3.3186   47.2417   54.0976 C   0  0  0  0  0  3  0  0  0  0  0  0
    2.5040   45.1377   54.7813 C   0  0  0  0  0  3  0  0  0  0  0  0
    3.7220   47.4881   55.3872 C   0  0  0  0  0  3  0  0  0  0  0  0
    2.9023   45.3728   56.0715 C   0  0  0  0  0  3  0  0  0  0  0  0
    3.5197   46.5614   56.3848 C   0  0  0  0  0  3  0  0  0  0  0  0
    2.3520   43.5908   51.3353 C   0  0  0  0  0  2  0  0  0  0  0  0
    0.9095   43.7140   51.7571 C   0  0  0  0  0  3  0  0  0  0  0  0
    0.0314   42.5435   51.3981 C   0  0  0  0  0  2  0  0  0  0  0  0
    0.6323   43.4368   53.2201 C   0  0  0  0  0  2  0  0  0  0  0  0
   -0.4538   42.4324   52.8325 C   0  0  0  0  0  2  0  0  0  0  0  0
    6.5956   43.8330   50.7438 C   0  0  0  0  0  3  0  0  0  0  0  0
    6.9949   43.8035   49.2850 C   0  0  0  0  0  2  0  0  0  0  0  0
    7.1567   45.0133   51.4753 C   0  0  0  0  0  2  0  0  0  0  0  0
    8.5089   43.5600   49.2423 C   0  0  0  0  0  2  0  0  0  0  0  0
    8.4740   45.4396   50.9234 C   0  0  0  0  0  0  0  0  0  0  0  0
    9.1062   44.7755   49.8929 C   0  0  0  0  0  0  0  0  0  0  0  0
    9.2505   46.5086   51.3186 C   0  0  0  0  0  3  0  0  0  0  0  0
   10.2643   45.4576   49.6785 N   0  0  0  0  0  0  0  0  0  0  0  0
   10.3527   46.4762   50.5139 N   0  0  0  0  0  0  0  0  0  0  0  0
  2  1  2  0
  2  3  1  0
  4  2  1  0
  5  4  1  0
  6  5  1  0
  6  7  2  0
  8  6  1  0
  9  7  1  0
 10  8  2  0
 10 11  1  0
 11  9  2  0
 12  4  1  0
 13 12  1  0
 14 13  1  0
 15 13  1  0
 16 14  1  0
 16 15  1  0
 17  3  1  0
 17 19  1  0
 17 18  1  0
 18 20  1  0
 19 21  1  0
 20 22  1  0
 21 23  1  0
 21 22  2  0
 22 24  1  0
 23 25  2  0
 25 24  1  0
M  RAD  8   5   3   7   2   8   2   9   2  10   2  11   2  12   3  13   2
M  RAD  8  14   3  15   3  16   3  17   2  18   3  19   3  20   3  23   2
M  END
>  <REMARK>  (1) 
 SMILES O=C(NC1CCc2[nH]ncc2C1)N(Cc1ccccc1)CC1CCC1
 SMILES IDX 1 1 2 2 3 3 13 5 14 6 15 7 16 8 20 9 17 10 19 11 18 12 21 13
 SMILES IDX 22 14 23 15 25 16 24 17 4 18 5 19 12 20 6 21 11 22 7 23
 SMILES IDX 10 24 8 25 9 26
 H PARENT 3 4 8 27

>  <TORSDO>  (1) 
F 6

$$$$
