/home/pchatterjee/Documents/git/vs_workflow/DiffDock/diffdock_run/pdbqt_scrubbed/Z1440380604.pdbqt
     RDKit          3D

 25 28  0  0  1  0  0  0  0  0999 V2000
   13.7535   62.4754   83.4290 O   0  0  0  0  0  0  0  0  0  0  0  0
   12.5309   62.6446   83.2260 C   0  0  0  0  0  0  0  0  0  0  0  0
   11.8857   61.8801   82.2228 N   0  0  0  0  0  0  0  0  0  0  0  0
   11.7849   63.5847   83.9802 N   0  0  0  0  0  0  0  0  0  0  0  0
   10.4986   64.0810   83.5380 C   0  0  0  0  0  2  0  0  0  0  0  0
   10.5700   65.4559   83.0174 C   0  0  0  0  0  0  0  0  0  0  0  0
   11.7941   65.9783   82.6920 C   0  0  0  0  0  3  0  0  0  0  0  0
    9.4561   66.2409   82.8435 C   0  0  0  0  0  3  0  0  0  0  0  0
   11.8915   67.2586   82.2041 C   0  0  0  0  0  3  0  0  0  0  0  0
    9.5413   67.5197   82.3575 C   0  0  0  0  0  3  0  0  0  0  0  0
   10.7719   68.0409   82.0318 C   0  0  0  0  0  3  0  0  0  0  0  0
   12.2913   64.0895   85.2393 C   0  0  0  0  0  2  0  0  0  0  0  0
   12.5086   62.9263   86.1737 C   0  0  0  0  0  3  0  0  0  0  0  0
   13.8804   62.3054   86.1211 C   0  0  0  0  0  2  0  0  0  0  0  0
   12.7607   63.2918   87.6218 C   0  0  0  0  0  2  0  0  0  0  0  0
   14.0257   62.4324   87.6271 C   0  0  0  0  0  2  0  0  0  0  0  0
   12.5885   60.8476   81.4536 C   0  0  0  0  0  3  0  0  0  0  0  0
   14.0618   61.1655   81.5831 C   0  0  0  0  0  2  0  0  0  0  0  0
   12.2317   59.5084   82.0214 C   0  0  0  0  0  2  0  0  0  0  0  0
   14.8111   60.1836   80.6732 C   0  0  0  0  0  2  0  0  0  0  0  0
   13.3490   58.5302   81.8934 C   0  0  0  0  0  0  0  0  0  0  0  0
   14.5433   58.8323   81.2730 C   0  0  0  0  0  0  0  0  0  0  0  0
   13.3883   57.2274   82.3442 C   0  0  0  0  0  3  0  0  0  0  0  0
   15.2929   57.6994   81.3582 N   0  0  0  0  0  0  0  0  0  0  0  0
   14.6179   56.7546   81.9867 N   0  0  0  0  0  0  0  0  0  0  0  0
  2  1  2  0
  2  3  1  0
  4  2  1  0
  5  4  1  0
  6  5  1  0
  6  7  2  0
  8  6  1  0
  9  7  1  0
 10  8  2  0
 10 11  1  0
 11  9  2  0
 12  4  1  0
 13 12  1  0
 14 13  1  0
 15 13  1  0
 16 14  1  0
 16 15  1  0
 17  3  1  0
 17 19  1  0
 17 18  1  0
 18 20  1  0
 19 21  1  0
 20 22  1  0
 21 23  1  0
 21 22  2  0
 22 24  1  0
 23 25  2  0
 25 24  1  0
M  RAD  8   5   3   7   2   8   2   9   2  10   2  11   2  12   3  13   2
M  RAD  8  14   3  15   3  16   3  17   2  18   3  19   3  20   3  23   2
M  END
>  <REMARK>  (1) 
 SMILES O=C(NC1CCc2[nH]ncc2C1)N(Cc1ccccc1)CC1CCC1
 SMILES IDX 1 1 2 2 3 3 13 5 14 6 15 7 16 8 20 9 17 10 19 11 18 12 21 13
 SMILES IDX 22 14 23 15 25 16 24 17 4 18 5 19 12 20 6 21 11 22 7 23
 SMILES IDX 10 24 8 25 9 26
 H PARENT 3 4 8 27

>  <TORSDO>  (1) 
F 6

$$$$
