/home/pchatterjee/Documents/git/vs_workflow/DiffDock/diffdock_run/pdbqt_scrubbed/Z1440380604.pdbqt
     RDKit          3D

 25 28  0  0  1  0  0  0  0  0999 V2000
    7.4962   45.4264   53.8844 O   0  0  0  0  0  0  0  0  0  0  0  0
    6.6582   46.3315   53.6769 C   0  0  0  0  0  0  0  0  0  0  0  0
    6.6093   46.9476   52.4020 N   0  0  0  0  0  0  0  0  0  0  0  0
    5.7613   46.7482   54.6923 N   0  0  0  0  0  0  0  0  0  0  0  0
    5.8689   48.0426   55.3321 C   0  0  0  0  0  2  0  0  0  0  0  0
    7.2556   48.5328   55.3901 C   0  0  0  0  0  0  0  0  0  0  0  0
    7.6467   49.5183   54.5224 C   0  0  0  0  0  3  0  0  0  0  0  0
    8.1782   48.0413   56.2814 C   0  0  0  0  0  3  0  0  0  0  0  0
    8.9344   49.9951   54.5533 C   0  0  0  0  0  3  0  0  0  0  0  0
    9.4658   48.5096   56.3213 C   0  0  0  0  0  3  0  0  0  0  0  0
    9.8550   49.4991   55.4486 C   0  0  0  0  0  3  0  0  0  0  0  0
    4.6893   45.8799   55.1323 C   0  0  0  0  0  2  0  0  0  0  0  0
    3.4936   46.0989   54.2402 C   0  0  0  0  0  3  0  0  0  0  0  0
    3.1390   44.9416   53.3430 C   0  0  0  0  0  2  0  0  0  0  0  0
    2.1439   45.9545   54.9123 C   0  0  0  0  0  2  0  0  0  0  0  0
    1.7011   44.9691   53.8298 C   0  0  0  0  0  2  0  0  0  0  0  0
    7.6381   46.7166   51.3822 C   0  0  0  0  0  3  0  0  0  0  0  0
    8.9473   46.6063   52.1320 C   0  0  0  0  0  2  0  0  0  0  0  0
    7.2910   45.4667   50.6335 C   0  0  0  0  0  2  0  0  0  0  0  0
   10.0573   46.5046   51.0779 C   0  0  0  0  0  2  0  0  0  0  0  0
    8.5048   44.7388   50.1659 C   0  0  0  0  0  0  0  0  0  0  0  0
    9.7857   45.2096   50.3661 C   0  0  0  0  0  0  0  0  0  0  0  0
    8.5628   43.5378   49.4905 C   0  0  0  0  0  3  0  0  0  0  0  0
   10.6057   44.2796   49.8048 N   0  0  0  0  0  0  0  0  0  0  0  0
    9.8912   43.2962   49.2894 N   0  0  0  0  0  0  0  0  0  0  0  0
  2  1  2  0
  2  3  1  0
  4  2  1  0
  5  4  1  0
  6  5  1  0
  6  7  2  0
  8  6  1  0
  9  7  1  0
 10  8  2  0
 10 11  1  0
 11  9  2  0
 12  4  1  0
 13 12  1  0
 14 13  1  0
 15 13  1  0
 16 14  1  0
 16 15  1  0
 17  3  1  0
 17 19  1  0
 17 18  1  0
 18 20  1  0
 19 21  1  0
 20 22  1  0
 21 23  1  0
 21 22  2  0
 22 24  1  0
 23 25  2  0
 25 24  1  0
M  RAD  8   5   3   7   2   8   2   9   2  10   2  11   2  12   3  13   2
M  RAD  8  14   3  15   3  16   3  17   2  18   3  19   3  20   3  23   2
M  END
>  <REMARK>  (1) 
 SMILES O=C(NC1CCc2[nH]ncc2C1)N(Cc1ccccc1)CC1CCC1
 SMILES IDX 1 1 2 2 3 3 13 5 14 6 15 7 16 8 20 9 17 10 19 11 18 12 21 13
 SMILES IDX 22 14 23 15 25 16 24 17 4 18 5 19 12 20 6 21 11 22 7 23
 SMILES IDX 10 24 8 25 9 26
 H PARENT 3 4 8 27

>  <TORSDO>  (1) 
F 6

$$$$
