/home/pchatterjee/Documents/git/vs_workflow/DiffDock/diffdock_run/pdbqt_scrubbed/Z1440380604.pdbqt
     RDKit          3D

 25 28  0  0  1  0  0  0  0  0999 V2000
    4.7093   45.2308   53.4935 O   0  0  0  0  0  0  0  0  0  0  0  0
    4.1344   44.7457   52.4941 C   0  0  0  0  0  0  0  0  0  0  0  0
    4.8351   44.6677   51.2653 N   0  0  0  0  0  0  0  0  0  0  0  0
    2.7996   44.2752   52.5719 N   0  0  0  0  0  0  0  0  0  0  0  0
    1.9904   44.0539   51.3917 C   0  0  0  0  0  2  0  0  0  0  0  0
    0.5473   44.1297   51.6716 C   0  0  0  0  0  0  0  0  0  0  0  0
   -0.0237   45.3577   51.8787 C   0  0  0  0  0  3  0  0  0  0  0  0
   -0.2545   43.0160   51.7343 C   0  0  0  0  0  3  0  0  0  0  0  0
   -1.3679   45.4593   52.1420 C   0  0  0  0  0  3  0  0  0  0  0  0
   -1.5969   43.1053   51.9963 C   0  0  0  0  0  3  0  0  0  0  0  0
   -2.1669   44.3399   52.2037 C   0  0  0  0  0  3  0  0  0  0  0  0
    2.1891   43.9951   53.8546 C   0  0  0  0  0  2  0  0  0  0  0  0
    1.6528   45.2834   54.4258 C   0  0  0  0  0  3  0  0  0  0  0  0
    0.1678   45.4868   54.2728 C   0  0  0  0  0  2  0  0  0  0  0  0
    1.4720   45.3042   55.9294 C   0  0  0  0  0  2  0  0  0  0  0  0
    0.0260   45.7718   55.7574 C   0  0  0  0  0  2  0  0  0  0  0  0
    6.2480   44.2798   51.1941 C   0  0  0  0  0  3  0  0  0  0  0  0
    6.5919   44.2363   49.7216 C   0  0  0  0  0  2  0  0  0  0  0  0
    7.0554   45.2905   51.9490 C   0  0  0  0  0  2  0  0  0  0  0  0
    8.0243   43.6974   49.6145 C   0  0  0  0  0  2  0  0  0  0  0  0
    8.4154   45.4693   51.3660 C   0  0  0  0  0  0  0  0  0  0  0  0
    8.8718   44.7389   50.2886 C   0  0  0  0  0  0  0  0  0  0  0  0
    9.4019   46.3429   51.7729 C   0  0  0  0  0  3  0  0  0  0  0  0
   10.1369   45.1848   50.0581 N   0  0  0  0  0  0  0  0  0  0  0  0
   10.4518   46.1269   50.9278 N   0  0  0  0  0  0  0  0  0  0  0  0
  2  1  2  0
  2  3  1  0
  4  2  1  0
  5  4  1  0
  6  5  1  0
  6  7  2  0
  8  6  1  0
  9  7  1  0
 10  8  2  0
 10 11  1  0
 11  9  2  0
 12  4  1  0
 13 12  1  0
 14 13  1  0
 15 13  1  0
 16 14  1  0
 16 15  1  0
 17  3  1  0
 17 19  1  0
 17 18  1  0
 18 20  1  0
 19 21  1  0
 20 22  1  0
 21 23  1  0
 21 22  2  0
 22 24  1  0
 23 25  2  0
 25 24  1  0
M  RAD  8   5   3   7   2   8   2   9   2  10   2  11   2  12   3  13   2
M  RAD  8  14   3  15   3  16   3  17   2  18   3  19   3  20   3  23   2
M  END
>  <REMARK>  (1) 
 SMILES O=C(NC1CCc2[nH]ncc2C1)N(Cc1ccccc1)CC1CCC1
 SMILES IDX 1 1 2 2 3 3 13 5 14 6 15 7 16 8 20 9 17 10 19 11 18 12 21 13
 SMILES IDX 22 14 23 15 25 16 24 17 4 18 5 19 12 20 6 21 11 22 7 23
 SMILES IDX 10 24 8 25 9 26
 H PARENT 3 4 8 27

>  <TORSDO>  (1) 
F 6

$$$$
