/home/pchatterjee/Documents/git/vs_workflow/DiffDock/diffdock_run/pdbqt_scrubbed/Z1440380604.pdbqt
     RDKit          3D

 25 28  0  0  1  0  0  0  0  0999 V2000
    5.6813   45.4443   51.0200 O   0  0  0  0  0  0  0  0  0  0  0  0
    5.4742   44.2161   51.1353 C   0  0  0  0  0  0  0  0  0  0  0  0
    6.5766   43.3440   51.3121 N   0  0  0  0  0  0  0  0  0  0  0  0
    4.1602   43.6862   51.0918 N   0  0  0  0  0  0  0  0  0  0  0  0
    3.9049   42.2622   51.0332 C   0  0  0  0  0  2  0  0  0  0  0  0
    3.8838   41.7464   49.6548 C   0  0  0  0  0  0  0  0  0  0  0  0
    2.6829   41.6483   49.0025 C   0  0  0  0  0  3  0  0  0  0  0  0
    5.0224   41.3573   48.9919 C   0  0  0  0  0  3  0  0  0  0  0  0
    2.6324   41.1704   47.7158 C   0  0  0  0  0  3  0  0  0  0  0  0
    4.9840   40.8790   47.7080 C   0  0  0  0  0  3  0  0  0  0  0  0
    3.7766   40.7819   47.0562 C   0  0  0  0  0  3  0  0  0  0  0  0
    3.0092   44.5645   51.1047 C   0  0  0  0  0  2  0  0  0  0  0  0
    2.0195   44.0488   52.1186 C   0  0  0  0  0  3  0  0  0  0  0  0
    2.6115   43.6198   53.4360 C   0  0  0  0  0  2  0  0  0  0  0  0
    1.2261   45.1096   52.8530 C   0  0  0  0  0  2  0  0  0  0  0  0
    1.6280   44.4937   54.1939 C   0  0  0  0  0  2  0  0  0  0  0  0
    7.9426   43.8407   51.5093 C   0  0  0  0  0  3  0  0  0  0  0  0
    8.3652   44.4291   50.1813 C   0  0  0  0  0  2  0  0  0  0  0  0
    7.9240   44.8531   52.6130 C   0  0  0  0  0  2  0  0  0  0  0  0
    9.8396   44.8293   50.3202 C   0  0  0  0  0  2  0  0  0  0  0  0
    8.9528   45.9137   52.4173 C   0  0  0  0  0  0  0  0  0  0  0  0
    9.8414   45.9116   51.3624 C   0  0  0  0  0  0  0  0  0  0  0  0
    9.1876   47.0200   53.2065 C   0  0  0  0  0  3  0  0  0  0  0  0
   10.6062   47.0248   51.5303 N   0  0  0  0  0  0  0  0  0  0  0  0
   10.2253   47.6784   52.6123 N   0  0  0  0  0  0  0  0  0  0  0  0
  2  1  2  0
  2  3  1  0
  4  2  1  0
  5  4  1  0
  6  5  1  0
  6  7  2  0
  8  6  1  0
  9  7  1  0
 10  8  2  0
 10 11  1  0
 11  9  2  0
 12  4  1  0
 13 12  1  0
 14 13  1  0
 15 13  1  0
 16 14  1  0
 16 15  1  0
 17  3  1  0
 17 19  1  0
 17 18  1  0
 18 20  1  0
 19 21  1  0
 20 22  1  0
 21 23  1  0
 21 22  2  0
 22 24  1  0
 23 25  2  0
 25 24  1  0
M  RAD  8   5   3   7   2   8   2   9   2  10   2  11   2  12   3  13   2
M  RAD  8  14   3  15   3  16   3  17   2  18   3  19   3  20   3  23   2
M  END
>  <REMARK>  (1) 
 SMILES O=C(NC1CCc2[nH]ncc2C1)N(Cc1ccccc1)CC1CCC1
 SMILES IDX 1 1 2 2 3 3 13 5 14 6 15 7 16 8 20 9 17 10 19 11 18 12 21 13
 SMILES IDX 22 14 23 15 25 16 24 17 4 18 5 19 12 20 6 21 11 22 7 23
 SMILES IDX 10 24 8 25 9 26
 H PARENT 3 4 8 27

>  <TORSDO>  (1) 
F 6

$$$$
