/home/pchatterjee/Documents/git/vs_workflow/DiffDock/diffdock_run/pdbqt_scrubbed/Z1440380604.pdbqt
     RDKit          3D

 25 28  0  0  1  0  0  0  0  0999 V2000
    5.5506   44.9916   54.0638 O   0  0  0  0  0  0  0  0  0  0  0  0
    5.1239   45.8176   53.2270 C   0  0  0  0  0  0  0  0  0  0  0  0
    5.8345   47.0268   53.0268 N   0  0  0  0  0  0  0  0  0  0  0  0
    3.9465   45.5637   52.4797 N   0  0  0  0  0  0  0  0  0  0  0  0
    2.7874   46.4286   52.5501 C   0  0  0  0  0  2  0  0  0  0  0  0
    1.9009   46.0977   53.6776 C   0  0  0  0  0  0  0  0  0  0  0  0
    2.4564   45.6578   54.8502 C   0  0  0  0  0  3  0  0  0  0  0  0
    0.5339   46.2116   53.6031 C   0  0  0  0  0  3  0  0  0  0  0  0
    1.6540   45.3414   55.9191 C   0  0  0  0  0  3  0  0  0  0  0  0
   -0.2766   45.8988   54.6633 C   0  0  0  0  0  3  0  0  0  0  0  0
    0.2846   45.4575   55.8391 C   0  0  0  0  0  3  0  0  0  0  0  0
    3.8605   44.4123   51.6061 C   0  0  0  0  0  2  0  0  0  0  0  0
    2.7830   43.4930   52.1233 C   0  0  0  0  0  3  0  0  0  0  0  0
    1.3886   44.0637   52.1101 C   0  0  0  0  0  2  0  0  0  0  0  0
    2.3226   42.4205   51.1580 C   0  0  0  0  0  2  0  0  0  0  0  0
    0.8687   42.8483   51.3632 C   0  0  0  0  0  2  0  0  0  0  0  0
    6.9667   47.1240   52.0993 C   0  0  0  0  0  3  0  0  0  0  0  0
    8.2043   46.8555   52.9267 C   0  0  0  0  0  2  0  0  0  0  0  0
    6.7708   46.1196   51.0055 C   0  0  0  0  0  2  0  0  0  0  0  0
    9.4123   47.0890   52.0104 C   0  0  0  0  0  2  0  0  0  0  0  0
    8.0664   45.5929   50.4904 C   0  0  0  0  0  0  0  0  0  0  0  0
    9.2907   46.0338   50.9477 C   0  0  0  0  0  0  0  0  0  0  0  0
    8.2631   44.6293   49.5235 C   0  0  0  0  0  3  0  0  0  0  0  0
   10.2167   45.3253   50.2456 N   0  0  0  0  0  0  0  0  0  0  0  0
    9.6170   44.4993   49.4081 N   0  0  0  0  0  0  0  0  0  0  0  0
  2  1  2  0
  2  3  1  0
  4  2  1  0
  5  4  1  0
  6  5  1  0
  6  7  2  0
  8  6  1  0
  9  7  1  0
 10  8  2  0
 10 11  1  0
 11  9  2  0
 12  4  1  0
 13 12  1  0
 14 13  1  0
 15 13  1  0
 16 14  1  0
 16 15  1  0
 17  3  1  0
 17 19  1  0
 17 18  1  0
 18 20  1  0
 19 21  1  0
 20 22  1  0
 21 23  1  0
 21 22  2  0
 22 24  1  0
 23 25  2  0
 25 24  1  0
M  RAD  8   5   3   7   2   8   2   9   2  10   2  11   2  12   3  13   2
M  RAD  8  14   3  15   3  16   3  17   2  18   3  19   3  20   3  23   2
M  END
>  <REMARK>  (1) 
 SMILES O=C(NC1CCc2[nH]ncc2C1)N(Cc1ccccc1)CC1CCC1
 SMILES IDX 1 1 2 2 3 3 13 5 14 6 15 7 16 8 20 9 17 10 19 11 18 12 21 13
 SMILES IDX 22 14 23 15 25 16 24 17 4 18 5 19 12 20 6 21 11 22 7 23
 SMILES IDX 10 24 8 25 9 26
 H PARENT 3 4 8 27

>  <TORSDO>  (1) 
F 6

$$$$
