/home/pchatterjee/Documents/git/vs_workflow/DiffDock/diffdock_run/pdbqt_scrubbed/Z1440380604.pdbqt
     RDKit          3D

 25 28  0  0  1  0  0  0  0  0999 V2000
    7.2545   46.7348   54.5286 O   0  0  0  0  0  0  0  0  0  0  0  0
    6.3159   47.1208   53.7973 C   0  0  0  0  0  0  0  0  0  0  0  0
    6.6045   47.5784   52.4879 N   0  0  0  0  0  0  0  0  0  0  0  0
    4.9749   47.1073   54.2562 N   0  0  0  0  0  0  0  0  0  0  0  0
    4.4629   48.1071   55.1699 C   0  0  0  0  0  2  0  0  0  0  0  0
    4.3855   49.4449   54.5610 C   0  0  0  0  0  0  0  0  0  0  0  0
    4.8219   50.5263   55.2801 C   0  0  0  0  0  3  0  0  0  0  0  0
    3.8919   49.6557   53.2965 C   0  0  0  0  0  3  0  0  0  0  0  0
    4.7617   51.7868   54.7378 C   0  0  0  0  0  3  0  0  0  0  0  0
    3.8271   50.9089   52.7451 C   0  0  0  0  0  3  0  0  0  0  0  0
    4.2661   51.9923   53.4700 C   0  0  0  0  0  3  0  0  0  0  0  0
    4.0557   46.0770   53.8204 C   0  0  0  0  0  2  0  0  0  0  0  0
    2.7980   46.1707   54.6468 C   0  0  0  0  0  3  0  0  0  0  0  0
    1.5590   45.6077   54.0002 C   0  0  0  0  0  2  0  0  0  0  0  0
    2.6608   45.1360   55.7444 C   0  0  0  0  0  2  0  0  0  0  0  0
    1.2736   44.7563   55.2245 C   0  0  0  0  0  2  0  0  0  0  0  0
    7.8003   47.1481   51.7552 C   0  0  0  0  0  3  0  0  0  0  0  0
    8.7616   46.6272   52.8007 C   0  0  0  0  0  2  0  0  0  0  0  0
    7.3971   46.1001   50.7640 C   0  0  0  0  0  2  0  0  0  0  0  0
   10.0739   46.3009   52.0761 C   0  0  0  0  0  2  0  0  0  0  0  0
    8.4799   45.1023   50.5325 C   0  0  0  0  0  0  0  0  0  0  0  0
    9.7186   45.1863   51.1333 C   0  0  0  0  0  0  0  0  0  0  0  0
    8.4413   43.9843   49.7259 C   0  0  0  0  0  3  0  0  0  0  0  0
   10.4162   44.1099   50.6780 N   0  0  0  0  0  0  0  0  0  0  0  0
    9.6694   43.4016   49.8511 N   0  0  0  0  0  0  0  0  0  0  0  0
  2  1  2  0
  2  3  1  0
  4  2  1  0
  5  4  1  0
  6  5  1  0
  6  7  2  0
  8  6  1  0
  9  7  1  0
 10  8  2  0
 10 11  1  0
 11  9  2  0
 12  4  1  0
 13 12  1  0
 14 13  1  0
 15 13  1  0
 16 14  1  0
 16 15  1  0
 17  3  1  0
 17 19  1  0
 17 18  1  0
 18 20  1  0
 19 21  1  0
 20 22  1  0
 21 23  1  0
 21 22  2  0
 22 24  1  0
 23 25  2  0
 25 24  1  0
M  RAD  8   5   3   7   2   8   2   9   2  10   2  11   2  12   3  13   2
M  RAD  8  14   3  15   3  16   3  17   2  18   3  19   3  20   3  23   2
M  END
>  <REMARK>  (1) 
 SMILES O=C(NC1CCc2[nH]ncc2C1)N(Cc1ccccc1)CC1CCC1
 SMILES IDX 1 1 2 2 3 3 13 5 14 6 15 7 16 8 20 9 17 10 19 11 18 12 21 13
 SMILES IDX 22 14 23 15 25 16 24 17 4 18 5 19 12 20 6 21 11 22 7 23
 SMILES IDX 10 24 8 25 9 26
 H PARENT 3 4 8 27

>  <TORSDO>  (1) 
F 6

$$$$
