/home/pchatterjee/Documents/git/vs_workflow/DiffDock/diffdock_run/pdbqt_scrubbed/Z1440380604.pdbqt
     RDKit          3D

 25 28  0  0  1  0  0  0  0  0999 V2000
    5.1000   45.6677   53.6307 O   0  0  0  0  0  0  0  0  0  0  0  0
    4.4076   45.7799   52.5950 C   0  0  0  0  0  0  0  0  0  0  0  0
    4.9173   45.2889   51.3677 N   0  0  0  0  0  0  0  0  0  0  0  0
    3.1275   46.3874   52.6304 N   0  0  0  0  0  0  0  0  0  0  0  0
    2.8820   47.7008   52.0723 C   0  0  0  0  0  2  0  0  0  0  0  0
    3.6504   48.7574   52.7502 C   0  0  0  0  0  0  0  0  0  0  0  0
    4.7566   48.4081   53.4791 C   0  0  0  0  0  3  0  0  0  0  0  0
    3.3034   50.0849   52.6827 C   0  0  0  0  0  3  0  0  0  0  0  0
    5.4930   49.3725   54.1227 C   0  0  0  0  0  3  0  0  0  0  0  0
    4.0307   51.0558   53.3207 C   0  0  0  0  0  3  0  0  0  0  0  0
    5.1407   50.7014   54.0517 C   0  0  0  0  0  3  0  0  0  0  0  0
    2.0028   45.7051   53.2354 C   0  0  0  0  0  2  0  0  0  0  0  0
    2.4128   45.2160   54.6015 C   0  0  0  0  0  3  0  0  0  0  0  0
    2.2831   46.2253   55.7126 C   0  0  0  0  0  2  0  0  0  0  0  0
    1.3987   44.3446   55.3132 C   0  0  0  0  0  2  0  0  0  0  0  0
    1.4798   45.2440   56.5474 C   0  0  0  0  0  2  0  0  0  0  0  0
    6.2047   44.5914   51.2789 C   0  0  0  0  0  3  0  0  0  0  0  0
    6.4194   44.3037   49.8094 C   0  0  0  0  0  2  0  0  0  0  0  0
    7.2646   45.4773   51.8578 C   0  0  0  0  0  2  0  0  0  0  0  0
    7.6907   43.4516   49.7034 C   0  0  0  0  0  2  0  0  0  0  0  0
    8.5834   45.2814   51.1916 C   0  0  0  0  0  0  0  0  0  0  0  0
    8.7902   44.3491   50.1963 C   0  0  0  0  0  0  0  0  0  0  0  0
    9.7620   45.9549   51.4348 C   0  0  0  0  0  3  0  0  0  0  0  0
   10.1004   44.4734   49.8496 N   0  0  0  0  0  0  0  0  0  0  0  0
   10.6746   45.4155   50.5748 N   0  0  0  0  0  0  0  0  0  0  0  0
  2  1  2  0
  2  3  1  0
  4  2  1  0
  5  4  1  0
  6  5  1  0
  6  7  2  0
  8  6  1  0
  9  7  1  0
 10  8  2  0
 10 11  1  0
 11  9  2  0
 12  4  1  0
 13 12  1  0
 14 13  1  0
 15 13  1  0
 16 14  1  0
 16 15  1  0
 17  3  1  0
 17 19  1  0
 17 18  1  0
 18 20  1  0
 19 21  1  0
 20 22  1  0
 21 23  1  0
 21 22  2  0
 22 24  1  0
 23 25  2  0
 25 24  1  0
M  RAD  8   5   3   7   2   8   2   9   2  10   2  11   2  12   3  13   2
M  RAD  8  14   3  15   3  16   3  17   2  18   3  19   3  20   3  23   2
M  END
>  <REMARK>  (1) 
 SMILES O=C(NC1CCc2[nH]ncc2C1)N(Cc1ccccc1)CC1CCC1
 SMILES IDX 1 1 2 2 3 3 13 5 14 6 15 7 16 8 20 9 17 10 19 11 18 12 21 13
 SMILES IDX 22 14 23 15 25 16 24 17 4 18 5 19 12 20 6 21 11 22 7 23
 SMILES IDX 10 24 8 25 9 26
 H PARENT 3 4 8 27

>  <TORSDO>  (1) 
F 6

$$$$
