/home/pchatterjee/Documents/git/vs_workflow/DiffDock/diffdock_run/pdbqt_scrubbed/Z1440380604.pdbqt
     RDKit          3D

 25 28  0  0  1  0  0  0  0  0999 V2000
    4.3614   45.8201   51.1583 O   0  0  0  0  0  0  0  0  0  0  0  0
    4.4944   45.7918   52.4018 C   0  0  0  0  0  0  0  0  0  0  0  0
    5.6618   46.3447   52.9837 N   0  0  0  0  0  0  0  0  0  0  0  0
    3.5001   45.2182   53.2333 N   0  0  0  0  0  0  0  0  0  0  0  0
    3.5261   43.8216   53.6147 C   0  0  0  0  0  2  0  0  0  0  0  0
    2.6996   42.9785   52.7358 C   0  0  0  0  0  0  0  0  0  0  0  0
    3.1281   42.7345   51.4575 C   0  0  0  0  0  3  0  0  0  0  0  0
    1.5114   42.4236   53.1450 C   0  0  0  0  0  3  0  0  0  0  0  0
    2.3777   41.9515   50.6147 C   0  0  0  0  0  3  0  0  0  0  0  0
    0.7543   41.6408   52.3127 C   0  0  0  0  0  3  0  0  0  0  0  0
    1.1876   41.3979   51.0299 C   0  0  0  0  0  3  0  0  0  0  0  0
    2.4063   46.0215   53.7381 C   0  0  0  0  0  2  0  0  0  0  0  0
    1.2992   45.1019   54.1879 C   0  0  0  0  0  3  0  0  0  0  0  0
    1.5704   44.3416   55.4600 C   0  0  0  0  0  2  0  0  0  0  0  0
    0.1298   45.7768   54.8741 C   0  0  0  0  0  2  0  0  0  0  0  0
    0.2548   44.8121   56.0542 C   0  0  0  0  0  2  0  0  0  0  0  0
    6.8609   46.6466   52.1946 C   0  0  0  0  0  3  0  0  0  0  0  0
    8.0329   46.4519   53.1310 C   0  0  0  0  0  2  0  0  0  0  0  0
    6.8988   45.7214   51.0173 C   0  0  0  0  0  2  0  0  0  0  0  0
    9.2891   46.8965   52.3709 C   0  0  0  0  0  2  0  0  0  0  0  0
    8.2938   45.3897   50.6105 C   0  0  0  0  0  0  0  0  0  0  0  0
    9.4036   45.9268   51.2290 C   0  0  0  0  0  0  0  0  0  0  0  0
    8.7018   44.5388   49.6048 C   0  0  0  0  0  3  0  0  0  0  0  0
   10.4743   45.3889   50.5835 N   0  0  0  0  0  0  0  0  0  0  0  0
   10.0662   44.5732   49.6289 N   0  0  0  0  0  0  0  0  0  0  0  0
  2  1  2  0
  2  3  1  0
  4  2  1  0
  5  4  1  0
  6  5  1  0
  6  7  2  0
  8  6  1  0
  9  7  1  0
 10  8  2  0
 10 11  1  0
 11  9  2  0
 12  4  1  0
 13 12  1  0
 14 13  1  0
 15 13  1  0
 16 14  1  0
 16 15  1  0
 17  3  1  0
 17 19  1  0
 17 18  1  0
 18 20  1  0
 19 21  1  0
 20 22  1  0
 21 23  1  0
 21 22  2  0
 22 24  1  0
 23 25  2  0
 25 24  1  0
M  RAD  8   5   3   7   2   8   2   9   2  10   2  11   2  12   3  13   2
M  RAD  8  14   3  15   3  16   3  17   2  18   3  19   3  20   3  23   2
M  END
>  <REMARK>  (1) 
 SMILES O=C(NC1CCc2[nH]ncc2C1)N(Cc1ccccc1)CC1CCC1
 SMILES IDX 1 1 2 2 3 3 13 5 14 6 15 7 16 8 20 9 17 10 19 11 18 12 21 13
 SMILES IDX 22 14 23 15 25 16 24 17 4 18 5 19 12 20 6 21 11 22 7 23
 SMILES IDX 10 24 8 25 9 26
 H PARENT 3 4 8 27

>  <TORSDO>  (1) 
F 6

$$$$
