/home/pchatterjee/Documents/git/vs_workflow/DiffDock/diffdock_run/pdbqt_scrubbed/Z1440380604.pdbqt
     RDKit          3D

 25 28  0  0  1  0  0  0  0  0999 V2000
    4.8817   45.2489   52.4746 O   0  0  0  0  0  0  0  0  0  0  0  0
    4.3351   44.4793   51.6538 C   0  0  0  0  0  0  0  0  0  0  0  0
    5.1310   43.8396   50.6718 N   0  0  0  0  0  0  0  0  0  0  0  0
    2.9387   44.2386   51.6911 N   0  0  0  0  0  0  0  0  0  0  0  0
    1.9945   45.2456   52.1282 C   0  0  0  0  0  2  0  0  0  0  0  0
    2.4247   45.9302   53.3581 C   0  0  0  0  0  0  0  0  0  0  0  0
    2.4191   45.2360   54.5393 C   0  0  0  0  0  3  0  0  0  0  0  0
    2.8332   47.2417   53.3716 C   0  0  0  0  0  3  0  0  0  0  0  0
    2.8152   45.8489   55.7029 C   0  0  0  0  0  3  0  0  0  0  0  0
    3.2305   47.8636   54.5267 C   0  0  0  0  0  3  0  0  0  0  0  0
    3.2236   47.1635   55.7107 C   0  0  0  0  0  3  0  0  0  0  0  0
    2.3993   42.9571   51.2870 C   0  0  0  0  0  2  0  0  0  0  0  0
    0.8956   43.0144   51.3820 C   0  0  0  0  0  3  0  0  0  0  0  0
    0.1622   41.9160   50.6569 C   0  0  0  0  0  2  0  0  0  0  0  0
    0.3050   42.5113   52.6828 C   0  0  0  0  0  2  0  0  0  0  0  0
   -0.6302   41.5816   51.9082 C   0  0  0  0  0  2  0  0  0  0  0  0
    6.5907   43.7497   50.7856 C   0  0  0  0  0  3  0  0  0  0  0  0
    7.0953   43.4261   49.3967 C   0  0  0  0  0  2  0  0  0  0  0  0
    7.1073   45.0579   51.3005 C   0  0  0  0  0  2  0  0  0  0  0  0
    8.6062   43.1885   49.5158 C   0  0  0  0  0  2  0  0  0  0  0  0
    8.4651   45.3710   50.7715 C   0  0  0  0  0  0  0  0  0  0  0  0
    9.1651   44.5148   49.9472 C   0  0  0  0  0  0  0  0  0  0  0  0
    9.2201   46.5029   50.9966 C   0  0  0  0  0  3  0  0  0  0  0  0
   10.3418   45.1460   49.6839 N   0  0  0  0  0  0  0  0  0  0  0  0
   10.3778   46.3140   50.2984 N   0  0  0  0  0  0  0  0  0  0  0  0
  2  1  2  0
  2  3  1  0
  4  2  1  0
  5  4  1  0
  6  5  1  0
  6  7  2  0
  8  6  1  0
  9  7  1  0
 10  8  2  0
 10 11  1  0
 11  9  2  0
 12  4  1  0
 13 12  1  0
 14 13  1  0
 15 13  1  0
 16 14  1  0
 16 15  1  0
 17  3  1  0
 17 19  1  0
 17 18  1  0
 18 20  1  0
 19 21  1  0
 20 22  1  0
 21 23  1  0
 21 22  2  0
 22 24  1  0
 23 25  2  0
 25 24  1  0
M  RAD  8   5   3   7   2   8   2   9   2  10   2  11   2  12   3  13   2
M  RAD  8  14   3  15   3  16   3  17   2  18   3  19   3  20   3  23   2
M  END
>  <REMARK>  (1) 
 SMILES O=C(NC1CCc2[nH]ncc2C1)N(Cc1ccccc1)CC1CCC1
 SMILES IDX 1 1 2 2 3 3 13 5 14 6 15 7 16 8 20 9 17 10 19 11 18 12 21 13
 SMILES IDX 22 14 23 15 25 16 24 17 4 18 5 19 12 20 6 21 11 22 7 23
 SMILES IDX 10 24 8 25 9 26
 H PARENT 3 4 8 27

>  <TORSDO>  (1) 
F 6

$$$$
