/home/pchatterjee/Documents/git/vs_workflow/DiffDock/diffdock_run/pdbqt_scrubbed/Z878814608.pdbqt
     RDKit          3D

 28 31  0  0  1  0  0  0  0  0999 V2000
    5.3709   46.3227   53.6610 C   0  0  0  0  0  0  0  0  0  0  0  0
    4.4770   45.8166   54.5803 C   0  0  0  0  0  3  0  0  0  0  0  0
    3.9365   46.5784   55.6022 C   0  0  0  0  0  3  0  0  0  0  0  0
    4.2960   47.8987   55.7198 C   0  0  0  0  0  3  0  0  0  0  0  0
    5.1881   48.4387   54.8176 C   0  0  0  0  0  0  0  0  0  0  0  0
    5.7324   47.6682   53.7872 C   0  0  0  0  0  3  0  0  0  0  0  0
    5.9184   45.5106   52.6082 N   0  0  0  0  0  0  0  0  0  0  0  0
    7.3069   45.5671   52.3265 C   0  0  0  0  0  0  0  0  0  0  0  0
    7.9943   46.3319   53.0467 O   0  0  0  0  0  0  0  0  0  0  0  0
    7.9345   44.7764   51.2461 C   0  0  0  0  0  0  0  0  0  0  0  0
    9.0833   44.9931   50.6329 C   0  0  0  0  0  0  0  0  0  0  0  0
    9.3062   44.0072   49.6490 O   0  0  0  0  0  0  0  0  0  0  0  0
    8.2494   43.1311   49.6328 C   0  0  0  0  0  0  0  0  0  0  0  0
    7.3520   43.5410   50.7349 C   0  0  0  0  0  3  0  0  0  0  0  0
    7.8595   42.1017   48.9427 N   0  0  0  0  0  0  0  0  0  0  0  0
    5.9431   43.5852   50.2939 C   0  0  0  0  0  0  0  0  0  0  0  0
    6.5964   41.4384   49.2905 C   0  0  0  0  0  2  0  0  0  0  0  0
    5.5353   42.4169   49.5220 N   0  0  0  0  0  0  0  0  0  0  0  0
   10.0859   46.0780   50.8412 C   0  0  0  0  0  1  0  0  0  0  0  0
    5.1395   44.5144   50.5351 O   0  0  0  0  0  0  0  0  0  0  0  0
    5.6156   49.8721   54.8979 C   0  0  0  0  0  2  0  0  0  0  0  0
    4.6890   50.7318   54.3453 O   0  0  0  0  0  0  0  0  0  0  0  0
    5.0430   52.0603   54.4387 C   0  0  0  0  0  3  0  0  0  0  0  0
    4.2066   52.8578   53.4412 C   0  0  0  0  0  2  0  0  0  0  0  0
    4.7604   52.5063   55.8561 C   0  0  0  0  0  2  0  0  0  0  0  0
    3.6488   54.1017   54.1009 C   0  0  0  0  0  2  0  0  0  0  0  0
    5.0522   53.9536   56.0998 C   0  0  0  0  0  2  0  0  0  0  0  0
    4.7529   54.7786   54.8874 C   0  0  0  0  0  2  0  0  0  0  0  0
  1  6  1  0
  2  1  2  0
  2  3  1  0
  3  4  2  0
  4  5  1  0
  5 21  1  0
  6  5  2  0
  7  1  1  0
  8  7  1  0
  9  8  2  0
 10 11  2  0
 10  8  1  0
 11 19  1  0
 12 11  1  0
 13 14  1  0
 13 12  1  0
 14 16  1  0
 14 10  1  0
 15 13  2  0
 16 20  2  0
 17 18  1  0
 17 15  1  0
 18 16  1  0
 22 21  1  0
 22 23  1  0
 24 23  1  0
 25 23  1  0
 26 24  1  0
 27 25  1  0
 28 27  1  0
 28 26  1  0
M  RAD  8   2   2   3   2   4   2   6   2  14   2  17   3  19   2  21   3
M  RAD  6  23   2  24   3  25   3  26   3  27   3  28   3
M  END
>  <REMARK>  (1) 
 SMILES Cc1oc2nc[nH]c(=O)c2c1C(=O)Nc1cccc(COC2CCCCC2)c1
 SMILES IDX 15 1 16 2 17 3 18 4 19 5 28 6 14 7 12 8 13 9 11 11 2 12 3 13
 SMILES IDX 4 14 10 15 5 16 8 17 6 18 7 19 1 20 9 21 20 23 21 24 22 25
 SMILES IDX 23 26 27 27 24 28 26 29 25 30
 H PARENT 14 10 7 22

>  <TORSDO>  (1) 
F 5

$$$$
