/home/pchatterjee/Documents/git/vs_workflow/DiffDock/diffdock_run/pdbqt_scrubbed/Z878814608.pdbqt
     RDKit          3D

 28 31  0  0  1  0  0  0  0  0999 V2000
    5.5013   46.5899   53.8407 C   0  0  0  0  0  0  0  0  0  0  0  0
    4.5761   45.8483   54.5438 C   0  0  0  0  0  3  0  0  0  0  0  0
    3.7055   46.4081   55.4633 C   0  0  0  0  0  3  0  0  0  0  0  0
    3.7522   47.7605   55.6977 C   0  0  0  0  0  3  0  0  0  0  0  0
    4.6654   48.5336   55.0122 C   0  0  0  0  0  0  0  0  0  0  0  0
    5.5430   47.9668   54.0846 C   0  0  0  0  0  3  0  0  0  0  0  0
    6.3950   45.9849   52.8905 N   0  0  0  0  0  0  0  0  0  0  0  0
    5.8688   45.2214   51.8178 C   0  0  0  0  0  0  0  0  0  0  0  0
    4.6180   45.1863   51.7155 O   0  0  0  0  0  0  0  0  0  0  0  0
    6.7284   44.4960   50.8580 C   0  0  0  0  0  0  0  0  0  0  0  0
    6.4301   43.4370   50.1284 C   0  0  0  0  0  0  0  0  0  0  0  0
    7.5424   43.0483   49.3529 O   0  0  0  0  0  0  0  0  0  0  0  0
    8.5941   43.8934   49.6070 C   0  0  0  0  0  0  0  0  0  0  0  0
    8.0820   44.9290   50.5307 C   0  0  0  0  0  3  0  0  0  0  0  0
    9.8427   44.0095   49.2677 N   0  0  0  0  0  0  0  0  0  0  0  0
    9.0134   45.1566   51.6541 C   0  0  0  0  0  0  0  0  0  0  0  0
   10.6349   45.1222   49.8069 C   0  0  0  0  0  2  0  0  0  0  0  0
   10.4067   45.2826   51.2420 N   0  0  0  0  0  0  0  0  0  0  0  0
    5.1566   42.6647   50.0443 C   0  0  0  0  0  1  0  0  0  0  0  0
    8.6848   45.2400   52.8593 O   0  0  0  0  0  0  0  0  0  0  0  0
    4.7607   50.0128   55.2276 C   0  0  0  0  0  2  0  0  0  0  0  0
    4.8938   50.7116   54.0456 O   0  0  0  0  0  0  0  0  0  0  0  0
    4.9114   52.0795   54.2112 C   0  0  0  0  0  3  0  0  0  0  0  0
    3.8878   52.6976   53.2621 C   0  0  0  0  0  2  0  0  0  0  0  0
    4.5516   52.3665   55.6521 C   0  0  0  0  0  2  0  0  0  0  0  0
    3.0522   53.7288   53.9915 C   0  0  0  0  0  2  0  0  0  0  0  0
    4.4822   53.8261   55.9745 C   0  0  0  0  0  2  0  0  0  0  0  0
    3.9688   54.6146   54.8106 C   0  0  0  0  0  2  0  0  0  0  0  0
  1  6  1  0
  2  1  2  0
  2  3  1  0
  3  4  2  0
  4  5  1  0
  5 21  1  0
  6  5  2  0
  7  1  1  0
  8  7  1  0
  9  8  2  0
 10 11  2  0
 10  8  1  0
 11 19  1  0
 12 11  1  0
 13 14  1  0
 13 12  1  0
 14 16  1  0
 14 10  1  0
 15 13  2  0
 16 20  2  0
 17 18  1  0
 17 15  1  0
 18 16  1  0
 22 21  1  0
 22 23  1  0
 24 23  1  0
 25 23  1  0
 26 24  1  0
 27 25  1  0
 28 27  1  0
 28 26  1  0
M  RAD  8   2   2   3   2   4   2   6   2  14   2  17   3  19   2  21   3
M  RAD  6  23   2  24   3  25   3  26   3  27   3  28   3
M  END
>  <REMARK>  (1) 
 SMILES Cc1oc2nc[nH]c(=O)c2c1C(=O)Nc1cccc(COC2CCCCC2)c1
 SMILES IDX 15 1 16 2 17 3 18 4 19 5 28 6 14 7 12 8 13 9 11 11 2 12 3 13
 SMILES IDX 4 14 10 15 5 16 8 17 6 18 7 19 1 20 9 21 20 23 21 24 22 25
 SMILES IDX 23 26 27 27 24 28 26 29 25 30
 H PARENT 14 10 7 22

>  <TORSDO>  (1) 
F 5

$$$$
