/home/pchatterjee/Documents/git/vs_workflow/DiffDock/diffdock_run/pdbqt_scrubbed/Z878814608.pdbqt
     RDKit          3D

 28 31  0  0  1  0  0  0  0  0999 V2000
    5.7774   43.1265   49.6767 C   0  0  0  0  0  0  0  0  0  0  0  0
    6.5917   42.5609   48.7189 C   0  0  0  0  0  3  0  0  0  0  0  0
    6.1433   41.6133   47.8146 C   0  0  0  0  0  3  0  0  0  0  0  0
    4.8320   41.2074   47.8597 C   0  0  0  0  0  3  0  0  0  0  0  0
    3.9886   41.7521   48.8049 C   0  0  0  0  0  0  0  0  0  0  0  0
    4.4430   42.7082   49.7165 C   0  0  0  0  0  3  0  0  0  0  0  0
    6.2670   44.1093   50.6050 N   0  0  0  0  0  0  0  0  0  0  0  0
    7.6207   44.5260   50.5388 C   0  0  0  0  0  0  0  0  0  0  0  0
    8.3391   43.9627   49.6769 O   0  0  0  0  0  0  0  0  0  0  0  0
    8.1794   45.5669   51.4281 C   0  0  0  0  0  0  0  0  0  0  0  0
    9.4461   45.8154   51.7044 C   0  0  0  0  0  0  0  0  0  0  0  0
    9.5468   46.8887   52.6141 O   0  0  0  0  0  0  0  0  0  0  0  0
    8.2888   47.3358   52.9340 C   0  0  0  0  0  0  0  0  0  0  0  0
    7.3459   46.5536   52.1051 C   0  0  0  0  0  3  0  0  0  0  0  0
    7.7484   48.2117   53.7268 N   0  0  0  0  0  0  0  0  0  0  0  0
    6.2129   46.0507   52.9079 C   0  0  0  0  0  0  0  0  0  0  0  0
    6.2876   48.3600   53.7470 C   0  0  0  0  0  2  0  0  0  0  0  0
    5.6276   47.0562   53.7875 N   0  0  0  0  0  0  0  0  0  0  0  0
   10.6807   45.1399   51.2094 C   0  0  0  0  0  1  0  0  0  0  0  0
    5.7635   44.8827   52.8708 O   0  0  0  0  0  0  0  0  0  0  0  0
    2.5496   41.3469   48.9000 C   0  0  0  0  0  2  0  0  0  0  0  0
    1.9786   41.7033   50.1042 O   0  0  0  0  0  0  0  0  0  0  0  0
    0.6379   41.3976   50.1922 C   0  0  0  0  0  3  0  0  0  0  0  0
   -0.1660   42.6862   50.0373 C   0  0  0  0  0  2  0  0  0  0  0  0
    0.3199   40.4274   49.0761 C   0  0  0  0  0  2  0  0  0  0  0  0
   -1.3127   42.4759   49.0706 C   0  0  0  0  0  2  0  0  0  0  0  0
   -1.1233   40.0371   49.0127 C   0  0  0  0  0  2  0  0  0  0  0  0
   -2.0106   41.1747   49.4108 C   0  0  0  0  0  2  0  0  0  0  0  0
  1  6  1  0
  2  1  2  0
  2  3  1  0
  3  4  2  0
  4  5  1  0
  5 21  1  0
  6  5  2  0
  7  1  1  0
  8  7  1  0
  9  8  2  0
 10 11  2  0
 10  8  1  0
 11 19  1  0
 12 11  1  0
 13 14  1  0
 13 12  1  0
 14 16  1  0
 14 10  1  0
 15 13  2  0
 16 20  2  0
 17 18  1  0
 17 15  1  0
 18 16  1  0
 22 21  1  0
 22 23  1  0
 24 23  1  0
 25 23  1  0
 26 24  1  0
 27 25  1  0
 28 27  1  0
 28 26  1  0
M  RAD  8   2   2   3   2   4   2   6   2  14   2  17   3  19   2  21   3
M  RAD  6  23   2  24   3  25   3  26   3  27   3  28   3
M  END
>  <REMARK>  (1) 
 SMILES Cc1oc2nc[nH]c(=O)c2c1C(=O)Nc1cccc(COC2CCCCC2)c1
 SMILES IDX 15 1 16 2 17 3 18 4 19 5 28 6 14 7 12 8 13 9 11 11 2 12 3 13
 SMILES IDX 4 14 10 15 5 16 8 17 6 18 7 19 1 20 9 21 20 23 21 24 22 25
 SMILES IDX 23 26 27 27 24 28 26 29 25 30
 H PARENT 14 10 7 22

>  <TORSDO>  (1) 
F 5

$$$$
