/home/pchatterjee/Documents/git/vs_workflow/DiffDock/diffdock_run/pdbqt_scrubbed/Z878814608.pdbqt
     RDKit          3D

 28 31  0  0  1  0  0  0  0  0999 V2000
    5.0115   43.6036   50.7914 C   0  0  0  0  0  0  0  0  0  0  0  0
    3.6902   43.9364   51.0000 C   0  0  0  0  0  3  0  0  0  0  0  0
    2.6446   43.3155   50.3381 C   0  0  0  0  0  3  0  0  0  0  0  0
    2.9181   42.3220   49.4302 C   0  0  0  0  0  3  0  0  0  0  0  0
    4.2287   41.9630   49.1963 C   0  0  0  0  0  0  0  0  0  0  0  0
    5.2824   42.5908   49.8653 C   0  0  0  0  0  3  0  0  0  0  0  0
    6.0800   44.2635   51.4916 N   0  0  0  0  0  0  0  0  0  0  0  0
    7.1205   44.8887   50.7586 C   0  0  0  0  0  0  0  0  0  0  0  0
    7.1850   44.6173   49.5345 O   0  0  0  0  0  0  0  0  0  0  0  0
    8.0904   45.8145   51.3817 C   0  0  0  0  0  0  0  0  0  0  0  0
    9.4060   45.8186   51.2730 C   0  0  0  0  0  0  0  0  0  0  0  0
    9.9572   46.8646   52.0423 O   0  0  0  0  0  0  0  0  0  0  0  0
    8.9475   47.5494   52.6719 C   0  0  0  0  0  0  0  0  0  0  0  0
    7.6804   46.9520   52.1970 C   0  0  0  0  0  3  0  0  0  0  0  0
    8.8265   48.5234   53.5230 N   0  0  0  0  0  0  0  0  0  0  0  0
    6.7566   46.6870   53.3184 C   0  0  0  0  0  0  0  0  0  0  0  0
    7.4856   48.9499   53.9432 C   0  0  0  0  0  2  0  0  0  0  0  0
    6.6418   47.7979   54.2564 N   0  0  0  0  0  0  0  0  0  0  0  0
   10.3018   44.9118   50.4979 C   0  0  0  0  0  1  0  0  0  0  0  0
    6.1129   45.6268   53.4889 O   0  0  0  0  0  0  0  0  0  0  0  0
    4.5855   40.8867   48.2175 C   0  0  0  0  0  2  0  0  0  0  0  0
    5.0548   41.3928   47.0231 O   0  0  0  0  0  0  0  0  0  0  0  0
    4.7986   40.5806   45.9398 C   0  0  0  0  0  3  0  0  0  0  0  0
    3.7351   39.5601   46.3378 C   0  0  0  0  0  2  0  0  0  0  0  0
    4.3028   41.4649   44.8173 C   0  0  0  0  0  2  0  0  0  0  0  0
    2.6735   39.4625   45.2621 C   0  0  0  0  0  2  0  0  0  0  0  0
    3.9340   40.7121   43.5778 C   0  0  0  0  0  2  0  0  0  0  0  0
    3.3505   39.3743   43.9094 C   0  0  0  0  0  2  0  0  0  0  0  0
  1  6  1  0
  2  1  2  0
  2  3  1  0
  3  4  2  0
  4  5  1  0
  5 21  1  0
  6  5  2  0
  7  1  1  0
  8  7  1  0
  9  8  2  0
 10 11  2  0
 10  8  1  0
 11 19  1  0
 12 11  1  0
 13 14  1  0
 13 12  1  0
 14 16  1  0
 14 10  1  0
 15 13  2  0
 16 20  2  0
 17 18  1  0
 17 15  1  0
 18 16  1  0
 22 21  1  0
 22 23  1  0
 24 23  1  0
 25 23  1  0
 26 24  1  0
 27 25  1  0
 28 27  1  0
 28 26  1  0
M  RAD  8   2   2   3   2   4   2   6   2  14   2  17   3  19   2  21   3
M  RAD  6  23   2  24   3  25   3  26   3  27   3  28   3
M  END
>  <REMARK>  (1) 
 SMILES Cc1oc2nc[nH]c(=O)c2c1C(=O)Nc1cccc(COC2CCCCC2)c1
 SMILES IDX 15 1 16 2 17 3 18 4 19 5 28 6 14 7 12 8 13 9 11 11 2 12 3 13
 SMILES IDX 4 14 10 15 5 16 8 17 6 18 7 19 1 20 9 21 20 23 21 24 22 25
 SMILES IDX 23 26 27 27 24 28 26 29 25 30
 H PARENT 14 10 7 22

>  <TORSDO>  (1) 
F 5

$$$$
