/home/pchatterjee/Documents/git/vs_workflow/DiffDock/diffdock_run/pdbqt_scrubbed/Z878814608.pdbqt
     RDKit          3D

 28 31  0  0  1  0  0  0  0  0999 V2000
    5.6582   46.8074   53.7943 C   0  0  0  0  0  0  0  0  0  0  0  0
    4.6590   46.3328   54.6169 C   0  0  0  0  0  3  0  0  0  0  0  0
    4.1780   47.0436   55.7033 C   0  0  0  0  0  3  0  0  0  0  0  0
    4.7086   48.2778   55.9885 C   0  0  0  0  0  3  0  0  0  0  0  0
    5.7098   48.7841   55.1869 C   0  0  0  0  0  0  0  0  0  0  0  0
    6.1938   48.0652   54.0910 C   0  0  0  0  0  3  0  0  0  0  0  0
    6.1408   46.0498   52.6716 N   0  0  0  0  0  0  0  0  0  0  0  0
    7.5356   45.9566   52.4336 C   0  0  0  0  0  0  0  0  0  0  0  0
    8.2796   46.6236   53.1936 O   0  0  0  0  0  0  0  0  0  0  0  0
    8.1065   45.1245   51.3529 C   0  0  0  0  0  0  0  0  0  0  0  0
    9.2522   45.2813   50.7159 C   0  0  0  0  0  0  0  0  0  0  0  0
    9.4120   44.2737   49.7418 O   0  0  0  0  0  0  0  0  0  0  0  0
    8.3168   43.4461   49.7568 C   0  0  0  0  0  0  0  0  0  0  0  0
    7.4596   43.9103   50.8693 C   0  0  0  0  0  3  0  0  0  0  0  0
    7.8682   42.4266   49.0881 N   0  0  0  0  0  0  0  0  0  0  0  0
    6.0462   44.0124   50.4535 C   0  0  0  0  0  0  0  0  0  0  0  0
    6.5833   41.8255   49.4678 C   0  0  0  0  0  2  0  0  0  0  0  0
    5.5718   42.8539   49.7052 N   0  0  0  0  0  0  0  0  0  0  0  0
   10.3062   46.3224   50.8911 C   0  0  0  0  0  1  0  0  0  0  0  0
    5.2898   44.9799   50.6966 O   0  0  0  0  0  0  0  0  0  0  0  0
    6.3250   50.1241   55.4506 C   0  0  0  0  0  2  0  0  0  0  0  0
    5.7134   51.1357   54.7397 O   0  0  0  0  0  0  0  0  0  0  0  0
    6.1634   52.3951   55.0720 C   0  0  0  0  0  3  0  0  0  0  0  0
    5.0041   53.3785   54.9321 C   0  0  0  0  0  2  0  0  0  0  0  0
    6.6522   52.3391   56.5023 C   0  0  0  0  0  2  0  0  0  0  0  0
    4.9383   54.2870   56.1420 C   0  0  0  0  0  2  0  0  0  0  0  0
    7.1314   53.6567   57.0253 C   0  0  0  0  0  2  0  0  0  0  0  0
    6.3330   54.7882   56.4573 C   0  0  0  0  0  2  0  0  0  0  0  0
  1  6  1  0
  2  1  2  0
  2  3  1  0
  3  4  2  0
  4  5  1  0
  5 21  1  0
  6  5  2  0
  7  1  1  0
  8  7  1  0
  9  8  2  0
 10 11  2  0
 10  8  1  0
 11 19  1  0
 12 11  1  0
 13 14  1  0
 13 12  1  0
 14 16  1  0
 14 10  1  0
 15 13  2  0
 16 20  2  0
 17 18  1  0
 17 15  1  0
 18 16  1  0
 22 21  1  0
 22 23  1  0
 24 23  1  0
 25 23  1  0
 26 24  1  0
 27 25  1  0
 28 27  1  0
 28 26  1  0
M  RAD  8   2   2   3   2   4   2   6   2  14   2  17   3  19   2  21   3
M  RAD  6  23   2  24   3  25   3  26   3  27   3  28   3
M  END
>  <REMARK>  (1) 
 SMILES Cc1oc2nc[nH]c(=O)c2c1C(=O)Nc1cccc(COC2CCCCC2)c1
 SMILES IDX 15 1 16 2 17 3 18 4 19 5 28 6 14 7 12 8 13 9 11 11 2 12 3 13
 SMILES IDX 4 14 10 15 5 16 8 17 6 18 7 19 1 20 9 21 20 23 21 24 22 25
 SMILES IDX 23 26 27 27 24 28 26 29 25 30
 H PARENT 14 10 7 22

>  <TORSDO>  (1) 
F 5

$$$$
