/home/pchatterjee/Documents/git/vs_workflow/DiffDock/diffdock_run/pdbqt_scrubbed/Z878814608.pdbqt
     RDKit          3D

 28 31  0  0  1  0  0  0  0  0999 V2000
   13.6117   62.8529   83.2675 C   0  0  0  0  0  0  0  0  0  0  0  0
   14.6508   62.7714   82.3654 C   0  0  0  0  0  3  0  0  0  0  0  0
   15.6047   61.7687   82.4052 C   0  0  0  0  0  3  0  0  0  0  0  0
   15.5272   60.8044   83.3801 C   0  0  0  0  0  3  0  0  0  0  0  0
   14.5008   60.8545   84.2995 C   0  0  0  0  0  0  0  0  0  0  0  0
   13.5393   61.8672   84.2576 C   0  0  0  0  0  3  0  0  0  0  0  0
   12.6331   63.9045   83.2051 N   0  0  0  0  0  0  0  0  0  0  0  0
   11.2576   63.5949   83.3551 C   0  0  0  0  0  0  0  0  0  0  0  0
   10.9843   62.4378   83.7583 O   0  0  0  0  0  0  0  0  0  0  0  0
   10.1840   64.5672   83.0580 C   0  0  0  0  0  0  0  0  0  0  0  0
    8.8774   64.3927   83.1292 C   0  0  0  0  0  0  0  0  0  0  0  0
    8.2049   65.5719   82.7456 O   0  0  0  0  0  0  0  0  0  0  0  0
    9.1251   66.5337   82.4097 C   0  0  0  0  0  0  0  0  0  0  0  0
   10.4562   65.9507   82.6858 C   0  0  0  0  0  3  0  0  0  0  0  0
    9.1275   67.7455   81.9413 N   0  0  0  0  0  0  0  0  0  0  0  0
   11.3885   66.1821   81.5640 C   0  0  0  0  0  0  0  0  0  0  0  0
   10.4079   68.4306   81.7233 C   0  0  0  0  0  2  0  0  0  0  0  0
   11.3685   67.5506   81.0600 N   0  0  0  0  0  0  0  0  0  0  0  0
    8.0966   63.1863   83.5297 C   0  0  0  0  0  1  0  0  0  0  0  0
   12.1420   65.3181   81.0610 O   0  0  0  0  0  0  0  0  0  0  0  0
   14.3670   59.8298   85.3839 C   0  0  0  0  0  2  0  0  0  0  0  0
   13.8268   58.6452   84.9280 O   0  0  0  0  0  0  0  0  0  0  0  0
   13.8804   57.6223   85.8498 C   0  0  0  0  0  3  0  0  0  0  0  0
   14.0236   56.2997   85.1009 C   0  0  0  0  0  2  0  0  0  0  0  0
   15.0811   57.8723   86.7352 C   0  0  0  0  0  2  0  0  0  0  0  0
   15.1016   55.4494   85.7399 C   0  0  0  0  0  2  0  0  0  0  0  0
   15.3000   56.8087   87.7647 C   0  0  0  0  0  2  0  0  0  0  0  0
   14.9109   55.4609   87.2430 C   0  0  0  0  0  2  0  0  0  0  0  0
  1  6  1  0
  2  1  2  0
  2  3  1  0
  3  4  2  0
  4  5  1  0
  5 21  1  0
  6  5  2  0
  7  1  1  0
  8  7  1  0
  9  8  2  0
 10 11  2  0
 10  8  1  0
 11 19  1  0
 12 11  1  0
 13 14  1  0
 13 12  1  0
 14 16  1  0
 14 10  1  0
 15 13  2  0
 16 20  2  0
 17 18  1  0
 17 15  1  0
 18 16  1  0
 22 21  1  0
 22 23  1  0
 24 23  1  0
 25 23  1  0
 26 24  1  0
 27 25  1  0
 28 27  1  0
 28 26  1  0
M  RAD  8   2   2   3   2   4   2   6   2  14   2  17   3  19   2  21   3
M  RAD  6  23   2  24   3  25   3  26   3  27   3  28   3
M  END
>  <REMARK>  (1) 
 SMILES Cc1oc2nc[nH]c(=O)c2c1C(=O)Nc1cccc(COC2CCCCC2)c1
 SMILES IDX 15 1 16 2 17 3 18 4 19 5 28 6 14 7 12 8 13 9 11 11 2 12 3 13
 SMILES IDX 4 14 10 15 5 16 8 17 6 18 7 19 1 20 9 21 20 23 21 24 22 25
 SMILES IDX 23 26 27 27 24 28 26 29 25 30
 H PARENT 14 10 7 22

>  <TORSDO>  (1) 
F 5

$$$$
