/home/pchatterjee/Documents/git/vs_workflow/DiffDock/diffdock_run/pdbqt_scrubbed/Z878814608.pdbqt
     RDKit          3D

 28 31  0  0  1  0  0  0  0  0999 V2000
    5.4422   46.3196   53.7258 C   0  0  0  0  0  0  0  0  0  0  0  0
    4.8298   45.7415   54.8171 C   0  0  0  0  0  3  0  0  0  0  0  0
    4.2958   46.4805   55.8591 C   0  0  0  0  0  3  0  0  0  0  0  0
    4.3710   47.8513   55.8197 C   0  0  0  0  0  3  0  0  0  0  0  0
    4.9769   48.4638   54.7431 C   0  0  0  0  0  0  0  0  0  0  0  0
    5.5150   47.7162   53.6927 C   0  0  0  0  0  3  0  0  0  0  0  0
    5.9892   45.5300   52.6559 N   0  0  0  0  0  0  0  0  0  0  0  0
    7.3903   45.5154   52.4381 C   0  0  0  0  0  0  0  0  0  0  0  0
    8.0942   46.1302   53.2763 O   0  0  0  0  0  0  0  0  0  0  0  0
    8.0121   44.8199   51.2910 C   0  0  0  0  0  0  0  0  0  0  0  0
    9.2186   44.9923   50.7838 C   0  0  0  0  0  0  0  0  0  0  0  0
    9.4121   44.1359   49.6798 O   0  0  0  0  0  0  0  0  0  0  0  0
    8.2763   43.3929   49.4736 C   0  0  0  0  0  0  0  0  0  0  0  0
    7.3467   43.7406   50.5704 C   0  0  0  0  0  3  0  0  0  0  0  0
    7.8359   42.5202   48.6179 N   0  0  0  0  0  0  0  0  0  0  0  0
    5.9856   44.0017   50.0602 C   0  0  0  0  0  0  0  0  0  0  0  0
    6.4902   41.9582   48.7905 C   0  0  0  0  0  2  0  0  0  0  0  0
    5.5193   43.0057   49.1021 N   0  0  0  0  0  0  0  0  0  0  0  0
   10.3077   45.9197   51.2073 C   0  0  0  0  0  1  0  0  0  0  0  0
    5.2644   44.9708   50.3890 O   0  0  0  0  0  0  0  0  0  0  0  0
    5.0872   49.9546   54.6474 C   0  0  0  0  0  2  0  0  0  0  0  0
    4.4608   50.5992   55.6939 O   0  0  0  0  0  0  0  0  0  0  0  0
    4.2146   51.9335   55.4533 C   0  0  0  0  0  3  0  0  0  0  0  0
    5.4063   52.7459   55.9538 C   0  0  0  0  0  2  0  0  0  0  0  0
    4.0385   52.1000   53.9602 C   0  0  0  0  0  2  0  0  0  0  0  0
    5.8149   53.7709   54.9164 C   0  0  0  0  0  2  0  0  0  0  0  0
    3.8101   53.5170   53.5367 C   0  0  0  0  0  2  0  0  0  0  0  0
    4.5739   54.4709   54.4010 C   0  0  0  0  0  2  0  0  0  0  0  0
  1  6  1  0
  2  1  2  0
  2  3  1  0
  3  4  2  0
  4  5  1  0
  5 21  1  0
  6  5  2  0
  7  1  1  0
  8  7  1  0
  9  8  2  0
 10 11  2  0
 10  8  1  0
 11 19  1  0
 12 11  1  0
 13 14  1  0
 13 12  1  0
 14 16  1  0
 14 10  1  0
 15 13  2  0
 16 20  2  0
 17 18  1  0
 17 15  1  0
 18 16  1  0
 22 21  1  0
 22 23  1  0
 24 23  1  0
 25 23  1  0
 26 24  1  0
 27 25  1  0
 28 27  1  0
 28 26  1  0
M  RAD  8   2   2   3   2   4   2   6   2  14   2  17   3  19   2  21   3
M  RAD  6  23   2  24   3  25   3  26   3  27   3  28   3
M  END
>  <REMARK>  (1) 
 SMILES Cc1oc2nc[nH]c(=O)c2c1C(=O)Nc1cccc(COC2CCCCC2)c1
 SMILES IDX 15 1 16 2 17 3 18 4 19 5 28 6 14 7 12 8 13 9 11 11 2 12 3 13
 SMILES IDX 4 14 10 15 5 16 8 17 6 18 7 19 1 20 9 21 20 23 21 24 22 25
 SMILES IDX 23 26 27 27 24 28 26 29 25 30
 H PARENT 14 10 7 22

>  <TORSDO>  (1) 
F 5

$$$$
