/home/pchatterjee/Documents/git/vs_workflow/DiffDock/diffdock_run/pdbqt_scrubbed/Z878814608.pdbqt
     RDKit          3D

 28 31  0  0  1  0  0  0  0  0999 V2000
    5.4906   46.4437   53.6744 C   0  0  0  0  0  0  0  0  0  0  0  0
    4.7068   45.8178   54.6200 C   0  0  0  0  0  3  0  0  0  0  0  0
    4.1727   46.4801   55.7122 C   0  0  0  0  0  3  0  0  0  0  0  0
    4.4248   47.8202   55.8761 C   0  0  0  0  0  3  0  0  0  0  0  0
    5.2050   48.4789   54.9493 C   0  0  0  0  0  0  0  0  0  0  0  0
    5.7431   47.8087   53.8479 C   0  0  0  0  0  3  0  0  0  0  0  0
    6.0340   45.7336   52.5484 N   0  0  0  0  0  0  0  0  0  0  0  0
    7.4397   45.6343   52.3915 C   0  0  0  0  0  0  0  0  0  0  0  0
    8.1419   46.2666   53.2181 O   0  0  0  0  0  0  0  0  0  0  0  0
    8.0681   44.8347   51.3182 C   0  0  0  0  0  0  0  0  0  0  0  0
    9.2580   44.9919   50.7685 C   0  0  0  0  0  0  0  0  0  0  0  0
    9.4656   44.0217   49.7658 O   0  0  0  0  0  0  0  0  0  0  0  0
    8.3562   43.2187   49.6706 C   0  0  0  0  0  0  0  0  0  0  0  0
    7.4329   43.6560   50.7404 C   0  0  0  0  0  3  0  0  0  0  0  0
    7.9354   42.2377   48.9301 N   0  0  0  0  0  0  0  0  0  0  0  0
    6.0540   43.8064   50.2334 C   0  0  0  0  0  0  0  0  0  0  0  0
    6.6159   41.6502   49.1951 C   0  0  0  0  0  2  0  0  0  0  0  0
    5.6104   42.6903   49.4059 N   0  0  0  0  0  0  0  0  0  0  0  0
   10.3173   46.0012   51.0595 C   0  0  0  0  0  1  0  0  0  0  0  0
    5.3014   44.7797   50.4648 O   0  0  0  0  0  0  0  0  0  0  0  0
    5.5125   49.9393   55.0777 C   0  0  0  0  0  2  0  0  0  0  0  0
    4.9260   50.6924   54.0818 O   0  0  0  0  0  0  0  0  0  0  0  0
    5.0851   52.0509   54.2498 C   0  0  0  0  0  3  0  0  0  0  0  0
    4.0831   52.7727   53.3523 C   0  0  0  0  0  2  0  0  0  0  0  0
    4.8237   52.3612   55.7070 C   0  0  0  0  0  2  0  0  0  0  0  0
    3.3878   53.8752   54.1234 C   0  0  0  0  0  2  0  0  0  0  0  0
    4.9128   53.8183   56.0360 C   0  0  0  0  0  2  0  0  0  0  0  0
    4.4244   54.6615   54.9000 C   0  0  0  0  0  2  0  0  0  0  0  0
  1  6  1  0
  2  1  2  0
  2  3  1  0
  3  4  2  0
  4  5  1  0
  5 21  1  0
  6  5  2  0
  7  1  1  0
  8  7  1  0
  9  8  2  0
 10 11  2  0
 10  8  1  0
 11 19  1  0
 12 11  1  0
 13 14  1  0
 13 12  1  0
 14 16  1  0
 14 10  1  0
 15 13  2  0
 16 20  2  0
 17 18  1  0
 17 15  1  0
 18 16  1  0
 22 21  1  0
 22 23  1  0
 24 23  1  0
 25 23  1  0
 26 24  1  0
 27 25  1  0
 28 27  1  0
 28 26  1  0
M  RAD  8   2   2   3   2   4   2   6   2  14   2  17   3  19   2  21   3
M  RAD  6  23   2  24   3  25   3  26   3  27   3  28   3
M  END
>  <REMARK>  (1) 
 SMILES Cc1oc2nc[nH]c(=O)c2c1C(=O)Nc1cccc(COC2CCCCC2)c1
 SMILES IDX 15 1 16 2 17 3 18 4 19 5 28 6 14 7 12 8 13 9 11 11 2 12 3 13
 SMILES IDX 4 14 10 15 5 16 8 17 6 18 7 19 1 20 9 21 20 23 21 24 22 25
 SMILES IDX 23 26 27 27 24 28 26 29 25 30
 H PARENT 14 10 7 22

>  <TORSDO>  (1) 
F 5

$$$$
