/home/pchatterjee/Documents/git/vs_workflow/DiffDock/diffdock_run/pdbqt_scrubbed/Z878814608.pdbqt
     RDKit          3D

 28 31  0  0  1  0  0  0  0  0999 V2000
    5.8790   47.4038   54.0817 C   0  0  0  0  0  0  0  0  0  0  0  0
    4.8642   46.7824   54.7776 C   0  0  0  0  0  3  0  0  0  0  0  0
    4.3394   47.2886   55.9545 C   0  0  0  0  0  3  0  0  0  0  0  0
    4.8404   48.4609   56.4654 C   0  0  0  0  0  3  0  0  0  0  0  0
    5.8561   49.1099   55.7957 C   0  0  0  0  0  0  0  0  0  0  0  0
    6.3843   48.5973   54.6082 C   0  0  0  0  0  3  0  0  0  0  0  0
    6.4072   46.8577   52.8610 N   0  0  0  0  0  0  0  0  0  0  0  0
    5.7087   45.8189   52.1952 C   0  0  0  0  0  0  0  0  0  0  0  0
    4.4931   45.6884   52.4807 O   0  0  0  0  0  0  0  0  0  0  0  0
    6.3568   44.9236   51.2130 C   0  0  0  0  0  0  0  0  0  0  0  0
    5.8872   43.8083   50.6856 C   0  0  0  0  0  0  0  0  0  0  0  0
    6.8320   43.2507   49.7990 O   0  0  0  0  0  0  0  0  0  0  0  0
    7.9526   44.0433   49.7682 C   0  0  0  0  0  0  0  0  0  0  0  0
    7.6560   45.2165   50.6187 C   0  0  0  0  0  3  0  0  0  0  0  0
    9.1305   44.0285   49.2204 N   0  0  0  0  0  0  0  0  0  0  0  0
    8.7734   45.5111   51.5383 C   0  0  0  0  0  0  0  0  0  0  0  0
   10.0570   45.1389   49.4752 C   0  0  0  0  0  2  0  0  0  0  0  0
   10.0820   45.4871   50.8948 N   0  0  0  0  0  0  0  0  0  0  0  0
    4.5805   43.1240   50.9090 C   0  0  0  0  0  1  0  0  0  0  0  0
    8.6571   45.7626   52.7592 O   0  0  0  0  0  0  0  0  0  0  0  0
    6.4405   50.3910   56.3065 C   0  0  0  0  0  2  0  0  0  0  0  0
    6.6974   51.2947   55.2964 O   0  0  0  0  0  0  0  0  0  0  0  0
    7.3104   52.4498   55.7308 C   0  0  0  0  0  3  0  0  0  0  0  0
    6.3601   53.1781   56.6780 C   0  0  0  0  0  2  0  0  0  0  0  0
    8.5805   52.0475   56.4468 C   0  0  0  0  0  2  0  0  0  0  0  0
    7.1014   53.6311   57.9185 C   0  0  0  0  0  2  0  0  0  0  0  0
    9.3375   53.2030   57.0220 C   0  0  0  0  0  2  0  0  0  0  0  0
    8.4091   54.2739   57.5029 C   0  0  0  0  0  2  0  0  0  0  0  0
  1  6  1  0
  2  1  2  0
  2  3  1  0
  3  4  2  0
  4  5  1  0
  5 21  1  0
  6  5  2  0
  7  1  1  0
  8  7  1  0
  9  8  2  0
 10 11  2  0
 10  8  1  0
 11 19  1  0
 12 11  1  0
 13 14  1  0
 13 12  1  0
 14 16  1  0
 14 10  1  0
 15 13  2  0
 16 20  2  0
 17 18  1  0
 17 15  1  0
 18 16  1  0
 22 21  1  0
 22 23  1  0
 24 23  1  0
 25 23  1  0
 26 24  1  0
 27 25  1  0
 28 27  1  0
 28 26  1  0
M  RAD  8   2   2   3   2   4   2   6   2  14   2  17   3  19   2  21   3
M  RAD  6  23   2  24   3  25   3  26   3  27   3  28   3
M  END
>  <REMARK>  (1) 
 SMILES Cc1oc2nc[nH]c(=O)c2c1C(=O)Nc1cccc(COC2CCCCC2)c1
 SMILES IDX 15 1 16 2 17 3 18 4 19 5 28 6 14 7 12 8 13 9 11 11 2 12 3 13
 SMILES IDX 4 14 10 15 5 16 8 17 6 18 7 19 1 20 9 21 20 23 21 24 22 25
 SMILES IDX 23 26 27 27 24 28 26 29 25 30
 H PARENT 14 10 7 22

>  <TORSDO>  (1) 
F 5

$$$$
