/home/pchatterjee/Documents/git/vs_workflow/DiffDock/diffdock_run/pdbqt_scrubbed/Z878814608.pdbqt
     RDKit          3D

 28 31  0  0  1  0  0  0  0  0999 V2000
    4.1558   44.9504   52.9440 C   0  0  0  0  0  0  0  0  0  0  0  0
    3.2764   45.5924   53.7894 C   0  0  0  0  0  3  0  0  0  0  0  0
    1.9018   45.5206   53.6406 C   0  0  0  0  0  3  0  0  0  0  0  0
    1.3740   44.7814   52.6105 C   0  0  0  0  0  3  0  0  0  0  0  0
    2.2241   44.1256   51.7452 C   0  0  0  0  0  0  0  0  0  0  0  0
    3.6109   44.1993   51.8971 C   0  0  0  0  0  3  0  0  0  0  0  0
    5.5800   45.0404   53.1196 N   0  0  0  0  0  0  0  0  0  0  0  0
    6.1867   46.3083   53.3070 C   0  0  0  0  0  0  0  0  0  0  0  0
    5.4857   47.1879   53.8647 O   0  0  0  0  0  0  0  0  0  0  0  0
    7.5702   46.6022   52.8761 C   0  0  0  0  0  0  0  0  0  0  0  0
    8.2867   47.6872   53.1042 C   0  0  0  0  0  0  0  0  0  0  0  0
    9.5574   47.5695   52.5030 O   0  0  0  0  0  0  0  0  0  0  0  0
    9.6480   46.3601   51.8598 C   0  0  0  0  0  0  0  0  0  0  0  0
    8.3902   45.6383   52.1514 C   0  0  0  0  0  3  0  0  0  0  0  0
   10.4987   45.7277   51.1087 N   0  0  0  0  0  0  0  0  0  0  0  0
    7.8165   45.0407   50.9288 C   0  0  0  0  0  0  0  0  0  0  0  0
   10.1649   44.3855   50.6154 C   0  0  0  0  0  2  0  0  0  0  0  0
    8.7952   44.3382   50.1067 N   0  0  0  0  0  0  0  0  0  0  0  0
    7.9306   48.9245   53.8577 C   0  0  0  0  0  1  0  0  0  0  0  0
    6.6132   45.1052   50.5894 O   0  0  0  0  0  0  0  0  0  0  0  0
    1.7043   43.3053   50.6047 C   0  0  0  0  0  2  0  0  0  0  0  0
    1.5077   41.9843   50.9501 O   0  0  0  0  0  0  0  0  0  0  0  0
    1.2185   41.1696   49.8770 C   0  0  0  0  0  3  0  0  0  0  0  0
    0.1518   40.1641   50.3033 C   0  0  0  0  0  2  0  0  0  0  0  0
    0.7092   42.0539   48.7605 C   0  0  0  0  0  2  0  0  0  0  0  0
   -0.9337   40.0737   49.2511 C   0  0  0  0  0  2  0  0  0  0  0  0
    0.3050   41.2991   47.5334 C   0  0  0  0  0  2  0  0  0  0  0  0
   -0.2872   39.9702   47.8847 C   0  0  0  0  0  2  0  0  0  0  0  0
  1  6  1  0
  2  1  2  0
  2  3  1  0
  3  4  2  0
  4  5  1  0
  5 21  1  0
  6  5  2  0
  7  1  1  0
  8  7  1  0
  9  8  2  0
 10 11  2  0
 10  8  1  0
 11 19  1  0
 12 11  1  0
 13 14  1  0
 13 12  1  0
 14 16  1  0
 14 10  1  0
 15 13  2  0
 16 20  2  0
 17 18  1  0
 17 15  1  0
 18 16  1  0
 22 21  1  0
 22 23  1  0
 24 23  1  0
 25 23  1  0
 26 24  1  0
 27 25  1  0
 28 27  1  0
 28 26  1  0
M  RAD  8   2   2   3   2   4   2   6   2  14   2  17   3  19   2  21   3
M  RAD  6  23   2  24   3  25   3  26   3  27   3  28   3
M  END
>  <REMARK>  (1) 
 SMILES Cc1oc2nc[nH]c(=O)c2c1C(=O)Nc1cccc(COC2CCCCC2)c1
 SMILES IDX 15 1 16 2 17 3 18 4 19 5 28 6 14 7 12 8 13 9 11 11 2 12 3 13
 SMILES IDX 4 14 10 15 5 16 8 17 6 18 7 19 1 20 9 21 20 23 21 24 22 25
 SMILES IDX 23 26 27 27 24 28 26 29 25 30
 H PARENT 14 10 7 22

>  <TORSDO>  (1) 
F 5

$$$$
