/home/pchatterjee/Documents/git/vs_workflow/DiffDock/diffdock_run/pdbqt_scrubbed/Z2832196726.pdbqt
     RDKit          3D

 24 27  0  0  0  0  0  0  0  0999 V2000
    7.3949   48.5896   53.1897 O   0  0  0  0  0  0  0  0  0  0  0  0
    7.5398   47.1450   53.5274 S   0  0  2  0  0  0  0  0  0  0  0  0
    8.0987   47.0336   54.9131 O   0  0  0  0  0  0  0  0  0  0  0  0
    8.6608   46.4411   52.3616 C   0  0  0  0  0  0  0  0  0  0  0  0
   10.0039   46.6227   52.2347 C   0  0  0  0  0  3  0  0  0  0  0  0
    8.2392   45.5621   51.3831 C   0  0  0  0  0  0  0  0  0  0  0  0
   10.4436   45.8792   51.1982 N   0  0  0  0  0  0  0  0  0  0  0  0
    7.0091   45.0154   51.0281 C   0  0  0  0  0  3  0  0  0  0  0  0
    9.3866   45.2372   50.6800 C   0  0  0  0  0  0  0  0  0  0  0  0
    6.9689   44.1653   49.9855 N   0  0  0  0  0  0  0  0  0  0  0  0
    9.2919   44.3856   49.6497 N   0  0  0  0  0  0  0  0  0  0  0  0
    8.0975   43.8702   49.3241 C   0  0  0  0  0  3  0  0  0  0  0  0
    6.0113   46.3290   53.3988 N   0  0  0  0  0  0  0  0  0  0  0  0
    5.9165   45.0245   54.0285 C   0  0  0  0  0  2  0  0  0  0  0  0
    4.7012   44.2594   53.5516 C   0  0  0  0  0  3  0  0  0  0  0  0
    4.5789   42.9796   54.3850 C   0  0  0  0  0  2  0  0  0  0  0  0
    3.3932   44.7802   54.1438 C   0  0  0  0  0  2  0  0  0  0  0  0
    3.5193   43.6771   55.1987 C   0  0  0  0  0  2  0  0  0  0  0  0
    4.9137   46.9148   52.7108 C   0  0  0  0  0  0  0  0  0  0  0  0
    4.3615   46.3114   51.5882 C   0  0  0  0  0  3  0  0  0  0  0  0
    4.3276   48.1060   53.1026 C   0  0  0  0  0  3  0  0  0  0  0  0
    3.3033   46.8679   50.9176 C   0  0  0  0  0  3  0  0  0  0  0  0
    3.2675   48.6708   52.4371 C   0  0  0  0  0  3  0  0  0  0  0  0
    2.7446   48.0554   51.3360 C   0  0  0  0  0  3  0  0  0  0  0  0
  1  2  2  0
  2  4  1  0
  2  3  2  0
  4  6  1  0
  5  7  1  0
  5  4  2  0
  6  8  2  0
  7  9  1  0
  8 10  1  0
  9  6  1  0
  9 11  2  0
 11 12  1  0
 12 10  2  0
  2 13  1  1
 13 14  1  0
 15 14  1  0
 16 15  1  0
 17 15  1  0
 18 16  1  0
 18 17  1  0
 19 13  1  0
 19 20  2  0
 21 19  1  0
 22 20  1  0
 23 21  2  0
 23 24  1  0
 24 22  2  0
M  RAD  8   5   2   8   2  12   2  14   3  15   2  16   3  17   3  18   3
M  RAD  5  20   2  21   2  22   2  23   2  24   2
M  END
>  <REMARK>  (1) 
 SMILES O=S(=O)(c1c[nH]c2ncncc12)N(CC1CCC1)c1ccccc1
 SMILES IDX 1 1 2 2 3 3 4 4 5 5 12 6 6 7 11 8 7 9 10 10 8 11 9 12 13 14
 SMILES IDX 14 15 15 16 16 17 18 18 17 19 19 20 20 21 24 22 21 23 23 24
 SMILES IDX 22 25
 H PARENT 6 13

>  <TORSDO>  (1) 
F 5

$$$$
