/home/pchatterjee/Documents/git/vs_workflow/DiffDock/diffdock_run/pdbqt_scrubbed/Z2832196726.pdbqt
     RDKit          3D

 24 27  0  0  0  0  0  0  0  0999 V2000
    7.2228   48.7245   52.7548 O   0  0  0  0  0  0  0  0  0  0  0  0
    7.5227   47.3503   53.2481 S   0  0  2  0  0  0  0  0  0  0  0  0
    8.0874   47.4536   54.6320 O   0  0  0  0  0  0  0  0  0  0  0  0
    8.7159   46.6470   52.1559 C   0  0  0  0  0  0  0  0  0  0  0  0
   10.0630   46.8367   52.1086 C   0  0  0  0  0  3  0  0  0  0  0  0
    8.3591   45.7597   51.1593 C   0  0  0  0  0  0  0  0  0  0  0  0
   10.5687   46.0901   51.1049 N   0  0  0  0  0  0  0  0  0  0  0  0
    7.1560   45.2028   50.7346 C   0  0  0  0  0  3  0  0  0  0  0  0
    9.5486   45.4383   50.5282 C   0  0  0  0  0  0  0  0  0  0  0  0
    7.1837   44.3466   49.6967 N   0  0  0  0  0  0  0  0  0  0  0  0
    9.5212   44.5801   49.4993 N   0  0  0  0  0  0  0  0  0  0  0  0
    8.3517   44.0550   49.1059 C   0  0  0  0  0  3  0  0  0  0  0  0
    6.0919   46.3648   53.2252 N   0  0  0  0  0  0  0  0  0  0  0  0
    6.2449   44.9875   53.6576 C   0  0  0  0  0  2  0  0  0  0  0  0
    4.9073   44.3334   53.9272 C   0  0  0  0  0  3  0  0  0  0  0  0
    4.4618   43.6040   52.6557 C   0  0  0  0  0  2  0  0  0  0  0  0
    5.0282   42.9990   54.6605 C   0  0  0  0  0  2  0  0  0  0  0  0
    4.9419   42.3234   53.2888 C   0  0  0  0  0  2  0  0  0  0  0  0
    4.8387   46.8871   52.8034 C   0  0  0  0  0  0  0  0  0  0  0  0
    3.9519   47.4539   53.7097 C   0  0  0  0  0  3  0  0  0  0  0  0
    4.4200   46.8687   51.4841 C   0  0  0  0  0  3  0  0  0  0  0  0
    2.7413   47.9603   53.3134 C   0  0  0  0  0  3  0  0  0  0  0  0
    3.2093   47.3735   51.0780 C   0  0  0  0  0  3  0  0  0  0  0  0
    2.3570   47.9252   51.9910 C   0  0  0  0  0  3  0  0  0  0  0  0
  1  2  2  0
  2  4  1  0
  2  3  2  0
  4  6  1  0
  5  7  1  0
  5  4  2  0
  6  8  2  0
  7  9  1  0
  8 10  1  0
  9  6  1  0
  9 11  2  0
 11 12  1  0
 12 10  2  0
  2 13  1  1
 13 14  1  0
 15 14  1  0
 16 15  1  0
 17 15  1  0
 18 16  1  0
 18 17  1  0
 19 13  1  0
 19 20  2  0
 21 19  1  0
 22 20  1  0
 23 21  2  0
 23 24  1  0
 24 22  2  0
M  RAD  8   5   2   8   2  12   2  14   3  15   2  16   3  17   3  18   3
M  RAD  5  20   2  21   2  22   2  23   2  24   2
M  END
>  <REMARK>  (1) 
 SMILES O=S(=O)(c1c[nH]c2ncncc12)N(CC1CCC1)c1ccccc1
 SMILES IDX 1 1 2 2 3 3 4 4 5 5 12 6 6 7 11 8 7 9 10 10 8 11 9 12 13 14
 SMILES IDX 14 15 15 16 16 17 18 18 17 19 19 20 20 21 24 22 21 23 23 24
 SMILES IDX 22 25
 H PARENT 6 13

>  <TORSDO>  (1) 
F 5

$$$$
