/home/pchatterjee/Documents/git/vs_workflow/DiffDock/diffdock_run/pdbqt_scrubbed/Z2832196726.pdbqt
     RDKit          3D

 24 27  0  0  0  0  0  0  0  0999 V2000
    7.2673   48.5275   52.6797 O   0  0  0  0  0  0  0  0  0  0  0  0
    7.5686   47.1740   53.2266 S   0  0  2  0  0  0  0  0  0  0  0  0
    8.2218   47.3359   54.5653 O   0  0  0  0  0  0  0  0  0  0  0  0
    8.6750   46.3854   52.1019 C   0  0  0  0  0  0  0  0  0  0  0  0
   10.0336   46.4456   52.0397 C   0  0  0  0  0  3  0  0  0  0  0  0
    8.2223   45.5606   51.0907 C   0  0  0  0  0  0  0  0  0  0  0  0
   10.4527   45.6779   51.0124 N   0  0  0  0  0  0  0  0  0  0  0  0
    6.9660   45.1325   50.6707 C   0  0  0  0  0  3  0  0  0  0  0  0
    9.3676   45.1413   50.4356 C   0  0  0  0  0  0  0  0  0  0  0  0
    6.8984   44.3026   49.6134 N   0  0  0  0  0  0  0  0  0  0  0  0
    9.2450   44.3147   49.3881 N   0  0  0  0  0  0  0  0  0  0  0  0
    8.0256   43.9142   48.9997 C   0  0  0  0  0  3  0  0  0  0  0  0
    6.1186   46.2242   53.3457 N   0  0  0  0  0  0  0  0  0  0  0  0
    6.2183   44.9761   54.0803 C   0  0  0  0  0  2  0  0  0  0  0  0
    5.2704   44.9430   55.2594 C   0  0  0  0  0  3  0  0  0  0  0  0
    3.8432   45.1367   54.7369 C   0  0  0  0  0  2  0  0  0  0  0  0
    4.9221   43.5260   55.7104 C   0  0  0  0  0  2  0  0  0  0  0  0
    3.6569   43.6459   54.8558 C   0  0  0  0  0  2  0  0  0  0  0  0
    4.9003   46.6534   52.7517 C   0  0  0  0  0  0  0  0  0  0  0  0
    4.2517   45.8801   51.7975 C   0  0  0  0  0  3  0  0  0  0  0  0
    4.2845   47.8501   53.0754 C   0  0  0  0  0  3  0  0  0  0  0  0
    3.0768   46.2847   51.2187 C   0  0  0  0  0  3  0  0  0  0  0  0
    3.1078   48.2635   52.5010 C   0  0  0  0  0  3  0  0  0  0  0  0
    2.4918   47.4828   51.5652 C   0  0  0  0  0  3  0  0  0  0  0  0
  1  2  2  0
  2  4  1  0
  2  3  2  0
  4  6  1  0
  5  7  1  0
  5  4  2  0
  6  8  2  0
  7  9  1  0
  8 10  1  0
  9  6  1  0
  9 11  2  0
 11 12  1  0
 12 10  2  0
  2 13  1  1
 13 14  1  0
 15 14  1  0
 16 15  1  0
 17 15  1  0
 18 16  1  0
 18 17  1  0
 19 13  1  0
 19 20  2  0
 21 19  1  0
 22 20  1  0
 23 21  2  0
 23 24  1  0
 24 22  2  0
M  RAD  8   5   2   8   2  12   2  14   3  15   2  16   3  17   3  18   3
M  RAD  5  20   2  21   2  22   2  23   2  24   2
M  END
>  <REMARK>  (1) 
 SMILES O=S(=O)(c1c[nH]c2ncncc12)N(CC1CCC1)c1ccccc1
 SMILES IDX 1 1 2 2 3 3 4 4 5 5 12 6 6 7 11 8 7 9 10 10 8 11 9 12 13 14
 SMILES IDX 14 15 15 16 16 17 18 18 17 19 19 20 20 21 24 22 21 23 23 24
 SMILES IDX 22 25
 H PARENT 6 13

>  <TORSDO>  (1) 
F 5

$$$$
