/home/pchatterjee/Documents/git/vs_workflow/DiffDock/diffdock_run/pdbqt_scrubbed/Z2832196726.pdbqt
     RDKit          3D

 24 27  0  0  0  0  0  0  0  0999 V2000
    7.6445   48.3075   53.5553 O   0  0  0  0  0  0  0  0  0  0  0  0
    7.5931   46.8197   53.6312 S   0  0  2  0  0  0  0  0  0  0  0  0
    8.0393   46.3968   54.9975 O   0  0  0  0  0  0  0  0  0  0  0  0
    8.6989   46.1912   52.4092 C   0  0  0  0  0  0  0  0  0  0  0  0
   10.0320   46.4170   52.2509 C   0  0  0  0  0  3  0  0  0  0  0  0
    8.2741   45.3353   51.4118 C   0  0  0  0  0  0  0  0  0  0  0  0
   10.4622   45.7241   51.1761 N   0  0  0  0  0  0  0  0  0  0  0  0
    7.0503   44.7652   51.0722 C   0  0  0  0  0  3  0  0  0  0  0  0
    9.4091   45.0698   50.6650 C   0  0  0  0  0  0  0  0  0  0  0  0
    7.0038   43.9519   50.0010 N   0  0  0  0  0  0  0  0  0  0  0  0
    9.3086   44.2528   49.6076 N   0  0  0  0  0  0  0  0  0  0  0  0
    8.1204   43.7140   49.2976 C   0  0  0  0  0  3  0  0  0  0  0  0
    5.9906   46.2432   53.2870 N   0  0  0  0  0  0  0  0  0  0  0  0
    5.7229   44.8490   53.5899 C   0  0  0  0  0  2  0  0  0  0  0  0
    4.4125   44.3872   52.9904 C   0  0  0  0  0  3  0  0  0  0  0  0
    4.4794   42.8690   52.7955 C   0  0  0  0  0  2  0  0  0  0  0  0
    3.3053   44.2138   54.0281 C   0  0  0  0  0  2  0  0  0  0  0  0
    3.6715   42.7271   54.0599 C   0  0  0  0  0  2  0  0  0  0  0  0
    4.9972   47.0986   52.7368 C   0  0  0  0  0  0  0  0  0  0  0  0
    4.2380   46.7103   51.6405 C   0  0  0  0  0  3  0  0  0  0  0  0
    4.7204   48.3563   53.2445 C   0  0  0  0  0  3  0  0  0  0  0  0
    3.2779   47.5274   51.1024 C   0  0  0  0  0  3  0  0  0  0  0  0
    3.7606   49.1816   52.7122 C   0  0  0  0  0  3  0  0  0  0  0  0
    3.0290   48.7737   51.6338 C   0  0  0  0  0  3  0  0  0  0  0  0
  1  2  2  0
  2  4  1  0
  2  3  2  0
  4  6  1  0
  5  7  1  0
  5  4  2  0
  6  8  2  0
  7  9  1  0
  8 10  1  0
  9  6  1  0
  9 11  2  0
 11 12  1  0
 12 10  2  0
  2 13  1  6
 13 14  1  0
 15 14  1  0
 16 15  1  0
 17 15  1  0
 18 16  1  0
 18 17  1  0
 19 13  1  0
 19 20  2  0
 21 19  1  0
 22 20  1  0
 23 21  2  0
 23 24  1  0
 24 22  2  0
M  RAD  8   5   2   8   2  12   2  14   3  15   2  16   3  17   3  18   3
M  RAD  5  20   2  21   2  22   2  23   2  24   2
M  END
>  <REMARK>  (1) 
 SMILES O=S(=O)(c1c[nH]c2ncncc12)N(CC1CCC1)c1ccccc1
 SMILES IDX 1 1 2 2 3 3 4 4 5 5 12 6 6 7 11 8 7 9 10 10 8 11 9 12 13 14
 SMILES IDX 14 15 15 16 16 17 18 18 17 19 19 20 20 21 24 22 21 23 23 24
 SMILES IDX 22 25
 H PARENT 6 13

>  <TORSDO>  (1) 
F 5

$$$$
