/home/pchatterjee/Documents/git/vs_workflow/DiffDock/diffdock_run/pdbqt_scrubbed/Z2832196726.pdbqt
     RDKit          3D

 24 27  0  0  0  0  0  0  0  0999 V2000
    7.5201   48.5091   53.0388 O   0  0  0  0  0  0  0  0  0  0  0  0
    7.6209   47.0515   53.3339 S   0  0  2  0  0  0  0  0  0  0  0  0
    8.1637   46.8826   54.7202 O   0  0  0  0  0  0  0  0  0  0  0  0
    8.7320   46.3510   52.1567 C   0  0  0  0  0  0  0  0  0  0  0  0
   10.0867   46.4577   52.0759 C   0  0  0  0  0  3  0  0  0  0  0  0
    8.2881   45.5588   51.1160 C   0  0  0  0  0  0  0  0  0  0  0  0
   10.5119   45.7515   51.0077 N   0  0  0  0  0  0  0  0  0  0  0  0
    7.0388   45.1100   50.6966 C   0  0  0  0  0  3  0  0  0  0  0  0
    9.4344   45.2070   50.4242 C   0  0  0  0  0  0  0  0  0  0  0  0
    6.9790   44.3273   49.6035 N   0  0  0  0  0  0  0  0  0  0  0  0
    9.3198   44.4253   49.3418 N   0  0  0  0  0  0  0  0  0  0  0  0
    8.1071   44.0037   48.9547 C   0  0  0  0  0  3  0  0  0  0  0  0
    6.0710   46.2838   53.1682 N   0  0  0  0  0  0  0  0  0  0  0  0
    5.9505   44.9410   53.7062 C   0  0  0  0  0  2  0  0  0  0  0  0
    4.6522   44.7545   54.4609 C   0  0  0  0  0  3  0  0  0  0  0  0
    3.6003   44.2159   53.4859 C   0  0  0  0  0  2  0  0  0  0  0  0
    4.5996   43.4492   55.2521 C   0  0  0  0  0  2  0  0  0  0  0  0
    3.8495   42.8454   54.0612 C   0  0  0  0  0  2  0  0  0  0  0  0
    4.9810   46.9429   52.5368 C   0  0  0  0  0  0  0  0  0  0  0  0
    4.5991   48.2249   52.9108 C   0  0  0  0  0  3  0  0  0  0  0  0
    4.2360   46.3655   51.5231 C   0  0  0  0  0  3  0  0  0  0  0  0
    3.5497   48.8692   52.3085 C   0  0  0  0  0  3  0  0  0  0  0  0
    3.1834   47.0032   50.9140 C   0  0  0  0  0  3  0  0  0  0  0  0
    2.8299   48.2637   51.3021 C   0  0  0  0  0  3  0  0  0  0  0  0
  1  2  2  0
  2  4  1  0
  2  3  2  0
  4  6  1  0
  5  7  1  0
  5  4  2  0
  6  8  2  0
  7  9  1  0
  8 10  1  0
  9  6  1  0
  9 11  2  0
 11 12  1  0
 12 10  2  0
  2 13  1  1
 13 14  1  0
 15 14  1  0
 16 15  1  0
 17 15  1  0
 18 16  1  0
 18 17  1  0
 19 13  1  0
 19 20  2  0
 21 19  1  0
 22 20  1  0
 23 21  2  0
 23 24  1  0
 24 22  2  0
M  RAD  8   5   2   8   2  12   2  14   3  15   2  16   3  17   3  18   3
M  RAD  5  20   2  21   2  22   2  23   2  24   2
M  END
>  <REMARK>  (1) 
 SMILES O=S(=O)(c1c[nH]c2ncncc12)N(CC1CCC1)c1ccccc1
 SMILES IDX 1 1 2 2 3 3 4 4 5 5 12 6 6 7 11 8 7 9 10 10 8 11 9 12 13 14
 SMILES IDX 14 15 15 16 16 17 18 18 17 19 19 20 20 21 24 22 21 23 23 24
 SMILES IDX 22 25
 H PARENT 6 13

>  <TORSDO>  (1) 
F 5

$$$$
