/home/pchatterjee/Documents/git/vs_workflow/DiffDock/diffdock_run/pdbqt_scrubbed/Z2832196726.pdbqt
     RDKit          3D

 24 27  0  0  0  0  0  0  0  0999 V2000
    6.7582   48.5163   52.1471 O   0  0  0  0  0  0  0  0  0  0  0  0
    7.2019   47.4271   53.0628 S   0  0  2  0  0  0  0  0  0  0  0  0
    7.8222   48.0486   54.2769 O   0  0  0  0  0  0  0  0  0  0  0  0
    8.3977   46.4636   52.1952 C   0  0  0  0  0  0  0  0  0  0  0  0
    9.7492   46.4173   52.3509 C   0  0  0  0  0  3  0  0  0  0  0  0
    8.0386   45.5894   51.1879 C   0  0  0  0  0  0  0  0  0  0  0  0
   10.2554   45.5339   51.4655 N   0  0  0  0  0  0  0  0  0  0  0  0
    6.8309   45.2205   50.6017 C   0  0  0  0  0  3  0  0  0  0  0  0
    9.2312   45.0309   50.7611 C   0  0  0  0  0  0  0  0  0  0  0  0
    6.8574   44.3088   49.6122 N   0  0  0  0  0  0  0  0  0  0  0  0
    9.2024   44.1273   49.7720 N   0  0  0  0  0  0  0  0  0  0  0  0
    8.0286   43.7858   49.2209 C   0  0  0  0  0  3  0  0  0  0  0  0
    5.8642   46.4055   53.4938 N   0  0  0  0  0  0  0  0  0  0  0  0
    5.6638   46.1610   54.9107 C   0  0  0  0  0  2  0  0  0  0  0  0
    4.4373   45.3119   55.1644 C   0  0  0  0  0  3  0  0  0  0  0  0
    4.3124   45.0835   56.6743 C   0  0  0  0  0  2  0  0  0  0  0  0
    3.1398   46.1176   55.1703 C   0  0  0  0  0  2  0  0  0  0  0  0
    3.2669   46.1689   56.6957 C   0  0  0  0  0  2  0  0  0  0  0  0
    5.0134   45.8413   52.5044 C   0  0  0  0  0  0  0  0  0  0  0  0
    4.1204   46.6276   51.7878 C   0  0  0  0  0  3  0  0  0  0  0  0
    5.0137   44.4932   52.1899 C   0  0  0  0  0  3  0  0  0  0  0  0
    3.2958   46.0935   50.8319 C   0  0  0  0  0  3  0  0  0  0  0  0
    4.1914   43.9495   51.2339 C   0  0  0  0  0  3  0  0  0  0  0  0
    3.3230   44.7465   50.5447 C   0  0  0  0  0  3  0  0  0  0  0  0
  1  2  2  0
  2  4  1  0
  2  3  2  0
  4  6  1  0
  5  7  1  0
  5  4  2  0
  6  8  2  0
  7  9  1  0
  8 10  1  0
  9  6  1  0
  9 11  2  0
 11 12  1  0
 12 10  2  0
  2 13  1  1
 13 14  1  0
 15 14  1  0
 16 15  1  0
 17 15  1  0
 18 16  1  0
 18 17  1  0
 19 13  1  0
 19 20  2  0
 21 19  1  0
 22 20  1  0
 23 21  2  0
 23 24  1  0
 24 22  2  0
M  RAD  8   5   2   8   2  12   2  14   3  15   2  16   3  17   3  18   3
M  RAD  5  20   2  21   2  22   2  23   2  24   2
M  END
>  <REMARK>  (1) 
 SMILES O=S(=O)(c1c[nH]c2ncncc12)N(CC1CCC1)c1ccccc1
 SMILES IDX 1 1 2 2 3 3 4 4 5 5 12 6 6 7 11 8 7 9 10 10 8 11 9 12 13 14
 SMILES IDX 14 15 15 16 16 17 18 18 17 19 19 20 20 21 24 22 21 23 23 24
 SMILES IDX 22 25
 H PARENT 6 13

>  <TORSDO>  (1) 
F 5

$$$$
