/home/pchatterjee/Documents/git/vs_workflow/DiffDock/diffdock_run/pdbqt_scrubbed/Z2832196726.pdbqt
     RDKit          3D

 24 27  0  0  0  0  0  0  0  0999 V2000
    7.4748   48.5620   53.3723 O   0  0  0  0  0  0  0  0  0  0  0  0
    7.4635   47.0775   53.5066 S   0  0  2  0  0  0  0  0  0  0  0  0
    7.8949   46.7217   54.8966 O   0  0  0  0  0  0  0  0  0  0  0  0
    8.6098   46.4333   52.3310 C   0  0  0  0  0  0  0  0  0  0  0  0
    9.9388   46.6911   52.1878 C   0  0  0  0  0  3  0  0  0  0  0  0
    8.2284   45.5268   51.3612 C   0  0  0  0  0  0  0  0  0  0  0  0
   10.4088   45.9689   51.1495 N   0  0  0  0  0  0  0  0  0  0  0  0
    7.0278   44.9086   51.0227 C   0  0  0  0  0  3  0  0  0  0  0  0
    9.3845   45.2648   50.6462 C   0  0  0  0  0  0  0  0  0  0  0  0
    7.0248   44.0526   49.9843 N   0  0  0  0  0  0  0  0  0  0  0  0
    9.3273   44.4041   49.6208 N   0  0  0  0  0  0  0  0  0  0  0  0
    8.1609   43.8194   49.3112 C   0  0  0  0  0  3  0  0  0  0  0  0
    5.8846   46.4422   53.1566 N   0  0  0  0  0  0  0  0  0  0  0  0
    5.6891   45.0230   53.3909 C   0  0  0  0  0  2  0  0  0  0  0  0
    4.5111   44.7634   54.3046 C   0  0  0  0  0  3  0  0  0  0  0  0
    3.3614   44.2016   53.4620 C   0  0  0  0  0  2  0  0  0  0  0  0
    4.6165   43.4395   55.0588 C   0  0  0  0  0  2  0  0  0  0  0  0
    3.7396   42.8307   53.9607 C   0  0  0  0  0  2  0  0  0  0  0  0
    4.8423   47.2754   52.6662 C   0  0  0  0  0  0  0  0  0  0  0  0
    5.0972   48.5709   52.2353 C   0  0  0  0  0  3  0  0  0  0  0  0
    3.5233   46.8633   52.5846 C   0  0  0  0  0  3  0  0  0  0  0  0
    4.0994   49.3824   51.7608 C   0  0  0  0  0  3  0  0  0  0  0  0
    2.5175   47.6691   52.1107 C   0  0  0  0  0  3  0  0  0  0  0  0
    2.7970   48.9388   51.6935 C   0  0  0  0  0  3  0  0  0  0  0  0
  1  2  2  0
  2  4  1  0
  2  3  2  0
  4  6  1  0
  5  7  1  0
  5  4  2  0
  6  8  2  0
  7  9  1  0
  8 10  1  0
  9  6  1  0
  9 11  2  0
 11 12  1  0
 12 10  2  0
  2 13  1  6
 13 14  1  0
 15 14  1  0
 16 15  1  0
 17 15  1  0
 18 16  1  0
 18 17  1  0
 19 13  1  0
 19 20  2  0
 21 19  1  0
 22 20  1  0
 23 21  2  0
 23 24  1  0
 24 22  2  0
M  RAD  8   5   2   8   2  12   2  14   3  15   2  16   3  17   3  18   3
M  RAD  5  20   2  21   2  22   2  23   2  24   2
M  END
>  <REMARK>  (1) 
 SMILES O=S(=O)(c1c[nH]c2ncncc12)N(CC1CCC1)c1ccccc1
 SMILES IDX 1 1 2 2 3 3 4 4 5 5 12 6 6 7 11 8 7 9 10 10 8 11 9 12 13 14
 SMILES IDX 14 15 15 16 16 17 18 18 17 19 19 20 20 21 24 22 21 23 23 24
 SMILES IDX 22 25
 H PARENT 6 13

>  <TORSDO>  (1) 
F 5

$$$$
