/home/pchatterjee/Documents/git/vs_workflow/DiffDock/diffdock_run/pdbqt_scrubbed/Z2832196726.pdbqt
     RDKit          3D

 24 27  0  0  0  0  0  0  0  0999 V2000
    8.4395   47.9937   54.5165 O   0  0  0  0  0  0  0  0  0  0  0  0
    7.7761   46.8417   53.8422 S   0  0  2  0  0  0  0  0  0  0  0  0
    7.7514   45.6835   54.7924 O   0  0  0  0  0  0  0  0  0  0  0  0
    8.7370   46.4395   52.4188 C   0  0  0  0  0  0  0  0  0  0  0  0
    9.9355   46.9423   52.0140 C   0  0  0  0  0  3  0  0  0  0  0  0
    8.3230   45.4922   51.5029 C   0  0  0  0  0  0  0  0  0  0  0  0
   10.2909   46.3355   50.8625 N   0  0  0  0  0  0  0  0  0  0  0  0
    7.2078   44.6664   51.3909 C   0  0  0  0  0  3  0  0  0  0  0  0
    9.3247   45.4606   50.5479 C   0  0  0  0  0  0  0  0  0  0  0  0
    7.1331   43.8401   50.3313 N   0  0  0  0  0  0  0  0  0  0  0  0
    9.2016   44.6194   49.5121 N   0  0  0  0  0  0  0  0  0  0  0  0
    8.1195   43.8324   49.4230 C   0  0  0  0  0  3  0  0  0  0  0  0
    6.1714   47.2707   53.3326 N   0  0  0  0  0  0  0  0  0  0  0  0
    5.3525   46.1994   52.7951 C   0  0  0  0  0  2  0  0  0  0  0  0
    3.9661   46.1961   53.4015 C   0  0  0  0  0  3  0  0  0  0  0  0
    2.9551   46.5183   52.2963 C   0  0  0  0  0  2  0  0  0  0  0  0
    3.3763   44.7944   53.5440 C   0  0  0  0  0  2  0  0  0  0  0  0
    2.6586   45.0429   52.2141 C   0  0  0  0  0  2  0  0  0  0  0  0
    5.6914   48.6046   53.4395 C   0  0  0  0  0  0  0  0  0  0  0  0
    5.0211   49.0409   54.5751 C   0  0  0  0  0  3  0  0  0  0  0  0
    5.8543   49.5468   52.4386 C   0  0  0  0  0  3  0  0  0  0  0  0
    4.5544   50.3248   54.6883 C   0  0  0  0  0  3  0  0  0  0  0  0
    5.3902   50.8349   52.5431 C   0  0  0  0  0  3  0  0  0  0  0  0
    4.7345   51.2365   53.6715 C   0  0  0  0  0  3  0  0  0  0  0  0
  1  2  2  0
  2  4  1  0
  2  3  2  0
  4  6  1  0
  5  7  1  0
  5  4  2  0
  6  8  2  0
  7  9  1  0
  8 10  1  0
  9  6  1  0
  9 11  2  0
 11 12  1  0
 12 10  2  0
  2 13  1  6
 13 14  1  0
 15 14  1  0
 16 15  1  0
 17 15  1  0
 18 16  1  0
 18 17  1  0
 19 13  1  0
 19 20  2  0
 21 19  1  0
 22 20  1  0
 23 21  2  0
 23 24  1  0
 24 22  2  0
M  RAD  8   5   2   8   2  12   2  14   3  15   2  16   3  17   3  18   3
M  RAD  5  20   2  21   2  22   2  23   2  24   2
M  END
>  <REMARK>  (1) 
 SMILES O=S(=O)(c1c[nH]c2ncncc12)N(CC1CCC1)c1ccccc1
 SMILES IDX 1 1 2 2 3 3 4 4 5 5 12 6 6 7 11 8 7 9 10 10 8 11 9 12 13 14
 SMILES IDX 14 15 15 16 16 17 18 18 17 19 19 20 20 21 24 22 21 23 23 24
 SMILES IDX 22 25
 H PARENT 6 13

>  <TORSDO>  (1) 
F 5

$$$$
