/home/pchatterjee/Documents/git/vs_workflow/DiffDock/diffdock_run/pdbqt_scrubbed/Z2832196726.pdbqt
     RDKit          3D

 24 27  0  0  0  0  0  0  0  0999 V2000
    4.6094   47.3082   50.5287 O   0  0  0  0  0  0  0  0  0  0  0  0
    5.2427   46.3779   51.5060 S   0  0  2  0  0  0  0  0  0  0  0  0
    6.0017   47.1883   52.5120 O   0  0  0  0  0  0  0  0  0  0  0  0
    6.3468   45.3385   50.6051 C   0  0  0  0  0  0  0  0  0  0  0  0
    6.0688   44.3486   49.7129 C   0  0  0  0  0  3  0  0  0  0  0  0
    7.7178   45.4443   50.7349 C   0  0  0  0  0  0  0  0  0  0  0  0
    7.2320   43.8244   49.2741 N   0  0  0  0  0  0  0  0  0  0  0  0
    8.5666   46.2560   51.4824 C   0  0  0  0  0  3  0  0  0  0  0  0
    8.2301   44.4790   49.8850 C   0  0  0  0  0  0  0  0  0  0  0  0
    9.8940   46.0751   51.3548 N   0  0  0  0  0  0  0  0  0  0  0  0
    9.5598   44.3397   49.7946 N   0  0  0  0  0  0  0  0  0  0  0  0
   10.3597   45.1317   50.5233 C   0  0  0  0  0  3  0  0  0  0  0  0
    4.0412   45.3862   52.2756 N   0  0  0  0  0  0  0  0  0  0  0  0
    3.2787   44.5025   51.4126 C   0  0  0  0  0  2  0  0  0  0  0  0
    2.3789   43.5821   52.2082 C   0  0  0  0  0  3  0  0  0  0  0  0
    0.9249   43.9987   51.9638 C   0  0  0  0  0  2  0  0  0  0  0  0
    2.1217   42.2461   51.5141 C   0  0  0  0  0  2  0  0  0  0  0  0
    0.8207   42.8571   50.9854 C   0  0  0  0  0  2  0  0  0  0  0  0
    3.8215   45.4426   53.6790 C   0  0  0  0  0  0  0  0  0  0  0  0
    2.9287   46.3509   54.2331 C   0  0  0  0  0  3  0  0  0  0  0  0
    4.4692   44.6122   54.5773 C   0  0  0  0  0  3  0  0  0  0  0  0
    2.7095   46.4135   55.5848 C   0  0  0  0  0  3  0  0  0  0  0  0
    4.2560   44.6677   55.9327 C   0  0  0  0  0  3  0  0  0  0  0  0
    3.3722   45.5709   56.4500 C   0  0  0  0  0  3  0  0  0  0  0  0
  1  2  2  0
  2  4  1  0
  2  3  2  0
  4  6  1  0
  5  7  1  0
  5  4  2  0
  6  8  2  0
  7  9  1  0
  8 10  1  0
  9  6  1  0
  9 11  2  0
 11 12  1  0
 12 10  2  0
  2 13  1  1
 13 14  1  0
 15 14  1  0
 16 15  1  0
 17 15  1  0
 18 16  1  0
 18 17  1  0
 19 13  1  0
 19 20  2  0
 21 19  1  0
 22 20  1  0
 23 21  2  0
 23 24  1  0
 24 22  2  0
M  RAD  8   5   2   8   2  12   2  14   3  15   2  16   3  17   3  18   3
M  RAD  5  20   2  21   2  22   2  23   2  24   2
M  END
>  <REMARK>  (1) 
 SMILES O=S(=O)(c1c[nH]c2ncncc12)N(CC1CCC1)c1ccccc1
 SMILES IDX 1 1 2 2 3 3 4 4 5 5 12 6 6 7 11 8 7 9 10 10 8 11 9 12 13 14
 SMILES IDX 14 15 15 16 16 17 18 18 17 19 19 20 20 21 24 22 21 23 23 24
 SMILES IDX 22 25
 H PARENT 6 13

>  <TORSDO>  (1) 
F 5

$$$$
