/home/pchatterjee/Documents/git/vs_workflow/DiffDock/diffdock_run/pdbqt_scrubbed/Z2832196726.pdbqt
     RDKit          3D

 24 27  0  0  0  0  0  0  0  0999 V2000
    7.1657   48.6200   52.6990 O   0  0  0  0  0  0  0  0  0  0  0  0
    7.4654   47.3135   53.3510 S   0  0  2  0  0  0  0  0  0  0  0  0
    8.1120   47.5799   54.6761 O   0  0  0  0  0  0  0  0  0  0  0  0
    8.5779   46.4411   52.2964 C   0  0  0  0  0  0  0  0  0  0  0  0
    9.9283   46.5625   52.1738 C   0  0  0  0  0  3  0  0  0  0  0  0
    8.1403   45.4675   51.4199 C   0  0  0  0  0  0  0  0  0  0  0  0
   10.3568   45.6883   51.2397 N   0  0  0  0  0  0  0  0  0  0  0  0
    6.8972   44.9234   51.1087 C   0  0  0  0  0  3  0  0  0  0  0  0
    9.2857   45.0248   50.7808 C   0  0  0  0  0  0  0  0  0  0  0  0
    6.8426   43.9585   50.1721 N   0  0  0  0  0  0  0  0  0  0  0  0
    9.1764   44.0616   49.8556 N   0  0  0  0  0  0  0  0  0  0  0  0
    7.9697   43.5509   49.5707 C   0  0  0  0  0  3  0  0  0  0  0  0
    6.0156   46.3741   53.5367 N   0  0  0  0  0  0  0  0  0  0  0  0
    5.9906   45.4294   54.6387 C   0  0  0  0  0  2  0  0  0  0  0  0
    4.6021   44.8734   54.8682 C   0  0  0  0  0  3  0  0  0  0  0  0
    4.5822   44.1719   56.2301 C   0  0  0  0  0  2  0  0  0  0  0  0
    3.6141   45.9184   55.3825 C   0  0  0  0  0  2  0  0  0  0  0  0
    3.9185   45.4028   56.7921 C   0  0  0  0  0  2  0  0  0  0  0  0
    4.9141   46.5278   52.6512 C   0  0  0  0  0  0  0  0  0  0  0  0
    4.4878   45.4822   51.8424 C   0  0  0  0  0  3  0  0  0  0  0  0
    4.2007   47.7082   52.5336 C   0  0  0  0  0  3  0  0  0  0  0  0
    3.4270   45.6200   50.9852 C   0  0  0  0  0  3  0  0  0  0  0  0
    3.1369   47.8553   51.6778 C   0  0  0  0  0  3  0  0  0  0  0  0
    2.7395   46.8102   50.8941 C   0  0  0  0  0  3  0  0  0  0  0  0
  1  2  2  0
  2  4  1  0
  2  3  2  0
  4  6  1  0
  5  7  1  0
  5  4  2  0
  6  8  2  0
  7  9  1  0
  8 10  1  0
  9  6  1  0
  9 11  2  0
 11 12  1  0
 12 10  2  0
  2 13  1  1
 13 14  1  0
 15 14  1  0
 16 15  1  0
 17 15  1  0
 18 16  1  0
 18 17  1  0
 19 13  1  0
 19 20  2  0
 21 19  1  0
 22 20  1  0
 23 21  2  0
 23 24  1  0
 24 22  2  0
M  RAD  8   5   2   8   2  12   2  14   3  15   2  16   3  17   3  18   3
M  RAD  5  20   2  21   2  22   2  23   2  24   2
M  END
>  <REMARK>  (1) 
 SMILES O=S(=O)(c1c[nH]c2ncncc12)N(CC1CCC1)c1ccccc1
 SMILES IDX 1 1 2 2 3 3 4 4 5 5 12 6 6 7 11 8 7 9 10 10 8 11 9 12 13 14
 SMILES IDX 14 15 15 16 16 17 18 18 17 19 19 20 20 21 24 22 21 23 23 24
 SMILES IDX 22 25
 H PARENT 6 13

>  <TORSDO>  (1) 
F 5

$$$$
