/home/pchatterjee/Documents/git/vs_workflow/DiffDock/diffdock_run/pdbqt_scrubbed/5329563.pdbqt
     RDKit          3D

 30 33  0  0  1  0  0  0  0  0999 V2000
    7.6494   42.4936   48.8336 N   0  0  0  0  0  0  0  0  0  0  0  0
    6.3552   41.8823   48.7138 C   0  0  0  0  0  0  0  0  0  0  0  0
    3.8601   40.7196   48.5082 C   0  0  0  0  0  0  0  0  0  0  0  0
    4.7970   40.4831   47.5013 C   0  0  0  0  0  3  0  0  0  0  0  0
    4.1713   41.5239   49.5958 C   0  0  0  0  0  3  0  0  0  0  0  0
    6.0367   41.0792   47.6331 C   0  0  0  0  0  3  0  0  0  0  0  0
    5.4258   42.1199   49.7175 C   0  0  0  0  0  3  0  0  0  0  0  0
    2.2699   40.0174   48.4400 S   0  0  1  0  0  0  0  0  0  0  0  0
    1.7953   39.9812   47.0065 O   0  0  0  0  0  0  0  0  0  0  0  0
    2.3313   38.6476   49.0311 O   0  0  0  0  0  0  0  0  0  0  0  0
    1.1392   40.9224   49.3907 N   0  0  0  0  0  0  0  0  0  0  0  0
    0.6279   42.0228   48.6301 C   0  0  0  0  0  1  0  0  0  0  0  0
    1.7005   41.2864   50.6712 C   0  0  0  0  0  1  0  0  0  0  0  0
    7.6762   43.9375   48.8715 C   0  0  0  0  0  3  0  0  0  0  0  0
    6.6569   44.5321   49.6732 N   0  0  0  0  0  0  0  0  0  0  0  0
    8.9995   44.4387   49.1514 N   0  0  0  0  0  0  0  0  0  0  0  0
    6.9053   45.0487   50.8340 C   0  0  0  0  0  0  0  0  0  0  0  0
    9.3102   44.9426   50.2735 C   0  0  0  0  0  0  0  0  0  0  0  0
    8.2754   45.0170   51.3301 C   0  0  0  0  0  3  0  0  0  0  0  0
   10.4873   45.5170   50.8740 N   0  0  0  0  0  0  0  0  0  0  0  0
    8.6958   46.2439   52.0082 N   0  0  0  0  0  0  0  0  0  0  0  0
   10.1328   46.2711   51.8791 C   0  0  0  0  0  3  0  0  0  0  0  0
    5.8778   45.6160   51.5763 O   0  0  0  0  0  0  0  0  0  0  0  0
    4.5102   45.2450   51.3632 C   0  0  0  0  0  2  0  0  0  0  0  0
    3.6807   45.5902   52.5805 C   0  0  0  0  0  3  0  0  0  0  0  0
    4.2492   44.9741   53.8300 C   0  0  0  0  0  2  0  0  0  0  0  0
    3.5046   47.0887   52.7016 C   0  0  0  0  0  2  0  0  0  0  0  0
    3.7035   45.7229   55.0244 C   0  0  0  0  0  2  0  0  0  0  0  0
    2.4674   47.4251   53.7273 C   0  0  0  0  0  2  0  0  0  0  0  0
    2.3268   46.2964   54.7098 C   0  0  0  0  0  2  0  0  0  0  0  0
  2  1  1  0
  3  4  2  0
  3  5  1  0
  4  6  1  0
  5  7  2  0
  6  2  2  0
  7  2  1  0
  8  9  2  0
  8  3  1  0
 10  8  2  0
  8 11  1  1
 12 11  1  0
 13 11  1  0
 14  1  1  0
 14 16  1  0
 15 17  2  0
 15 14  1  0
 16 18  2  0
 18 20  1  0
 19 17  1  0
 19 18  1  0
 19 21  1  0
 21 22  1  0
 22 20  2  0
 23 17  1  0
 24 23  1  0
 25 24  1  0
 26 25  1  0
 27 25  1  0
 28 30  1  0
 28 26  1  0
 29 27  1  0
 30 29  1  0
M  RAD  8   4   2   5   2   6   2   7   2  12   2  13   2  14   2  19   2
M  RAD  8  22   2  24   3  25   2  26   3  27   3  28   3  29   3  30   3
M  END
>  <REMARK>  (1) 
 SMILES CN(C)S(=O)(=O)c1ccc(Nc2nc(OCC3CCCCC3)c3[nH]cnc3n2)cc1
 SMILES IDX 11 1 10 3 7 4 8 5 30 6 9 7 29 8 4 9 5 10 6 11 2 12 1 13 3 14
 SMILES IDX 12 15 13 16 28 17 14 18 27 19 23 20 26 21 24 22 25 23 15 25
 SMILES IDX 16 26 17 27 18 28 22 29 19 30 21 31 20 32
 H PARENT 11 2 24 24

>  <TORSDO>  (1) 
F 7

$$$$
