/home/pchatterjee/Documents/git/vs_workflow/DiffDock/diffdock_run/pdbqt_scrubbed/5329563.pdbqt
     RDKit          3D

 30 33  0  0  1  0  0  0  0  0999 V2000
    7.7141   42.3012   49.1014 N   0  0  0  0  0  0  0  0  0  0  0  0
    6.3949   41.7487   48.9692 C   0  0  0  0  0  0  0  0  0  0  0  0
    3.8528   40.6972   48.7407 C   0  0  0  0  0  0  0  0  0  0  0  0
    4.7580   40.5006   47.6968 C   0  0  0  0  0  3  0  0  0  0  0  0
    4.2183   41.4077   49.8757 C   0  0  0  0  0  3  0  0  0  0  0  0
    6.0224   41.0392   47.8412 C   0  0  0  0  0  3  0  0  0  0  0  0
    5.4972   41.9463   50.0097 C   0  0  0  0  0  3  0  0  0  0  0  0
    2.2356   40.0612   48.6605 S   0  0  1  0  0  0  0  0  0  0  0  0
    2.0505   39.3155   47.3601 O   0  0  0  0  0  0  0  0  0  0  0  0
    2.0182   39.1699   49.8385 O   0  0  0  0  0  0  0  0  0  0  0  0
    1.0549   41.3247   48.7645 N   0  0  0  0  0  0  0  0  0  0  0  0
    0.5988   41.4607   50.1152 C   0  0  0  0  0  1  0  0  0  0  0  0
    0.0032   41.1440   47.7905 C   0  0  0  0  0  1  0  0  0  0  0  0
    7.8257   43.7352   48.9669 C   0  0  0  0  0  3  0  0  0  0  0  0
    6.8872   44.4817   49.7398 N   0  0  0  0  0  0  0  0  0  0  0  0
    9.1888   44.1806   49.1229 N   0  0  0  0  0  0  0  0  0  0  0  0
    7.2274   45.1118   50.8183 C   0  0  0  0  0  0  0  0  0  0  0  0
    9.5883   44.7898   50.1615 C   0  0  0  0  0  0  0  0  0  0  0  0
    8.6183   45.0508   51.2495 C   0  0  0  0  0  3  0  0  0  0  0  0
   10.8272   45.3538   50.6337 N   0  0  0  0  0  0  0  0  0  0  0  0
    9.1445   46.3186   51.7571 N   0  0  0  0  0  0  0  0  0  0  0  0
   10.5716   46.2397   51.5581 C   0  0  0  0  0  3  0  0  0  0  0  0
    6.2758   45.8248   51.5358 O   0  0  0  0  0  0  0  0  0  0  0  0
    4.8735   45.6209   51.3234 C   0  0  0  0  0  2  0  0  0  0  0  0
    4.1237   45.7521   52.6309 C   0  0  0  0  0  3  0  0  0  0  0  0
    2.7072   46.2104   52.4125 C   0  0  0  0  0  2  0  0  0  0  0  0
    4.2005   44.4652   53.4242 C   0  0  0  0  0  2  0  0  0  0  0  0
    1.8955   45.8584   53.6382 C   0  0  0  0  0  2  0  0  0  0  0  0
    3.7083   44.6681   54.8233 C   0  0  0  0  0  2  0  0  0  0  0  0
    2.7808   45.8495   54.8788 C   0  0  0  0  0  2  0  0  0  0  0  0
  2  1  1  0
  3  4  2  0
  3  5  1  0
  4  6  1  0
  5  7  2  0
  6  2  2  0
  7  2  1  0
  8  9  2  0
  8  3  1  0
 10  8  2  0
  8 11  1  1
 12 11  1  0
 13 11  1  0
 14  1  1  0
 14 16  1  0
 15 17  2  0
 15 14  1  0
 16 18  2  0
 18 20  1  0
 19 17  1  0
 19 18  1  0
 19 21  1  0
 21 22  1  0
 22 20  2  0
 23 17  1  0
 24 23  1  0
 25 24  1  0
 26 25  1  0
 27 25  1  0
 28 30  1  0
 28 26  1  0
 29 27  1  0
 30 29  1  0
M  RAD  8   4   2   5   2   6   2   7   2  12   2  13   2  14   2  19   2
M  RAD  8  22   2  24   3  25   2  26   3  27   3  28   3  29   3  30   3
M  END
>  <REMARK>  (1) 
 SMILES CN(C)S(=O)(=O)c1ccc(Nc2nc(OCC3CCCCC3)c3[nH]cnc3n2)cc1
 SMILES IDX 11 1 10 3 7 4 8 5 30 6 9 7 29 8 4 9 5 10 6 11 2 12 1 13 3 14
 SMILES IDX 12 15 13 16 28 17 14 18 27 19 23 20 26 21 24 22 25 23 15 25
 SMILES IDX 16 26 17 27 18 28 22 29 19 30 21 31 20 32
 H PARENT 11 2 24 24

>  <TORSDO>  (1) 
F 7

$$$$
