/home/pchatterjee/Documents/git/vs_workflow/DiffDock/diffdock_run/pdbqt_scrubbed/5329563.pdbqt
     RDKit          3D

 30 33  0  0  1  0  0  0  0  0999 V2000
    7.4511   42.4707   48.7062 N   0  0  0  0  0  0  0  0  0  0  0  0
    6.2001   41.7670   48.6540 C   0  0  0  0  0  0  0  0  0  0  0  0
    3.7900   40.4230   48.5802 C   0  0  0  0  0  0  0  0  0  0  0  0
    4.6181   40.3806   47.4576 C   0  0  0  0  0  3  0  0  0  0  0  0
    4.1660   41.1265   49.7161 C   0  0  0  0  0  3  0  0  0  0  0  0
    5.8176   41.0632   47.5257 C   0  0  0  0  0  3  0  0  0  0  0  0
    5.3791   41.8115   49.7727 C   0  0  0  0  0  3  0  0  0  0  0  0
    2.2585   39.5980   48.5998 S   0  0  1  0  0  0  0  0  0  0  0  0
    2.0658   38.8608   47.2957 O   0  0  0  0  0  0  0  0  0  0  0  0
    2.2385   38.6643   49.7647 O   0  0  0  0  0  0  0  0  0  0  0  0
    0.9472   40.7074   48.8251 N   0  0  0  0  0  0  0  0  0  0  0  0
    0.8739   41.6127   47.7179 C   0  0  0  0  0  1  0  0  0  0  0  0
    1.0139   41.3456   50.1196 C   0  0  0  0  0  1  0  0  0  0  0  0
    7.3747   43.9122   48.7639 C   0  0  0  0  0  3  0  0  0  0  0  0
    6.4204   44.4221   49.6937 N   0  0  0  0  0  0  0  0  0  0  0  0
    8.6813   44.5105   48.8880 N   0  0  0  0  0  0  0  0  0  0  0  0
    6.7707   44.9481   50.8237 C   0  0  0  0  0  0  0  0  0  0  0  0
    9.0894   45.0288   49.9716 C   0  0  0  0  0  0  0  0  0  0  0  0
    8.1899   45.0171   51.1479 C   0  0  0  0  0  3  0  0  0  0  0  0
   10.2853   45.6868   50.4329 N   0  0  0  0  0  0  0  0  0  0  0  0
    8.5980   46.2677   51.7893 N   0  0  0  0  0  0  0  0  0  0  0  0
   10.0022   46.4049   51.4859 C   0  0  0  0  0  3  0  0  0  0  0  0
    5.8030   45.4306   51.6951 O   0  0  0  0  0  0  0  0  0  0  0  0
    4.5374   44.7748   51.8423 C   0  0  0  0  0  2  0  0  0  0  0  0
    3.6084   45.6183   52.6875 C   0  0  0  0  0  3  0  0  0  0  0  0
    4.2503   46.0117   53.9904 C   0  0  0  0  0  2  0  0  0  0  0  0
    3.1078   46.8130   51.9042 C   0  0  0  0  0  2  0  0  0  0  0  0
    3.5116   47.2076   54.5465 C   0  0  0  0  0  2  0  0  0  0  0  0
    1.9852   47.4932   52.6239 C   0  0  0  0  0  2  0  0  0  0  0  0
    2.0560   47.1918   54.0947 C   0  0  0  0  0  2  0  0  0  0  0  0
  2  1  1  0
  3  4  2  0
  3  5  1  0
  4  6  1  0
  5  7  2  0
  6  2  2  0
  7  2  1  0
  8  9  2  0
  8  3  1  0
 10  8  2  0
  8 11  1  1
 12 11  1  0
 13 11  1  0
 14  1  1  0
 14 16  1  0
 15 17  2  0
 15 14  1  0
 16 18  2  0
 18 20  1  0
 19 17  1  0
 19 18  1  0
 19 21  1  0
 21 22  1  0
 22 20  2  0
 23 17  1  0
 24 23  1  0
 25 24  1  0
 26 25  1  0
 27 25  1  0
 28 30  1  0
 28 26  1  0
 29 27  1  0
 30 29  1  0
M  RAD  8   4   2   5   2   6   2   7   2  12   2  13   2  14   2  19   2
M  RAD  8  22   2  24   3  25   2  26   3  27   3  28   3  29   3  30   3
M  END
>  <REMARK>  (1) 
 SMILES CN(C)S(=O)(=O)c1ccc(Nc2nc(OCC3CCCCC3)c3[nH]cnc3n2)cc1
 SMILES IDX 11 1 10 3 7 4 8 5 30 6 9 7 29 8 4 9 5 10 6 11 2 12 1 13 3 14
 SMILES IDX 12 15 13 16 28 17 14 18 27 19 23 20 26 21 24 22 25 23 15 25
 SMILES IDX 16 26 17 27 18 28 22 29 19 30 21 31 20 32
 H PARENT 11 2 24 24

>  <TORSDO>  (1) 
F 7

$$$$
