/home/pchatterjee/Documents/git/vs_workflow/DiffDock/diffdock_run/pdbqt_scrubbed/5329563.pdbqt
     RDKit          3D

 30 33  0  0  1  0  0  0  0  0999 V2000
    7.7174   42.7081   49.2174 N   0  0  0  0  0  0  0  0  0  0  0  0
    6.4205   42.0970   49.1290 C   0  0  0  0  0  0  0  0  0  0  0  0
    3.9346   40.9131   48.9332 C   0  0  0  0  0  0  0  0  0  0  0  0
    4.2601   41.6037   50.1014 C   0  0  0  0  0  3  0  0  0  0  0  0
    4.8401   40.8198   47.8854 C   0  0  0  0  0  3  0  0  0  0  0  0
    5.5119   42.1852   50.1688 C   0  0  0  0  0  3  0  0  0  0  0  0
    6.1003   41.4109   47.9653 C   0  0  0  0  0  3  0  0  0  0  0  0
    2.3853   40.1444   48.7450 S   0  0  1  0  0  0  0  0  0  0  0  0
    2.2393   39.6437   47.3275 O   0  0  0  0  0  0  0  0  0  0  0  0
    2.2871   39.0288   49.7325 O   0  0  0  0  0  0  0  0  0  0  0  0
    1.0905   41.2399   49.0974 N   0  0  0  0  0  0  0  0  0  0  0  0
    0.0718   40.5706   49.8493 C   0  0  0  0  0  1  0  0  0  0  0  0
    0.6190   41.8999   47.9018 C   0  0  0  0  0  1  0  0  0  0  0  0
    7.7568   44.1483   49.1111 C   0  0  0  0  0  3  0  0  0  0  0  0
    6.8250   44.8338   49.9461 N   0  0  0  0  0  0  0  0  0  0  0  0
    9.1043   44.6532   49.2107 N   0  0  0  0  0  0  0  0  0  0  0  0
    7.1896   45.4562   51.0211 C   0  0  0  0  0  0  0  0  0  0  0  0
    9.5271   45.2583   50.2425 C   0  0  0  0  0  0  0  0  0  0  0  0
    8.6016   45.4510   51.3824 C   0  0  0  0  0  3  0  0  0  0  0  0
   10.7610   45.8694   50.6666 N   0  0  0  0  0  0  0  0  0  0  0  0
    9.0943   46.7309   51.8931 N   0  0  0  0  0  0  0  0  0  0  0  0
   10.5118   46.7227   51.6228 C   0  0  0  0  0  3  0  0  0  0  0  0
    6.2436   46.1088   51.8008 O   0  0  0  0  0  0  0  0  0  0  0  0
    5.8172   45.5747   53.0602 C   0  0  0  0  0  2  0  0  0  0  0  0
    4.3068   45.5050   53.1124 C   0  0  0  0  0  3  0  0  0  0  0  0
    3.6790   46.2437   51.9616 C   0  0  0  0  0  2  0  0  0  0  0  0
    3.8394   44.0681   53.2026 C   0  0  0  0  0  2  0  0  0  0  0  0
    2.2626   45.7450   51.7878 C   0  0  0  0  0  2  0  0  0  0  0  0
    2.3809   43.9987   53.5326 C   0  0  0  0  0  2  0  0  0  0  0  0
    1.6969   45.2725   53.1218 C   0  0  0  0  0  2  0  0  0  0  0  0
  2  1  1  0
  3  4  2  0
  3  5  1  0
  4  6  1  0
  5  7  2  0
  6  2  2  0
  7  2  1  0
  8  9  2  0
  8  3  1  0
 10  8  2  0
  8 11  1  1
 12 11  1  0
 13 11  1  0
 14  1  1  0
 14 16  1  0
 15 17  2  0
 15 14  1  0
 16 18  2  0
 18 20  1  0
 19 17  1  0
 19 18  1  0
 19 21  1  0
 21 22  1  0
 22 20  2  0
 23 17  1  0
 24 23  1  0
 25 24  1  0
 26 25  1  0
 27 25  1  0
 28 30  1  0
 28 26  1  0
 29 27  1  0
 30 29  1  0
M  RAD  8   4   2   5   2   6   2   7   2  12   2  13   2  14   2  19   2
M  RAD  8  22   2  24   3  25   2  26   3  27   3  28   3  29   3  30   3
M  END
>  <REMARK>  (1) 
 SMILES CN(C)S(=O)(=O)c1ccc(Nc2nc(OCC3CCCCC3)c3[nH]cnc3n2)cc1
 SMILES IDX 11 1 10 3 7 4 8 5 30 6 9 7 29 8 4 9 5 10 6 11 2 12 1 13 3 14
 SMILES IDX 12 15 13 16 28 17 14 18 27 19 23 20 26 21 24 22 25 23 15 25
 SMILES IDX 16 26 17 27 18 28 22 29 19 30 21 31 20 32
 H PARENT 11 2 24 24

>  <TORSDO>  (1) 
F 7

$$$$
