/home/pchatterjee/Documents/git/vs_workflow/DiffDock/diffdock_run/pdbqt_scrubbed/5329563.pdbqt
     RDKit          3D

 30 33  0  0  1  0  0  0  0  0999 V2000
    7.6504   42.2843   48.8294 N   0  0  0  0  0  0  0  0  0  0  0  0
    6.3481   41.6795   48.7928 C   0  0  0  0  0  0  0  0  0  0  0  0
    3.8502   40.5085   48.6958 C   0  0  0  0  0  0  0  0  0  0  0  0
    4.2470   41.1496   49.8702 C   0  0  0  0  0  3  0  0  0  0  0  0
    4.6919   40.4573   47.5932 C   0  0  0  0  0  3  0  0  0  0  0  0
    5.5029   41.7259   49.8873 C   0  0  0  0  0  3  0  0  0  0  0  0
    5.9569   41.0426   47.6228 C   0  0  0  0  0  3  0  0  0  0  0  0
    2.2895   39.7507   48.5680 S   0  0  1  0  0  0  0  0  0  0  0  0
    2.1071   39.2032   47.1722 O   0  0  0  0  0  0  0  0  0  0  0  0
    2.2019   38.6708   49.5955 O   0  0  0  0  0  0  0  0  0  0  0  0
    1.0139   40.8717   48.9104 N   0  0  0  0  0  0  0  0  0  0  0  0
    0.3159   40.4743   50.0961 C   0  0  0  0  0  1  0  0  0  0  0  0
    0.1693   41.0768   47.7564 C   0  0  0  0  0  1  0  0  0  0  0  0
    7.6876   43.7285   48.8262 C   0  0  0  0  0  3  0  0  0  0  0  0
    6.7096   44.3522   49.6568 N   0  0  0  0  0  0  0  0  0  0  0  0
    9.0252   44.2275   49.0317 N   0  0  0  0  0  0  0  0  0  0  0  0
    7.0139   44.8984   50.7905 C   0  0  0  0  0  0  0  0  0  0  0  0
    9.3900   44.7596   50.1242 C   0  0  0  0  0  0  0  0  0  0  0  0
    8.4050   44.8702   51.2243 C   0  0  0  0  0  3  0  0  0  0  0  0
   10.5967   45.3415   50.6544 N   0  0  0  0  0  0  0  0  0  0  0  0
    8.8633   46.1121   51.8485 N   0  0  0  0  0  0  0  0  0  0  0  0
   10.2931   46.1253   51.6534 C   0  0  0  0  0  3  0  0  0  0  0  0
    6.0248   45.4932   51.5628 O   0  0  0  0  0  0  0  0  0  0  0  0
    4.6670   45.0374   51.5171 C   0  0  0  0  0  2  0  0  0  0  0  0
    3.8885   45.6004   52.6857 C   0  0  0  0  0  3  0  0  0  0  0  0
    4.3898   45.0583   53.9968 C   0  0  0  0  0  2  0  0  0  0  0  0
    3.8846   47.1137   52.6479 C   0  0  0  0  0  2  0  0  0  0  0  0
    3.9389   45.9855   55.1024 C   0  0  0  0  0  2  0  0  0  0  0  0
    2.8978   47.6716   53.6255 C   0  0  0  0  0  2  0  0  0  0  0  0
    2.6348   46.6756   54.7200 C   0  0  0  0  0  2  0  0  0  0  0  0
  2  1  1  0
  3  4  2  0
  3  5  1  0
  4  6  1  0
  5  7  2  0
  6  2  2  0
  7  2  1  0
  8  9  2  0
  8  3  1  0
 10  8  2  0
  8 11  1  1
 12 11  1  0
 13 11  1  0
 14  1  1  0
 14 16  1  0
 15 17  2  0
 15 14  1  0
 16 18  2  0
 18 20  1  0
 19 17  1  0
 19 18  1  0
 19 21  1  0
 21 22  1  0
 22 20  2  0
 23 17  1  0
 24 23  1  0
 25 24  1  0
 26 25  1  0
 27 25  1  0
 28 30  1  0
 28 26  1  0
 29 27  1  0
 30 29  1  0
M  RAD  8   4   2   5   2   6   2   7   2  12   2  13   2  14   2  19   2
M  RAD  8  22   2  24   3  25   2  26   3  27   3  28   3  29   3  30   3
M  END
>  <REMARK>  (1) 
 SMILES CN(C)S(=O)(=O)c1ccc(Nc2nc(OCC3CCCCC3)c3[nH]cnc3n2)cc1
 SMILES IDX 11 1 10 3 7 4 8 5 30 6 9 7 29 8 4 9 5 10 6 11 2 12 1 13 3 14
 SMILES IDX 12 15 13 16 28 17 14 18 27 19 23 20 26 21 24 22 25 23 15 25
 SMILES IDX 16 26 17 27 18 28 22 29 19 30 21 31 20 32
 H PARENT 11 2 24 24

>  <TORSDO>  (1) 
F 7

$$$$
