/home/pchatterjee/Documents/git/vs_workflow/DiffDock/diffdock_run/pdbqt_scrubbed/5329563.pdbqt
     RDKit          3D

 30 33  0  0  1  0  0  0  0  0999 V2000
    7.6057   42.5079   48.9716 N   0  0  0  0  0  0  0  0  0  0  0  0
    6.3347   41.8418   48.9100 C   0  0  0  0  0  0  0  0  0  0  0  0
    3.8868   40.5690   48.8188 C   0  0  0  0  0  0  0  0  0  0  0  0
    4.6916   40.5611   47.6786 C   0  0  0  0  0  3  0  0  0  0  0  0
    4.3042   41.2036   49.9805 C   0  0  0  0  0  3  0  0  0  0  0  0
    5.9109   41.2067   47.7560 C   0  0  0  0  0  3  0  0  0  0  0  0
    5.5369   41.8517   50.0462 C   0  0  0  0  0  3  0  0  0  0  0  0
    2.3334   39.7859   48.8286 S   0  0  1  0  0  0  0  0  0  0  0  0
    2.0830   39.1448   47.4841 O   0  0  0  0  0  0  0  0  0  0  0  0
    2.3193   38.7756   49.9280 O   0  0  0  0  0  0  0  0  0  0  0  0
    1.0613   40.9119   49.1676 N   0  0  0  0  0  0  0  0  0  0  0  0
    0.0448   40.8216   48.1628 C   0  0  0  0  0  1  0  0  0  0  0  0
    1.5797   42.2437   49.3798 C   0  0  0  0  0  1  0  0  0  0  0  0
    7.5776   43.9510   48.9121 C   0  0  0  0  0  3  0  0  0  0  0  0
    6.6408   44.5662   49.7949 N   0  0  0  0  0  0  0  0  0  0  0  0
    8.9034   44.5135   48.9911 N   0  0  0  0  0  0  0  0  0  0  0  0
    7.0083   45.1700   50.8795 C   0  0  0  0  0  0  0  0  0  0  0  0
    9.3286   45.1040   50.0304 C   0  0  0  0  0  0  0  0  0  0  0  0
    8.4290   45.2177   51.2011 C   0  0  0  0  0  3  0  0  0  0  0  0
   10.5458   45.7569   50.4402 N   0  0  0  0  0  0  0  0  0  0  0  0
    8.8786   46.5019   51.7402 N   0  0  0  0  0  0  0  0  0  0  0  0
   10.2866   46.5670   51.4307 C   0  0  0  0  0  3  0  0  0  0  0  0
    6.0571   45.7535   51.7062 O   0  0  0  0  0  0  0  0  0  0  0  0
    4.8689   45.0503   52.0894 C   0  0  0  0  0  2  0  0  0  0  0  0
    4.1557   45.7960   53.1959 C   0  0  0  0  0  3  0  0  0  0  0  0
    3.7229   47.1662   52.7495 C   0  0  0  0  0  2  0  0  0  0  0  0
    3.0074   44.9747   53.7419 C   0  0  0  0  0  2  0  0  0  0  0  0
    2.6314   47.6495   53.6770 C   0  0  0  0  0  2  0  0  0  0  0  0
    2.4753   45.5724   55.0070 C   0  0  0  0  0  2  0  0  0  0  0  0
    2.8010   47.0386   55.0630 C   0  0  0  0  0  2  0  0  0  0  0  0
  2  1  1  0
  3  4  2  0
  3  5  1  0
  4  6  1  0
  5  7  2  0
  6  2  2  0
  7  2  1  0
  8  9  2  0
  8  3  1  0
 10  8  2  0
  8 11  1  1
 12 11  1  0
 13 11  1  0
 14  1  1  0
 14 16  1  0
 15 17  2  0
 15 14  1  0
 16 18  2  0
 18 20  1  0
 19 17  1  0
 19 18  1  0
 19 21  1  0
 21 22  1  0
 22 20  2  0
 23 17  1  0
 24 23  1  0
 25 24  1  0
 26 25  1  0
 27 25  1  0
 28 30  1  0
 28 26  1  0
 29 27  1  0
 30 29  1  0
M  RAD  8   4   2   5   2   6   2   7   2  12   2  13   2  14   2  19   2
M  RAD  8  22   2  24   3  25   2  26   3  27   3  28   3  29   3  30   3
M  END
>  <REMARK>  (1) 
 SMILES CN(C)S(=O)(=O)c1ccc(Nc2nc(OCC3CCCCC3)c3[nH]cnc3n2)cc1
 SMILES IDX 11 1 10 3 7 4 8 5 30 6 9 7 29 8 4 9 5 10 6 11 2 12 1 13 3 14
 SMILES IDX 12 15 13 16 28 17 14 18 27 19 23 20 26 21 24 22 25 23 15 25
 SMILES IDX 16 26 17 27 18 28 22 29 19 30 21 31 20 32
 H PARENT 11 2 24 24

>  <TORSDO>  (1) 
F 7

$$$$
