/home/pchatterjee/Documents/git/vs_workflow/DiffDock/diffdock_run/pdbqt_scrubbed/5329563.pdbqt
     RDKit          3D

 30 33  0  0  1  0  0  0  0  0999 V2000
    7.5334   42.4867   49.2840 N   0  0  0  0  0  0  0  0  0  0  0  0
    6.2292   41.9059   49.1261 C   0  0  0  0  0  0  0  0  0  0  0  0
    3.7319   40.7759   48.7995 C   0  0  0  0  0  0  0  0  0  0  0  0
    3.9438   41.6389   49.8756 C   0  0  0  0  0  3  0  0  0  0  0  0
    4.7544   40.4871   47.9064 C   0  0  0  0  0  3  0  0  0  0  0  0
    5.2044   42.1884   50.0118 C   0  0  0  0  0  3  0  0  0  0  0  0
    6.0223   41.0478   48.0545 C   0  0  0  0  0  3  0  0  0  0  0  0
    2.1823   40.0304   48.5361 S   0  0  1  0  0  0  0  0  0  0  0  0
    2.0880   39.5541   47.1059 O   0  0  0  0  0  0  0  0  0  0  0  0
    2.0303   38.9007   49.5005 O   0  0  0  0  0  0  0  0  0  0  0  0
    0.8877   41.1369   48.8536 N   0  0  0  0  0  0  0  0  0  0  0  0
    0.7647   42.0713   47.7754 C   0  0  0  0  0  1  0  0  0  0  0  0
    1.0194   41.7405   50.1596 C   0  0  0  0  0  1  0  0  0  0  0  0
    7.6277   43.9150   49.0891 C   0  0  0  0  0  3  0  0  0  0  0  0
    6.7162   44.6852   49.8709 N   0  0  0  0  0  0  0  0  0  0  0  0
    8.9925   44.3748   49.1703 N   0  0  0  0  0  0  0  0  0  0  0  0
    7.0960   45.3594   50.9088 C   0  0  0  0  0  0  0  0  0  0  0  0
    9.4300   45.0269   50.1667 C   0  0  0  0  0  0  0  0  0  0  0  0
    8.5041   45.3243   51.2834 C   0  0  0  0  0  3  0  0  0  0  0  0
   10.6829   45.6170   50.5641 N   0  0  0  0  0  0  0  0  0  0  0  0
    9.0408   46.6145   51.7186 N   0  0  0  0  0  0  0  0  0  0  0  0
   10.4589   46.5369   51.4632 C   0  0  0  0  0  3  0  0  0  0  0  0
    6.1694   46.0940   51.6373 O   0  0  0  0  0  0  0  0  0  0  0  0
    4.7703   46.0432   51.3319 C   0  0  0  0  0  2  0  0  0  0  0  0
    3.9634   45.9102   52.6047 C   0  0  0  0  0  3  0  0  0  0  0  0
    2.4848   45.9599   52.3299 C   0  0  0  0  0  2  0  0  0  0  0  0
    4.3693   44.6684   53.3692 C   0  0  0  0  0  2  0  0  0  0  0  0
    1.7582   45.3491   53.5064 C   0  0  0  0  0  2  0  0  0  0  0  0
    3.7855   44.6731   54.7476 C   0  0  0  0  0  2  0  0  0  0  0  0
    2.5608   45.5435   54.7874 C   0  0  0  0  0  2  0  0  0  0  0  0
  2  1  1  0
  3  4  2  0
  3  5  1  0
  4  6  1  0
  5  7  2  0
  6  2  2  0
  7  2  1  0
  8  9  2  0
  8  3  1  0
 10  8  2  0
  8 11  1  1
 12 11  1  0
 13 11  1  0
 14  1  1  0
 14 16  1  0
 15 17  2  0
 15 14  1  0
 16 18  2  0
 18 20  1  0
 19 17  1  0
 19 18  1  0
 19 21  1  0
 21 22  1  0
 22 20  2  0
 23 17  1  0
 24 23  1  0
 25 24  1  0
 26 25  1  0
 27 25  1  0
 28 30  1  0
 28 26  1  0
 29 27  1  0
 30 29  1  0
M  RAD  8   4   2   5   2   6   2   7   2  12   2  13   2  14   2  19   2
M  RAD  8  22   2  24   3  25   2  26   3  27   3  28   3  29   3  30   3
M  END
>  <REMARK>  (1) 
 SMILES CN(C)S(=O)(=O)c1ccc(Nc2nc(OCC3CCCCC3)c3[nH]cnc3n2)cc1
 SMILES IDX 11 1 10 3 7 4 8 5 30 6 9 7 29 8 4 9 5 10 6 11 2 12 1 13 3 14
 SMILES IDX 12 15 13 16 28 17 14 18 27 19 23 20 26 21 24 22 25 23 15 25
 SMILES IDX 16 26 17 27 18 28 22 29 19 30 21 31 20 32
 H PARENT 11 2 24 24

>  <TORSDO>  (1) 
F 7

$$$$
