/home/pchatterjee/Documents/git/vs_workflow/DiffDock/diffdock_run/pdbqt_scrubbed/5329563.pdbqt
     RDKit          3D

 30 33  0  0  1  0  0  0  0  0999 V2000
    7.7021   42.6149   48.8853 N   0  0  0  0  0  0  0  0  0  0  0  0
    6.4309   41.9485   48.8315 C   0  0  0  0  0  0  0  0  0  0  0  0
    3.9937   40.6588   48.7017 C   0  0  0  0  0  0  0  0  0  0  0  0
    4.3280   41.3486   49.8679 C   0  0  0  0  0  3  0  0  0  0  0  0
    4.8666   40.6183   47.6233 C   0  0  0  0  0  3  0  0  0  0  0  0
    5.5548   41.9837   49.9019 C   0  0  0  0  0  3  0  0  0  0  0  0
    6.1018   41.2633   47.6697 C   0  0  0  0  0  3  0  0  0  0  0  0
    2.4740   39.8250   48.5543 S   0  0  1  0  0  0  0  0  0  0  0  0
    2.2600   39.4163   47.1161 O   0  0  0  0  0  0  0  0  0  0  0  0
    2.4937   38.6403   49.4629 O   0  0  0  0  0  0  0  0  0  0  0  0
    1.1540   40.8245   49.0639 N   0  0  0  0  0  0  0  0  0  0  0  0
    1.0383   41.9624   48.2021 C   0  0  0  0  0  1  0  0  0  0  0  0
    1.2469   41.1428   50.4701 C   0  0  0  0  0  1  0  0  0  0  0  0
    7.6680   44.0572   48.9606 C   0  0  0  0  0  3  0  0  0  0  0  0
    6.6061   44.5882   49.7517 N   0  0  0  0  0  0  0  0  0  0  0  0
    8.9622   44.6046   49.2860 N   0  0  0  0  0  0  0  0  0  0  0  0
    6.8052   45.0836   50.9311 C   0  0  0  0  0  0  0  0  0  0  0  0
    9.2250   45.0909   50.4279 C   0  0  0  0  0  0  0  0  0  0  0  0
    8.1632   45.0949   51.4600 C   0  0  0  0  0  3  0  0  0  0  0  0
   10.3626   45.6968   51.0719 N   0  0  0  0  0  0  0  0  0  0  0  0
    8.5160   46.3196   52.1794 N   0  0  0  0  0  0  0  0  0  0  0  0
    9.9533   46.4090   52.0867 C   0  0  0  0  0  3  0  0  0  0  0  0
    5.7376   45.5885   51.6618 O   0  0  0  0  0  0  0  0  0  0  0  0
    4.3880   45.2001   51.3771 C   0  0  0  0  0  2  0  0  0  0  0  0
    3.5028   45.4759   52.5726 C   0  0  0  0  0  3  0  0  0  0  0  0
    4.0537   44.8492   53.8248 C   0  0  0  0  0  2  0  0  0  0  0  0
    3.2587   46.9618   52.7273 C   0  0  0  0  0  2  0  0  0  0  0  0
    3.4354   45.5407   55.0185 C   0  0  0  0  0  2  0  0  0  0  0  0
    2.1733   47.2255   53.7238 C   0  0  0  0  0  2  0  0  0  0  0  0
    2.0472   46.0648   54.6702 C   0  0  0  0  0  2  0  0  0  0  0  0
  2  1  1  0
  3  4  2  0
  3  5  1  0
  4  6  1  0
  5  7  2  0
  6  2  2  0
  7  2  1  0
  8  9  2  0
  8  3  1  0
 10  8  2  0
  8 11  1  1
 12 11  1  0
 13 11  1  0
 14  1  1  0
 14 16  1  0
 15 17  2  0
 15 14  1  0
 16 18  2  0
 18 20  1  0
 19 17  1  0
 19 18  1  0
 19 21  1  0
 21 22  1  0
 22 20  2  0
 23 17  1  0
 24 23  1  0
 25 24  1  0
 26 25  1  0
 27 25  1  0
 28 30  1  0
 28 26  1  0
 29 27  1  0
 30 29  1  0
M  RAD  8   4   2   5   2   6   2   7   2  12   2  13   2  14   2  19   2
M  RAD  8  22   2  24   3  25   2  26   3  27   3  28   3  29   3  30   3
M  END
>  <REMARK>  (1) 
 SMILES CN(C)S(=O)(=O)c1ccc(Nc2nc(OCC3CCCCC3)c3[nH]cnc3n2)cc1
 SMILES IDX 11 1 10 3 7 4 8 5 30 6 9 7 29 8 4 9 5 10 6 11 2 12 1 13 3 14
 SMILES IDX 12 15 13 16 28 17 14 18 27 19 23 20 26 21 24 22 25 23 15 25
 SMILES IDX 16 26 17 27 18 28 22 29 19 30 21 31 20 32
 H PARENT 11 2 24 24

>  <TORSDO>  (1) 
F 7

$$$$
