/home/pchatterjee/Documents/git/vs_workflow/DiffDock/diffdock_run/pdbqt_scrubbed/5329563.pdbqt
     RDKit          3D

 30 33  0  0  1  0  0  0  0  0999 V2000
    7.7172   42.4961   48.6738 N   0  0  0  0  0  0  0  0  0  0  0  0
    6.4180   41.8882   48.6002 C   0  0  0  0  0  0  0  0  0  0  0  0
    3.9274   40.7096   48.4329 C   0  0  0  0  0  0  0  0  0  0  0  0
    4.2521   41.4352   49.5800 C   0  0  0  0  0  3  0  0  0  0  0  0
    4.8360   40.5794   47.3918 C   0  0  0  0  0  3  0  0  0  0  0  0
    5.5062   42.0131   49.6335 C   0  0  0  0  0  3  0  0  0  0  0  0
    6.0986   41.1672   47.4575 C   0  0  0  0  0  3  0  0  0  0  0  0
    2.3753   39.9422   48.2635 S   0  0  1  0  0  0  0  0  0  0  0  0
    2.2685   39.3168   46.8928 O   0  0  0  0  0  0  0  0  0  0  0  0
    2.2314   38.9214   49.3437 O   0  0  0  0  0  0  0  0  0  0  0  0
    1.0838   41.0777   48.4729 N   0  0  0  0  0  0  0  0  0  0  0  0
    0.2456   40.6729   49.5611 C   0  0  0  0  0  1  0  0  0  0  0  0
    0.3840   41.3140   47.2312 C   0  0  0  0  0  1  0  0  0  0  0  0
    7.7476   43.9384   48.7496 C   0  0  0  0  0  3  0  0  0  0  0  0
    6.7480   44.5128   49.5900 N   0  0  0  0  0  0  0  0  0  0  0  0
    9.0779   44.4303   49.0126 N   0  0  0  0  0  0  0  0  0  0  0  0
    7.0238   44.9978   50.7582 C   0  0  0  0  0  0  0  0  0  0  0  0
    9.4151   44.9036   50.1404 C   0  0  0  0  0  0  0  0  0  0  0  0
    8.4047   44.9511   51.2219 C   0  0  0  0  0  3  0  0  0  0  0  0
   10.6065   45.4602   50.7289 N   0  0  0  0  0  0  0  0  0  0  0  0
    8.8427   46.1589   51.9227 N   0  0  0  0  0  0  0  0  0  0  0  0
   10.2765   46.1877   51.7616 C   0  0  0  0  0  3  0  0  0  0  0  0
    6.0144   45.5464   51.5386 O   0  0  0  0  0  0  0  0  0  0  0  0
    4.6496   45.1361   51.3901 C   0  0  0  0  0  2  0  0  0  0  0  0
    3.8042   45.7270   52.4969 C   0  0  0  0  0  3  0  0  0  0  0  0
    4.2032   45.1896   53.8446 C   0  0  0  0  0  2  0  0  0  0  0  0
    3.8336   47.2395   52.4443 C   0  0  0  0  0  2  0  0  0  0  0  0
    3.6964   46.1375   54.9075 C   0  0  0  0  0  2  0  0  0  0  0  0
    2.7935   47.8273   53.3463 C   0  0  0  0  0  2  0  0  0  0  0  0
    2.4359   46.8487   54.4296 C   0  0  0  0  0  2  0  0  0  0  0  0
  2  1  1  0
  3  4  2  0
  3  5  1  0
  4  6  1  0
  5  7  2  0
  6  2  2  0
  7  2  1  0
  8  9  2  0
  8  3  1  0
 10  8  2  0
  8 11  1  1
 12 11  1  0
 13 11  1  0
 14  1  1  0
 14 16  1  0
 15 17  2  0
 15 14  1  0
 16 18  2  0
 18 20  1  0
 19 17  1  0
 19 18  1  0
 19 21  1  0
 21 22  1  0
 22 20  2  0
 23 17  1  0
 24 23  1  0
 25 24  1  0
 26 25  1  0
 27 25  1  0
 28 30  1  0
 28 26  1  0
 29 27  1  0
 30 29  1  0
M  RAD  8   4   2   5   2   6   2   7   2  12   2  13   2  14   2  19   2
M  RAD  8  22   2  24   3  25   2  26   3  27   3  28   3  29   3  30   3
M  END
>  <REMARK>  (1) 
 SMILES CN(C)S(=O)(=O)c1ccc(Nc2nc(OCC3CCCCC3)c3[nH]cnc3n2)cc1
 SMILES IDX 11 1 10 3 7 4 8 5 30 6 9 7 29 8 4 9 5 10 6 11 2 12 1 13 3 14
 SMILES IDX 12 15 13 16 28 17 14 18 27 19 23 20 26 21 24 22 25 23 15 25
 SMILES IDX 16 26 17 27 18 28 22 29 19 30 21 31 20 32
 H PARENT 11 2 24 24

>  <TORSDO>  (1) 
F 7

$$$$
