/home/pchatterjee/Documents/git/vs_workflow/DiffDock/diffdock_run/pdbqt_scrubbed/5329563.pdbqt
     RDKit          3D

 30 33  0  0  1  0  0  0  0  0999 V2000
    7.7002   42.4314   49.2168 N   0  0  0  0  0  0  0  0  0  0  0  0
    6.4171   41.7968   49.0989 C   0  0  0  0  0  0  0  0  0  0  0  0
    3.9435   40.5884   48.8973 C   0  0  0  0  0  0  0  0  0  0  0  0
    4.8695   40.3996   47.8705 C   0  0  0  0  0  3  0  0  0  0  0  0
    4.2548   41.3684   50.0024 C   0  0  0  0  0  3  0  0  0  0  0  0
    6.0986   41.0176   48.0007 C   0  0  0  0  0  3  0  0  0  0  0  0
    5.4985   41.9868   50.1224 C   0  0  0  0  0  3  0  0  0  0  0  0
    2.3671   39.8553   48.8327 S   0  0  1  0  0  0  0  0  0  0  0  0
    2.0897   39.3782   47.4267 O   0  0  0  0  0  0  0  0  0  0  0  0
    2.3287   38.7279   49.8110 O   0  0  0  0  0  0  0  0  0  0  0  0
    1.1317   40.9727   49.3083 N   0  0  0  0  0  0  0  0  0  0  0  0
    0.2896   40.3796   50.3034 C   0  0  0  0  0  1  0  0  0  0  0  0
    0.4277   41.4988   48.1616 C   0  0  0  0  0  1  0  0  0  0  0  0
    7.7322   43.8595   49.0011 C   0  0  0  0  0  3  0  0  0  0  0  0
    6.7254   44.5908   49.6990 N   0  0  0  0  0  0  0  0  0  0  0  0
    9.0606   44.3947   49.1726 N   0  0  0  0  0  0  0  0  0  0  0  0
    6.9908   45.3010   50.7484 C   0  0  0  0  0  0  0  0  0  0  0  0
    9.3877   45.0854   50.1853 C   0  0  0  0  0  0  0  0  0  0  0  0
    8.3671   45.3491   51.2253 C   0  0  0  0  0  3  0  0  0  0  0  0
   10.5744   45.7495   50.6614 N   0  0  0  0  0  0  0  0  0  0  0  0
    8.8003   46.6734   51.6731 N   0  0  0  0  0  0  0  0  0  0  0  0
   10.2356   46.6697   51.5234 C   0  0  0  0  0  3  0  0  0  0  0  0
    5.9749   45.9950   51.3926 O   0  0  0  0  0  0  0  0  0  0  0  0
    4.6167   45.5403   51.3497 C   0  0  0  0  0  2  0  0  0  0  0  0
    3.9044   45.9039   52.6340 C   0  0  0  0  0  3  0  0  0  0  0  0
    2.4580   46.2387   52.3886 C   0  0  0  0  0  2  0  0  0  0  0  0
    4.0792   44.8148   53.6706 C   0  0  0  0  0  2  0  0  0  0  0  0
    1.7083   46.1102   53.6949 C   0  0  0  0  0  2  0  0  0  0  0  0
    3.6230   45.2797   55.0184 C   0  0  0  0  0  2  0  0  0  0  0  0
    2.6333   46.4012   54.8707 C   0  0  0  0  0  2  0  0  0  0  0  0
  2  1  1  0
  3  4  2  0
  3  5  1  0
  4  6  1  0
  5  7  2  0
  6  2  2  0
  7  2  1  0
  8  9  2  0
  8  3  1  0
 10  8  2  0
  8 11  1  1
 12 11  1  0
 13 11  1  0
 14  1  1  0
 14 16  1  0
 15 17  2  0
 15 14  1  0
 16 18  2  0
 18 20  1  0
 19 17  1  0
 19 18  1  0
 19 21  1  0
 21 22  1  0
 22 20  2  0
 23 17  1  0
 24 23  1  0
 25 24  1  0
 26 25  1  0
 27 25  1  0
 28 30  1  0
 28 26  1  0
 29 27  1  0
 30 29  1  0
M  RAD  8   4   2   5   2   6   2   7   2  12   2  13   2  14   2  19   2
M  RAD  8  22   2  24   3  25   2  26   3  27   3  28   3  29   3  30   3
M  END
>  <REMARK>  (1) 
 SMILES CN(C)S(=O)(=O)c1ccc(Nc2nc(OCC3CCCCC3)c3[nH]cnc3n2)cc1
 SMILES IDX 11 1 10 3 7 4 8 5 30 6 9 7 29 8 4 9 5 10 6 11 2 12 1 13 3 14
 SMILES IDX 12 15 13 16 28 17 14 18 27 19 23 20 26 21 24 22 25 23 15 25
 SMILES IDX 16 26 17 27 18 28 22 29 19 30 21 31 20 32
 H PARENT 11 2 24 24

>  <TORSDO>  (1) 
F 7

$$$$
