/home/pchatterjee/Documents/git/vs_workflow/DiffDock/diffdock_run/pdbqt_scrubbed/COLIG_2A6.pdbqt
     RDKit          3D

 24 27  0  0  1  0  0  0  0  0999 V2000
    7.7291   43.4125   49.6116 C   0  0  0  0  0  0  0  0  0  0  0  0
    6.7686   44.1339   50.3662 N   0  0  0  0  0  0  0  0  0  0  0  0
    7.1538   45.0340   51.2038 C   0  0  0  0  0  0  0  0  0  0  0  0
    8.5200   45.3219   51.4234 C   0  0  0  0  0  3  0  0  0  0  0  0
    9.0495   46.5965   51.6685 N   0  0  0  0  0  0  0  0  0  0  0  0
   10.4871   46.2152   51.8451 C   0  0  0  0  0  2  0  0  0  0  0  0
   10.6413   45.1484   50.8417 N   0  0  0  0  0  0  0  0  0  0  0  0
    9.4656   44.6182   50.5889 C   0  0  0  0  0  0  0  0  0  0  0  0
    9.0050   43.6115   49.6971 N   0  0  0  0  0  0  0  0  0  0  0  0
    7.3058   42.4052   48.6985 N   0  0  0  0  0  0  0  0  0  0  0  0
    5.9338   42.0087   48.6804 C   0  0  0  0  0  0  0  0  0  0  0  0
    3.2261   41.2203   48.6068 C   0  0  0  0  0  3  0  0  0  0  0  0
    3.9707   41.2555   47.4605 C   0  0  0  0  0  3  0  0  0  0  0  0
    3.8442   41.5831   49.7980 C   0  0  0  0  0  3  0  0  0  0  0  0
    5.2944   41.6440   47.5166 C   0  0  0  0  0  3  0  0  0  0  0  0
    5.1723   41.9721   49.8488 C   0  0  0  0  0  3  0  0  0  0  0  0
    6.1604   45.7313   51.9208 O   0  0  0  0  0  0  0  0  0  0  0  0
    4.8373   45.6180   51.4366 C   0  0  0  0  0  2  0  0  0  0  0  0
    3.9965   44.9551   52.5045 C   0  0  0  0  0  3  0  0  0  0  0  0
    2.5164   45.1328   52.2615 C   0  0  0  0  0  2  0  0  0  0  0  0
    4.4047   45.2942   53.8996 C   0  0  0  0  0  2  0  0  0  0  0  0
    1.9371   46.3305   52.9532 C   0  0  0  0  0  2  0  0  0  0  0  0
    3.1603   45.2351   54.7928 C   0  0  0  0  0  2  0  0  0  0  0  0
    2.3183   46.4394   54.3961 C   0  0  0  0  0  2  0  0  0  0  0  0
  1  2  1  0
  1  9  2  0
  2  3  2  0
  3 17  1  0
  4  3  1  0
  4  5  1  0
  5  6  1  0
  7  6  1  0
  8  4  1  0
  8  7  2  0
  9  8  1  0
 10  1  1  0
 11 10  1  0
 11 15  2  0
 12 13  2  0
 13 15  1  0
 14 16  2  0
 14 12  1  0
 16 11  1  0
 18 17  1  0
 19 18  1  0
 20 19  1  0
 20 22  1  0
 21 23  1  0
 21 19  1  0
 24 23  1  0
 24 22  1  0
M  RAD  8   4   2   6   3  12   2  13   2  14   2  15   2  16   2  18   3
M  RAD  6  19   2  20   3  21   3  22   3  23   3  24   3
M  END
>  <REMARK>  (1) 
 SMILES c1ccc(Nc2nc(OCC3CCCCC3)c3[nH]cnc3n2)cc1
 SMILES IDX 6 1 7 2 8 3 17 4 18 5 19 6 20 7 21 8 22 9 5 11 4 13 1 14
 SMILES IDX 2 15 24 16 3 17 23 18 9 19 10 20 11 21 12 22 16 23 13 24
 SMILES IDX 15 25 14 26
 H PARENT 18 10 5 12

>  <TORSDO>  (1) 
F 5

$$$$
