/home/pchatterjee/Documents/git/vs_workflow/DiffDock/diffdock_run/pdbqt_scrubbed/COLIG_2A6.pdbqt
     RDKit          3D

 24 27  0  0  1  0  0  0  0  0999 V2000
    7.6823   43.5415   49.5304 C   0  0  0  0  0  0  0  0  0  0  0  0
    6.6887   44.2136   50.2876 N   0  0  0  0  0  0  0  0  0  0  0  0
    7.0293   45.1395   51.1163 C   0  0  0  0  0  0  0  0  0  0  0  0
    8.3790   45.5044   51.3237 C   0  0  0  0  0  3  0  0  0  0  0  0
    8.8385   46.8080   51.5565 N   0  0  0  0  0  0  0  0  0  0  0  0
   10.2963   46.5084   51.7246 C   0  0  0  0  0  2  0  0  0  0  0  0
   10.5023   45.4448   50.7270 N   0  0  0  0  0  0  0  0  0  0  0  0
    9.3561   44.8485   50.4867 C   0  0  0  0  0  0  0  0  0  0  0  0
    8.9457   43.8116   49.6049 N   0  0  0  0  0  0  0  0  0  0  0  0
    7.3090   42.5059   48.6271 N   0  0  0  0  0  0  0  0  0  0  0  0
    5.9482   42.0748   48.5803 C   0  0  0  0  0  0  0  0  0  0  0  0
    3.2641   41.2161   48.4504 C   0  0  0  0  0  3  0  0  0  0  0  0
    4.0489   41.2146   47.3307 C   0  0  0  0  0  3  0  0  0  0  0  0
    3.8299   41.6515   49.6434 C   0  0  0  0  0  3  0  0  0  0  0  0
    5.3602   41.6384   47.4141 C   0  0  0  0  0  3  0  0  0  0  0  0
    5.1458   42.0756   49.7216 C   0  0  0  0  0  3  0  0  0  0  0  0
    6.0038   45.7856   51.8364 O   0  0  0  0  0  0  0  0  0  0  0  0
    4.6880   45.6146   51.3493 C   0  0  0  0  0  2  0  0  0  0  0  0
    3.8670   44.9423   52.4265 C   0  0  0  0  0  3  0  0  0  0  0  0
    2.3907   45.2281   52.2848 C   0  0  0  0  0  2  0  0  0  0  0  0
    4.3759   45.1685   53.8113 C   0  0  0  0  0  2  0  0  0  0  0  0
    1.9334   46.4155   53.0782 C   0  0  0  0  0  2  0  0  0  0  0  0
    3.1834   45.1339   54.7738 C   0  0  0  0  0  2  0  0  0  0  0  0
    2.4026   46.4112   54.4990 C   0  0  0  0  0  2  0  0  0  0  0  0
  1  2  1  0
  1  9  2  0
  2  3  2  0
  3 17  1  0
  4  3  1  0
  4  5  1  0
  5  6  1  0
  7  6  1  0
  8  4  1  0
  8  7  2  0
  9  8  1  0
 10  1  1  0
 11 10  1  0
 11 15  2  0
 12 13  2  0
 13 15  1  0
 14 16  2  0
 14 12  1  0
 16 11  1  0
 18 17  1  0
 19 18  1  0
 20 19  1  0
 20 22  1  0
 21 23  1  0
 21 19  1  0
 24 23  1  0
 24 22  1  0
M  RAD  8   4   2   6   3  12   2  13   2  14   2  15   2  16   2  18   3
M  RAD  6  19   2  20   3  21   3  22   3  23   3  24   3
M  END
>  <REMARK>  (1) 
 SMILES c1ccc(Nc2nc(OCC3CCCCC3)c3[nH]cnc3n2)cc1
 SMILES IDX 6 1 7 2 8 3 17 4 18 5 19 6 20 7 21 8 22 9 5 11 4 13 1 14
 SMILES IDX 2 15 24 16 3 17 23 18 9 19 10 20 11 21 12 22 16 23 13 24
 SMILES IDX 15 25 14 26
 H PARENT 18 10 5 12

>  <TORSDO>  (1) 
F 5

$$$$
