/home/pchatterjee/Documents/git/vs_workflow/DiffDock/diffdock_run/pdbqt_scrubbed/COLIG_2A6.pdbqt
     RDKit          3D

 24 27  0  0  1  0  0  0  0  0999 V2000
    7.8000   43.3189   49.5380 C   0  0  0  0  0  0  0  0  0  0  0  0
    6.7148   43.9306   50.2166 N   0  0  0  0  0  0  0  0  0  0  0  0
    6.9382   44.8674   51.0725 C   0  0  0  0  0  0  0  0  0  0  0  0
    8.2455   45.3032   51.3867 C   0  0  0  0  0  3  0  0  0  0  0  0
    8.6135   46.6281   51.6592 N   0  0  0  0  0  0  0  0  0  0  0  0
   10.0678   46.4066   51.9408 C   0  0  0  0  0  2  0  0  0  0  0  0
   10.4092   45.3632   50.9592 N   0  0  0  0  0  0  0  0  0  0  0  0
    9.3197   44.7074   50.6274 C   0  0  0  0  0  0  0  0  0  0  0  0
    9.0370   43.6565   49.7127 N   0  0  0  0  0  0  0  0  0  0  0  0
    7.5559   42.2713   48.6049 N   0  0  0  0  0  0  0  0  0  0  0  0
    6.2435   41.7173   48.5020 C   0  0  0  0  0  0  0  0  0  0  0  0
    3.6548   40.6227   48.2605 C   0  0  0  0  0  3  0  0  0  0  0  0
    4.4048   40.8845   47.1477 C   0  0  0  0  0  3  0  0  0  0  0  0
    4.2073   40.9121   49.5030 C   0  0  0  0  0  3  0  0  0  0  0  0
    5.6696   41.4202   47.2859 C   0  0  0  0  0  3  0  0  0  0  0  0
    5.4766   41.4495   49.6362 C   0  0  0  0  0  3  0  0  0  0  0  0
    5.8256   45.4516   51.7114 O   0  0  0  0  0  0  0  0  0  0  0  0
    4.5626   44.8905   51.4151 C   0  0  0  0  0  2  0  0  0  0  0  0
    3.6679   45.0730   52.6204 C   0  0  0  0  0  3  0  0  0  0  0  0
    2.2050   44.9208   52.2770 C   0  0  0  0  0  2  0  0  0  0  0  0
    3.9571   46.3040   53.4136 C   0  0  0  0  0  2  0  0  0  0  0  0
    1.5324   46.2178   51.9398 C   0  0  0  0  0  2  0  0  0  0  0  0
    2.6518   46.7741   54.0653 C   0  0  0  0  0  2  0  0  0  0  0  0
    1.7994   47.3121   52.9248 C   0  0  0  0  0  2  0  0  0  0  0  0
  1  2  1  0
  1  9  2  0
  2  3  2  0
  3 17  1  0
  4  3  1  0
  4  5  1  0
  5  6  1  0
  7  6  1  0
  8  4  1  0
  8  7  2  0
  9  8  1  0
 10  1  1  0
 11 10  1  0
 11 15  2  0
 12 13  2  0
 13 15  1  0
 14 16  2  0
 14 12  1  0
 16 11  1  0
 18 17  1  0
 19 18  1  0
 20 19  1  0
 20 22  1  0
 21 23  1  0
 21 19  1  0
 24 23  1  0
 24 22  1  0
M  RAD  8   4   2   6   3  12   2  13   2  14   2  15   2  16   2  18   3
M  RAD  6  19   2  20   3  21   3  22   3  23   3  24   3
M  END
>  <REMARK>  (1) 
 SMILES c1ccc(Nc2nc(OCC3CCCCC3)c3[nH]cnc3n2)cc1
 SMILES IDX 6 1 7 2 8 3 17 4 18 5 19 6 20 7 21 8 22 9 5 11 4 13 1 14
 SMILES IDX 2 15 24 16 3 17 23 18 9 19 10 20 11 21 12 22 16 23 13 24
 SMILES IDX 15 25 14 26
 H PARENT 18 10 5 12

>  <TORSDO>  (1) 
F 5

$$$$
