/home/pchatterjee/Documents/git/vs_workflow/DiffDock/diffdock_run/pdbqt_scrubbed/COLIG_2A6.pdbqt
     RDKit          3D

 24 27  0  0  1  0  0  0  0  0999 V2000
    7.8163   43.3206   49.6457 C   0  0  0  0  0  0  0  0  0  0  0  0
    6.8535   44.0149   50.4224 N   0  0  0  0  0  0  0  0  0  0  0  0
    7.2312   44.9347   51.2417 C   0  0  0  0  0  0  0  0  0  0  0  0
    8.5923   45.2713   51.4195 C   0  0  0  0  0  3  0  0  0  0  0  0
    9.0842   46.5653   51.6397 N   0  0  0  0  0  0  0  0  0  0  0  0
   10.5386   46.2352   51.7774 C   0  0  0  0  0  2  0  0  0  0  0  0
   10.7007   45.1659   50.7779 N   0  0  0  0  0  0  0  0  0  0  0  0
    9.5373   44.5935   50.5632 C   0  0  0  0  0  0  0  0  0  0  0  0
    9.0864   43.5641   49.6926 N   0  0  0  0  0  0  0  0  0  0  0  0
    7.4020   42.2916   48.7527 N   0  0  0  0  0  0  0  0  0  0  0  0
    6.0371   41.8710   48.7544 C   0  0  0  0  0  0  0  0  0  0  0  0
    3.3390   41.0483   48.7952 C   0  0  0  0  0  3  0  0  0  0  0  0
    3.9442   41.5018   49.9343 C   0  0  0  0  0  3  0  0  0  0  0  0
    4.0926   41.0073   47.6277 C   0  0  0  0  0  3  0  0  0  0  0  0
    5.2655   41.9000   49.8946 C   0  0  0  0  0  3  0  0  0  0  0  0
    5.4177   41.4080   47.5932 C   0  0  0  0  0  3  0  0  0  0  0  0
    6.2352   45.6035   51.9820 O   0  0  0  0  0  0  0  0  0  0  0  0
    4.9194   45.1002   51.8663 C   0  0  0  0  0  2  0  0  0  0  0  0
    3.9868   46.0371   52.6005 C   0  0  0  0  0  3  0  0  0  0  0  0
    4.0682   45.8693   54.0993 C   0  0  0  0  0  2  0  0  0  0  0  0
    2.5854   46.0288   52.0866 C   0  0  0  0  0  2  0  0  0  0  0  0
    3.0634   44.9007   54.6473 C   0  0  0  0  0  2  0  0  0  0  0  0
    1.6439   46.3555   53.2514 C   0  0  0  0  0  2  0  0  0  0  0  0
    1.6702   45.1282   54.1511 C   0  0  0  0  0  2  0  0  0  0  0  0
  1  2  1  0
  1  9  2  0
  2  3  2  0
  3 17  1  0
  4  3  1  0
  4  5  1  0
  5  6  1  0
  7  6  1  0
  8  4  1  0
  8  7  2  0
  9  8  1  0
 10  1  1  0
 11 10  1  0
 11 15  2  0
 12 13  2  0
 13 15  1  0
 14 16  2  0
 14 12  1  0
 16 11  1  0
 18 17  1  0
 19 18  1  0
 20 19  1  0
 20 22  1  0
 21 23  1  0
 21 19  1  0
 24 23  1  0
 24 22  1  0
M  RAD  8   4   2   6   3  12   2  13   2  14   2  15   2  16   2  18   3
M  RAD  6  19   2  20   3  21   3  22   3  23   3  24   3
M  END
>  <REMARK>  (1) 
 SMILES c1ccc(Nc2nc(OCC3CCCCC3)c3[nH]cnc3n2)cc1
 SMILES IDX 6 1 7 2 8 3 17 4 18 5 19 6 20 7 21 8 22 9 5 11 4 13 1 14
 SMILES IDX 2 15 24 16 3 17 23 18 9 19 10 20 11 21 12 22 16 23 13 24
 SMILES IDX 15 25 14 26
 H PARENT 18 10 5 12

>  <TORSDO>  (1) 
F 5

$$$$
