/home/pchatterjee/Documents/git/vs_workflow/DiffDock/diffdock_run/pdbqt_scrubbed/COLIG_2A6.pdbqt
     RDKit          3D

 24 27  0  0  1  0  0  0  0  0999 V2000
    7.6783   43.5450   49.5245 C   0  0  0  0  0  0  0  0  0  0  0  0
    6.6994   44.1995   50.3155 N   0  0  0  0  0  0  0  0  0  0  0  0
    7.0544   45.1152   51.1495 C   0  0  0  0  0  0  0  0  0  0  0  0
    8.4064   45.4857   51.3294 C   0  0  0  0  0  3  0  0  0  0  0  0
    8.8635   46.7887   51.5705 N   0  0  0  0  0  0  0  0  0  0  0  0
   10.3268   46.4961   51.6987 C   0  0  0  0  0  2  0  0  0  0  0  0
   10.5149   45.4488   50.6806 N   0  0  0  0  0  0  0  0  0  0  0  0
    9.3669   44.8486   50.4592 C   0  0  0  0  0  0  0  0  0  0  0  0
    8.9415   43.8223   49.5723 N   0  0  0  0  0  0  0  0  0  0  0  0
    7.2896   42.5205   48.6151 N   0  0  0  0  0  0  0  0  0  0  0  0
    5.9435   42.0432   48.6323 C   0  0  0  0  0  0  0  0  0  0  0  0
    3.2857   41.0976   48.6282 C   0  0  0  0  0  3  0  0  0  0  0  0
    3.9716   41.2471   47.4548 C   0  0  0  0  0  3  0  0  0  0  0  0
    3.9377   41.4247   49.8116 C   0  0  0  0  0  3  0  0  0  0  0  0
    5.2716   41.7113   47.4770 C   0  0  0  0  0  3  0  0  0  0  0  0
    5.2419   41.8899   49.8284 C   0  0  0  0  0  3  0  0  0  0  0  0
    6.0428   45.7438   51.9037 O   0  0  0  0  0  0  0  0  0  0  0  0
    4.7177   45.5814   51.4394 C   0  0  0  0  0  2  0  0  0  0  0  0
    3.9066   44.9314   52.5376 C   0  0  0  0  0  3  0  0  0  0  0  0
    2.4322   45.2369   52.4192 C   0  0  0  0  0  2  0  0  0  0  0  0
    4.4432   45.1638   53.9109 C   0  0  0  0  0  2  0  0  0  0  0  0
    2.0058   46.4383   53.2087 C   0  0  0  0  0  2  0  0  0  0  0  0
    3.2676   45.1555   54.8947 C   0  0  0  0  0  2  0  0  0  0  0  0
    2.5002   46.4412   54.6209 C   0  0  0  0  0  2  0  0  0  0  0  0
  1  2  1  0
  1  9  2  0
  2  3  2  0
  3 17  1  0
  4  3  1  0
  4  5  1  0
  5  6  1  0
  7  6  1  0
  8  4  1  0
  8  7  2  0
  9  8  1  0
 10  1  1  0
 11 10  1  0
 11 15  2  0
 12 13  2  0
 13 15  1  0
 14 16  2  0
 14 12  1  0
 16 11  1  0
 18 17  1  0
 19 18  1  0
 20 19  1  0
 20 22  1  0
 21 23  1  0
 21 19  1  0
 24 23  1  0
 24 22  1  0
M  RAD  8   4   2   6   3  12   2  13   2  14   2  15   2  16   2  18   3
M  RAD  6  19   2  20   3  21   3  22   3  23   3  24   3
M  END
>  <REMARK>  (1) 
 SMILES c1ccc(Nc2nc(OCC3CCCCC3)c3[nH]cnc3n2)cc1
 SMILES IDX 6 1 7 2 8 3 17 4 18 5 19 6 20 7 21 8 22 9 5 11 4 13 1 14
 SMILES IDX 2 15 24 16 3 17 23 18 9 19 10 20 11 21 12 22 16 23 13 24
 SMILES IDX 15 25 14 26
 H PARENT 18 10 5 12

>  <TORSDO>  (1) 
F 5

$$$$
