/home/pchatterjee/Documents/git/vs_workflow/DiffDock/diffdock_run/pdbqt_scrubbed/COLIG_2A6.pdbqt
     RDKit          3D

 24 27  0  0  1  0  0  0  0  0999 V2000
    7.7880   43.3413   49.6154 C   0  0  0  0  0  0  0  0  0  0  0  0
    6.8285   44.0052   50.4223 N   0  0  0  0  0  0  0  0  0  0  0  0
    7.1999   44.9483   51.2176 C   0  0  0  0  0  0  0  0  0  0  0  0
    8.5522   45.3408   51.3394 C   0  0  0  0  0  3  0  0  0  0  0  0
    8.9997   46.6558   51.5282 N   0  0  0  0  0  0  0  0  0  0  0  0
   10.4704   46.3854   51.6126 C   0  0  0  0  0  2  0  0  0  0  0  0
   10.6370   45.3125   50.6177 N   0  0  0  0  0  0  0  0  0  0  0  0
    9.4902   44.6919   50.4537 C   0  0  0  0  0  0  0  0  0  0  0  0
    9.0482   43.6358   49.6109 N   0  0  0  0  0  0  0  0  0  0  0  0
    7.3816   42.2870   48.7489 N   0  0  0  0  0  0  0  0  0  0  0  0
    6.0149   41.8723   48.7442 C   0  0  0  0  0  0  0  0  0  0  0  0
    3.3134   41.0602   48.7726 C   0  0  0  0  0  3  0  0  0  0  0  0
    3.9267   41.4731   49.9228 C   0  0  0  0  0  3  0  0  0  0  0  0
    4.0606   41.0546   47.6002 C   0  0  0  0  0  3  0  0  0  0  0  0
    5.2495   41.8669   49.8890 C   0  0  0  0  0  3  0  0  0  0  0  0
    5.3872   41.4506   47.5718 C   0  0  0  0  0  3  0  0  0  0  0  0
    6.2069   45.5850   51.9896 O   0  0  0  0  0  0  0  0  0  0  0  0
    4.9171   45.0077   51.9571 C   0  0  0  0  0  2  0  0  0  0  0  0
    3.9838   45.8862   52.7594 C   0  0  0  0  0  3  0  0  0  0  0  0
    3.7647   45.3623   54.1589 C   0  0  0  0  0  2  0  0  0  0  0  0
    2.7116   46.2259   52.0565 C   0  0  0  0  0  2  0  0  0  0  0  0
    2.5665   44.4691   54.2816 C   0  0  0  0  0  2  0  0  0  0  0  0
    1.6163   46.4204   53.1113 C   0  0  0  0  0  2  0  0  0  0  0  0
    1.3273   45.0294   53.6576 C   0  0  0  0  0  2  0  0  0  0  0  0
  1  2  1  0
  1  9  2  0
  2  3  2  0
  3 17  1  0
  4  3  1  0
  4  5  1  0
  5  6  1  0
  7  6  1  0
  8  4  1  0
  8  7  2  0
  9  8  1  0
 10  1  1  0
 11 10  1  0
 11 15  2  0
 12 13  2  0
 13 15  1  0
 14 16  2  0
 14 12  1  0
 16 11  1  0
 18 17  1  0
 19 18  1  0
 20 19  1  0
 20 22  1  0
 21 23  1  0
 21 19  1  0
 24 23  1  0
 24 22  1  0
M  RAD  8   4   2   6   3  12   2  13   2  14   2  15   2  16   2  18   3
M  RAD  6  19   2  20   3  21   3  22   3  23   3  24   3
M  END
>  <REMARK>  (1) 
 SMILES c1ccc(Nc2nc(OCC3CCCCC3)c3[nH]cnc3n2)cc1
 SMILES IDX 6 1 7 2 8 3 17 4 18 5 19 6 20 7 21 8 22 9 5 11 4 13 1 14
 SMILES IDX 2 15 24 16 3 17 23 18 9 19 10 20 11 21 12 22 16 23 13 24
 SMILES IDX 15 25 14 26
 H PARENT 18 10 5 12

>  <TORSDO>  (1) 
F 5

$$$$
