/home/pchatterjee/Documents/git/vs_workflow/DiffDock/diffdock_run/pdbqt_scrubbed/COLIG_2A6.pdbqt
     RDKit          3D

 24 27  0  0  1  0  0  0  0  0999 V2000
    7.7639   43.3979   49.6416 C   0  0  0  0  0  0  0  0  0  0  0  0
    6.7704   44.0077   50.4501 N   0  0  0  0  0  0  0  0  0  0  0  0
    7.1002   44.9300   51.2871 C   0  0  0  0  0  0  0  0  0  0  0  0
    8.4390   45.3514   51.4533 C   0  0  0  0  0  3  0  0  0  0  0  0
    8.8483   46.6693   51.6993 N   0  0  0  0  0  0  0  0  0  0  0  0
   10.3233   46.4329   51.8070 C   0  0  0  0  0  2  0  0  0  0  0  0
   10.5389   45.4016   50.7780 N   0  0  0  0  0  0  0  0  0  0  0  0
    9.4123   44.7590   50.5660 C   0  0  0  0  0  0  0  0  0  0  0  0
    9.0159   43.7237   49.6760 N   0  0  0  0  0  0  0  0  0  0  0  0
    7.4036   42.3662   48.7288 N   0  0  0  0  0  0  0  0  0  0  0  0
    6.0423   41.9400   48.6559 C   0  0  0  0  0  0  0  0  0  0  0  0
    3.3581   41.0914   48.4745 C   0  0  0  0  0  3  0  0  0  0  0  0
    4.1623   41.0929   47.3687 C   0  0  0  0  0  3  0  0  0  0  0  0
    3.9043   41.5185   49.6794 C   0  0  0  0  0  3  0  0  0  0  0  0
    5.4734   41.5117   47.4772 C   0  0  0  0  0  3  0  0  0  0  0  0
    5.2200   41.9377   49.7829 C   0  0  0  0  0  3  0  0  0  0  0  0
    6.0747   45.5130   52.0590 O   0  0  0  0  0  0  0  0  0  0  0  0
    4.7979   44.9137   51.9659 C   0  0  0  0  0  2  0  0  0  0  0  0
    3.8166   45.7654   52.7394 C   0  0  0  0  0  3  0  0  0  0  0  0
    3.6598   45.3045   54.1691 C   0  0  0  0  0  2  0  0  0  0  0  0
    2.5114   45.9738   52.0459 C   0  0  0  0  0  2  0  0  0  0  0  0
    2.5322   44.3355   54.3641 C   0  0  0  0  0  2  0  0  0  0  0  0
    1.4227   46.1464   53.1112 C   0  0  0  0  0  2  0  0  0  0  0  0
    1.2452   44.7703   53.7369 C   0  0  0  0  0  2  0  0  0  0  0  0
  1  2  1  0
  1  9  2  0
  2  3  2  0
  3 17  1  0
  4  3  1  0
  4  5  1  0
  5  6  1  0
  7  6  1  0
  8  4  1  0
  8  7  2  0
  9  8  1  0
 10  1  1  0
 11 10  1  0
 11 15  2  0
 12 13  2  0
 13 15  1  0
 14 16  2  0
 14 12  1  0
 16 11  1  0
 18 17  1  0
 19 18  1  0
 20 19  1  0
 20 22  1  0
 21 23  1  0
 21 19  1  0
 24 23  1  0
 24 22  1  0
M  RAD  8   4   2   6   3  12   2  13   2  14   2  15   2  16   2  18   3
M  RAD  6  19   2  20   3  21   3  22   3  23   3  24   3
M  END
>  <REMARK>  (1) 
 SMILES c1ccc(Nc2nc(OCC3CCCCC3)c3[nH]cnc3n2)cc1
 SMILES IDX 6 1 7 2 8 3 17 4 18 5 19 6 20 7 21 8 22 9 5 11 4 13 1 14
 SMILES IDX 2 15 24 16 3 17 23 18 9 19 10 20 11 21 12 22 16 23 13 24
 SMILES IDX 15 25 14 26
 H PARENT 18 10 5 12

>  <TORSDO>  (1) 
F 5

$$$$
