/home/pchatterjee/Documents/git/vs_workflow/DiffDock/diffdock_run/pdbqt_scrubbed/COLIG_2A6.pdbqt
     RDKit          3D

 24 27  0  0  1  0  0  0  0  0999 V2000
    7.7449   43.4231   49.4860 C   0  0  0  0  0  0  0  0  0  0  0  0
    6.7392   44.0575   50.2597 N   0  0  0  0  0  0  0  0  0  0  0  0
    7.0606   44.9827   51.0968 C   0  0  0  0  0  0  0  0  0  0  0  0
    8.4010   45.3835   51.2972 C   0  0  0  0  0  3  0  0  0  0  0  0
    8.8253   46.6969   51.5421 N   0  0  0  0  0  0  0  0  0  0  0  0
   10.2924   46.4371   51.6943 C   0  0  0  0  0  2  0  0  0  0  0  0
   10.5199   45.3919   50.6821 N   0  0  0  0  0  0  0  0  0  0  0  0
    9.3891   44.7660   50.4441 C   0  0  0  0  0  0  0  0  0  0  0  0
    9.0007   43.7284   49.5532 N   0  0  0  0  0  0  0  0  0  0  0  0
    7.3935   42.3882   48.5733 N   0  0  0  0  0  0  0  0  0  0  0  0
    6.0579   41.8820   48.5696 C   0  0  0  0  0  0  0  0  0  0  0  0
    3.4191   40.8850   48.6005 C   0  0  0  0  0  3  0  0  0  0  0  0
    4.0487   41.2203   49.7670 C   0  0  0  0  0  3  0  0  0  0  0  0
    4.1183   41.0510   47.4104 C   0  0  0  0  0  3  0  0  0  0  0  0
    5.3403   41.7066   49.7317 C   0  0  0  0  0  3  0  0  0  0  0  0
    5.4137   41.5393   47.3805 C   0  0  0  0  0  3  0  0  0  0  0  0
    6.0234   45.5905   51.8333 O   0  0  0  0  0  0  0  0  0  0  0  0
    4.7721   44.9331   51.8196 C   0  0  0  0  0  2  0  0  0  0  0  0
    3.8606   45.6279   52.8060 C   0  0  0  0  0  3  0  0  0  0  0  0
    3.1730   44.6553   53.7347 C   0  0  0  0  0  2  0  0  0  0  0  0
    2.9203   46.6055   52.1830 C   0  0  0  0  0  2  0  0  0  0  0  0
    1.8282   44.2095   53.2437 C   0  0  0  0  0  2  0  0  0  0  0  0
    1.6479   46.6600   53.0361 C   0  0  0  0  0  2  0  0  0  0  0  0
    0.9434   45.3316   52.7997 C   0  0  0  0  0  2  0  0  0  0  0  0
  1  2  1  0
  1  9  2  0
  2  3  2  0
  3 17  1  0
  4  3  1  0
  4  5  1  0
  5  6  1  0
  7  6  1  0
  8  4  1  0
  8  7  2  0
  9  8  1  0
 10  1  1  0
 11 10  1  0
 11 15  2  0
 12 13  2  0
 13 15  1  0
 14 16  2  0
 14 12  1  0
 16 11  1  0
 18 17  1  0
 19 18  1  0
 20 19  1  0
 20 22  1  0
 21 23  1  0
 21 19  1  0
 24 23  1  0
 24 22  1  0
M  RAD  8   4   2   6   3  12   2  13   2  14   2  15   2  16   2  18   3
M  RAD  6  19   2  20   3  21   3  22   3  23   3  24   3
M  END
>  <REMARK>  (1) 
 SMILES c1ccc(Nc2nc(OCC3CCCCC3)c3[nH]cnc3n2)cc1
 SMILES IDX 6 1 7 2 8 3 17 4 18 5 19 6 20 7 21 8 22 9 5 11 4 13 1 14
 SMILES IDX 2 15 24 16 3 17 23 18 9 19 10 20 11 21 12 22 16 23 13 24
 SMILES IDX 15 25 14 26
 H PARENT 18 10 5 12

>  <TORSDO>  (1) 
F 5

$$$$
