/home/pchatterjee/Documents/git/vs_workflow/DiffDock/diffdock_run/pdbqt_scrubbed/COLIG_2A6.pdbqt
     RDKit          3D

 24 27  0  0  1  0  0  0  0  0999 V2000
    7.7146   43.4997   49.5458 C   0  0  0  0  0  0  0  0  0  0  0  0
    6.7093   44.1330   50.3209 N   0  0  0  0  0  0  0  0  0  0  0  0
    7.0280   45.0741   51.1411 C   0  0  0  0  0  0  0  0  0  0  0  0
    8.3654   45.4940   51.3215 C   0  0  0  0  0  3  0  0  0  0  0  0
    8.7761   46.8158   51.5430 N   0  0  0  0  0  0  0  0  0  0  0  0
   10.2478   46.5761   51.6834 C   0  0  0  0  0  2  0  0  0  0  0  0
   10.4775   45.5191   50.6840 N   0  0  0  0  0  0  0  0  0  0  0  0
    9.3521   44.8761   50.4670 C   0  0  0  0  0  0  0  0  0  0  0  0
    8.9672   43.8211   49.5953 N   0  0  0  0  0  0  0  0  0  0  0  0
    7.3664   42.4474   48.6519 N   0  0  0  0  0  0  0  0  0  0  0  0
    6.0185   41.9763   48.6165 C   0  0  0  0  0  0  0  0  0  0  0  0
    3.3599   41.0392   48.5089 C   0  0  0  0  0  3  0  0  0  0  0  0
    4.1327   41.0671   47.3813 C   0  0  0  0  0  3  0  0  0  0  0  0
    3.9248   41.4845   49.6986 C   0  0  0  0  0  3  0  0  0  0  0  0
    5.4316   41.5292   47.4538 C   0  0  0  0  0  3  0  0  0  0  0  0
    5.2283   41.9471   49.7658 C   0  0  0  0  0  3  0  0  0  0  0  0
    5.9912   45.6800   51.8796 O   0  0  0  0  0  0  0  0  0  0  0  0
    4.6763   45.4781   51.4018 C   0  0  0  0  0  2  0  0  0  0  0  0
    3.9166   44.6708   52.4302 C   0  0  0  0  0  3  0  0  0  0  0  0
    2.4479   44.5550   52.0976 C   0  0  0  0  0  2  0  0  0  0  0  0
    4.1652   45.0916   53.8406 C   0  0  0  0  0  2  0  0  0  0  0  0
    1.6058   45.6210   52.7325 C   0  0  0  0  0  2  0  0  0  0  0  0
    2.9038   44.7965   54.6601 C   0  0  0  0  0  2  0  0  0  0  0  0
    1.8697   45.8110   54.1930 C   0  0  0  0  0  2  0  0  0  0  0  0
  1  2  1  0
  1  9  2  0
  2  3  2  0
  3 17  1  0
  4  3  1  0
  4  5  1  0
  5  6  1  0
  7  6  1  0
  8  4  1  0
  8  7  2  0
  9  8  1  0
 10  1  1  0
 11 10  1  0
 11 15  2  0
 12 13  2  0
 13 15  1  0
 14 16  2  0
 14 12  1  0
 16 11  1  0
 18 17  1  0
 19 18  1  0
 20 19  1  0
 20 22  1  0
 21 23  1  0
 21 19  1  0
 24 23  1  0
 24 22  1  0
M  RAD  8   4   2   6   3  12   2  13   2  14   2  15   2  16   2  18   3
M  RAD  6  19   2  20   3  21   3  22   3  23   3  24   3
M  END
>  <REMARK>  (1) 
 SMILES c1ccc(Nc2nc(OCC3CCCCC3)c3[nH]cnc3n2)cc1
 SMILES IDX 6 1 7 2 8 3 17 4 18 5 19 6 20 7 21 8 22 9 5 11 4 13 1 14
 SMILES IDX 2 15 24 16 3 17 23 18 9 19 10 20 11 21 12 22 16 23 13 24
 SMILES IDX 15 25 14 26
 H PARENT 18 10 5 12

>  <TORSDO>  (1) 
F 5

$$$$
