/home/pchatterjee/Documents/git/vs_workflow/DiffDock/diffdock_run/pdbqt_scrubbed/COLIG_2A6.pdbqt
     RDKit          3D

 24 27  0  0  1  0  0  0  0  0999 V2000
    7.8221   43.3698   49.7003 C   0  0  0  0  0  0  0  0  0  0  0  0
    6.7756   44.0164   50.4068 N   0  0  0  0  0  0  0  0  0  0  0  0
    7.0518   44.9445   51.2567 C   0  0  0  0  0  0  0  0  0  0  0  0
    8.3805   45.3367   51.5371 C   0  0  0  0  0  3  0  0  0  0  0  0
    8.7990   46.6484   51.8000 N   0  0  0  0  0  0  0  0  0  0  0  0
   10.2519   46.3788   52.0439 C   0  0  0  0  0  2  0  0  0  0  0  0
   10.5332   45.3255   51.0538 N   0  0  0  0  0  0  0  0  0  0  0  0
    9.4144   44.7064   50.7501 C   0  0  0  0  0  0  0  0  0  0  0  0
    9.0737   43.6662   49.8431 N   0  0  0  0  0  0  0  0  0  0  0  0
    7.5195   42.3317   48.7738 N   0  0  0  0  0  0  0  0  0  0  0  0
    6.1665   41.8992   48.6244 C   0  0  0  0  0  0  0  0  0  0  0  0
    3.4882   41.0518   48.3667 C   0  0  0  0  0  3  0  0  0  0  0  0
    3.9710   41.4704   49.5755 C   0  0  0  0  0  3  0  0  0  0  0  0
    4.3550   41.0584   47.2798 C   0  0  0  0  0  3  0  0  0  0  0  0
    5.2847   41.8815   49.6819 C   0  0  0  0  0  3  0  0  0  0  0  0
    5.6718   41.4718   47.3920 C   0  0  0  0  0  3  0  0  0  0  0  0
    5.9760   45.5646   51.9242 O   0  0  0  0  0  0  0  0  0  0  0  0
    4.6871   45.3333   51.3922 C   0  0  0  0  0  2  0  0  0  0  0  0
    3.7810   44.8914   52.5192 C   0  0  0  0  0  3  0  0  0  0  0  0
    2.4240   45.5514   52.4565 C   0  0  0  0  0  2  0  0  0  0  0  0
    4.4075   44.9703   53.8717 C   0  0  0  0  0  2  0  0  0  0  0  0
    2.3352   46.8125   53.2629 C   0  0  0  0  0  2  0  0  0  0  0  0
    3.3023   45.2412   54.8988 C   0  0  0  0  0  2  0  0  0  0  0  0
    2.8656   46.6789   54.6557 C   0  0  0  0  0  2  0  0  0  0  0  0
  1  2  1  0
  1  9  2  0
  2  3  2  0
  3 17  1  0
  4  3  1  0
  4  5  1  0
  5  6  1  0
  7  6  1  0
  8  4  1  0
  8  7  2  0
  9  8  1  0
 10  1  1  0
 11 10  1  0
 11 15  2  0
 12 13  2  0
 13 15  1  0
 14 16  2  0
 14 12  1  0
 16 11  1  0
 18 17  1  0
 19 18  1  0
 20 19  1  0
 20 22  1  0
 21 23  1  0
 21 19  1  0
 24 23  1  0
 24 22  1  0
M  RAD  8   4   2   6   3  12   2  13   2  14   2  15   2  16   2  18   3
M  RAD  6  19   2  20   3  21   3  22   3  23   3  24   3
M  END
>  <REMARK>  (1) 
 SMILES c1ccc(Nc2nc(OCC3CCCCC3)c3[nH]cnc3n2)cc1
 SMILES IDX 6 1 7 2 8 3 17 4 18 5 19 6 20 7 21 8 22 9 5 11 4 13 1 14
 SMILES IDX 2 15 24 16 3 17 23 18 9 19 10 20 11 21 12 22 16 23 13 24
 SMILES IDX 15 25 14 26
 H PARENT 18 10 5 12

>  <TORSDO>  (1) 
F 5

$$$$
