/home/pchatterjee/Documents/git/vs_workflow/DiffDock/diffdock_run/pdbqt_scrubbed/Z1657740785.pdbqt
     RDKit          3D

 25 28  0  0  1  0  0  0  0  0999 V2000
    8.9284   47.0681   52.6682 C   0  0  0  0  0  0  0  0  0  0  0  0
   10.2924   47.1891   52.4987 C   0  0  0  0  0  3  0  0  0  0  0  0
   10.9814   46.4241   51.5523 C   0  0  0  0  0  3  0  0  0  0  0  0
   10.2921   45.5180   50.7577 C   0  0  0  0  0  3  0  0  0  0  0  0
    8.9249   45.3969   50.9279 C   0  0  0  0  0  0  0  0  0  0  0  0
    8.2458   46.1681   51.8784 C   0  0  0  0  0  3  0  0  0  0  0  0
    8.2750   47.9005   53.6772 C   0  0  0  0  0  0  0  0  0  0  0  0
    6.8714   47.8300   53.8940 N   0  0  0  0  0  0  0  0  0  0  0  0
    9.0138   48.6738   54.3356 O   0  0  0  0  0  0  0  0  0  0  0  0
    6.2205   48.9501   54.5321 C   0  0  0  0  0  0  0  0  0  0  0  0
    4.9803   48.9613   54.8038 N   0  0  0  0  0  0  0  0  0  0  0  0
    6.8376   50.1734   54.9472 N   0  0  0  0  0  2  0  0  0  0  0  0
    4.6167   50.2065   55.4354 C   0  0  0  0  0  2  0  0  0  0  0  0
    5.8974   50.7426   55.8529 N   0  0  0  0  0  0  0  0  0  0  0  0
    5.7898   52.1675   55.7065 C   0  0  0  0  0  3  0  0  0  0  0  0
    4.7041   52.8116   56.4913 C   0  0  0  0  0  2  0  0  0  0  0  0
    7.0762   52.9069   55.6245 C   0  0  0  0  0  2  0  0  0  0  0  0
    5.0932   54.1314   57.1046 C   0  0  0  0  0  2  0  0  0  0  0  0
    7.5125   53.6079   56.8641 C   0  0  0  0  0  2  0  0  0  0  0  0
    6.4076   53.9221   57.8242 C   0  0  0  0  0  2  0  0  0  0  0  0
    8.2192   44.4441   50.0880 C   0  0  0  0  0  0  0  0  0  0  0  0
    6.9106   44.1842   50.0837 N   0  0  0  0  0  0  0  0  0  0  0  0
    8.8029   43.6725   49.1753 N   0  0  0  0  0  0  0  0  0  0  0  0
    6.6724   43.2486   49.1675 C   0  0  0  0  0  3  0  0  0  0  0  0
    7.8506   42.9314   48.6033 N   0  0  0  0  0  0  0  0  0  0  0  0
  1  7  1  0
  2  1  2  0
  3  2  1  0
  4  5  1  0
  4  3  2  0
  5  6  2  0
  6  1  1  0
  7  9  2  0
  8  7  1  0
  8 10  1  0
 10 11  2  0
 11 13  1  0
 12 10  1  0
 12 14  1  0
 14 15  1  0
 14 13  1  0
 15 17  1  0
 16 15  1  0
 18 16  1  0
 19 17  1  0
 20 18  1  0
 20 19  1  0
 21  5  1  0
 22 21  2  0
 23 21  1  0
 24 22  1  0
 25 24  2  0
 25 23  1  0
M  RAD  8   2   2   3   2   4   2   6   2  12   2  13   3  15   2  16   3
M  RAD  5  17   3  18   3  19   3  20   3  24   2
M  END
>  <REMARK>  (1) 
 SMILES O=C(Nc1ncn(C2CCCCC2)n1)c1cccc(-c2ncn[nH]2)c1
 SMILES IDX 15 1 16 2 17 3 18 4 19 5 25 6 2 7 3 8 1 9 4 11 5 12 14 13
 SMILES IDX 6 14 7 15 8 16 9 17 13 18 10 19 12 20 11 21 20 22 21 23
 SMILES IDX 24 24 22 25 23 26
 H PARENT 3 10 24 27

>  <TORSDO>  (1) 
F 4

$$$$
