/home/pchatterjee/Documents/git/vs_workflow/DiffDock/diffdock_run/pdbqt_scrubbed/Z1657740785.pdbqt
     RDKit          3D

 25 28  0  0  1  0  0  0  0  0999 V2000
    5.3214   42.0834   48.6744 C   0  0  0  0  0  0  0  0  0  0  0  0
    5.8480   41.5593   47.5117 C   0  0  0  0  0  3  0  0  0  0  0  0
    5.1043   40.7020   46.6946 C   0  0  0  0  0  3  0  0  0  0  0  0
    3.8056   40.3608   47.0472 C   0  0  0  0  0  3  0  0  0  0  0  0
    3.2780   40.8863   48.2128 C   0  0  0  0  0  0  0  0  0  0  0  0
    4.0319   41.7435   49.0228 C   0  0  0  0  0  3  0  0  0  0  0  0
    6.1573   42.9731   49.4790 C   0  0  0  0  0  0  0  0  0  0  0  0
    7.5181   43.2105   49.1414 N   0  0  0  0  0  0  0  0  0  0  0  0
    5.6134   43.5110   50.4750 O   0  0  0  0  0  0  0  0  0  0  0  0
    8.2880   44.0949   49.9845 C   0  0  0  0  0  0  0  0  0  0  0  0
    9.5506   44.1981   49.9011 N   0  0  0  0  0  0  0  0  0  0  0  0
    7.7783   44.9625   51.0028 N   0  0  0  0  0  2  0  0  0  0  0  0
   10.0403   45.1533   50.8653 C   0  0  0  0  0  2  0  0  0  0  0  0
    8.8420   45.8801   51.2365 N   0  0  0  0  0  0  0  0  0  0  0  0
    8.9948   46.1980   52.6290 C   0  0  0  0  0  3  0  0  0  0  0  0
   10.1086   47.1267   52.9554 C   0  0  0  0  0  2  0  0  0  0  0  0
    7.7326   46.3837   53.3910 C   0  0  0  0  0  2  0  0  0  0  0  0
    9.7689   48.1396   54.0174 C   0  0  0  0  0  2  0  0  0  0  0  0
    7.3316   47.7913   53.6670 C   0  0  0  0  0  2  0  0  0  0  0  0
    8.4554   48.7794   53.6241 C   0  0  0  0  0  2  0  0  0  0  0  0
    1.9175   40.5189   48.5667 C   0  0  0  0  0  0  0  0  0  0  0  0
    1.1897   40.9925   49.5795 N   0  0  0  0  0  0  0  0  0  0  0  0
    1.1850   39.6274   47.9050 N   0  0  0  0  0  0  0  0  0  0  0  0
   -0.0009   40.3980   49.5538 C   0  0  0  0  0  3  0  0  0  0  0  0
   -0.0021   39.5490   48.5115 N   0  0  0  0  0  0  0  0  0  0  0  0
  1  7  1  0
  2  1  2  0
  3  2  1  0
  4  5  1  0
  4  3  2  0
  5  6  2  0
  6  1  1  0
  7  9  2  0
  8  7  1  0
  8 10  1  0
 10 11  2  0
 11 13  1  0
 12 10  1  0
 12 14  1  0
 14 15  1  0
 14 13  1  0
 15 17  1  0
 16 15  1  0
 18 16  1  0
 19 17  1  0
 20 18  1  0
 20 19  1  0
 21  5  1  0
 22 21  2  0
 23 21  1  0
 24 22  1  0
 25 24  2  0
 25 23  1  0
M  RAD  8   2   2   3   2   4   2   6   2  12   2  13   3  15   2  16   3
M  RAD  5  17   3  18   3  19   3  20   3  24   2
M  END
>  <REMARK>  (1) 
 SMILES O=C(Nc1ncn(C2CCCCC2)n1)c1cccc(-c2ncn[nH]2)c1
 SMILES IDX 15 1 16 2 17 3 18 4 19 5 25 6 2 7 3 8 1 9 4 11 5 12 14 13
 SMILES IDX 6 14 7 15 8 16 9 17 13 18 10 19 12 20 11 21 20 22 21 23
 SMILES IDX 24 24 22 25 23 26
 H PARENT 3 10 24 27

>  <TORSDO>  (1) 
F 4

$$$$
