/home/pchatterjee/Documents/git/vs_workflow/DiffDock/diffdock_run/pdbqt_scrubbed/Z1657740785.pdbqt
     RDKit          3D

 25 28  0  0  1  0  0  0  0  0999 V2000
    5.0736   42.0092   48.7475 C   0  0  0  0  0  0  0  0  0  0  0  0
    5.4932   41.5437   47.5182 C   0  0  0  0  0  3  0  0  0  0  0  0
    4.6864   40.7079   46.7396 C   0  0  0  0  0  3  0  0  0  0  0  0
    3.4325   40.3290   47.1997 C   0  0  0  0  0  3  0  0  0  0  0  0
    3.0123   40.7957   48.4319 C   0  0  0  0  0  0  0  0  0  0  0  0
    3.8286   41.6319   49.2025 C   0  0  0  0  0  3  0  0  0  0  0  0
    5.9707   42.8796   49.5063 C   0  0  0  0  0  0  0  0  0  0  0  0
    7.3580   42.9520   49.2027 N   0  0  0  0  0  0  0  0  0  0  0  0
    5.4541   43.5533   50.4318 O   0  0  0  0  0  0  0  0  0  0  0  0
    8.1664   43.9093   49.9207 C   0  0  0  0  0  0  0  0  0  0  0  0
    9.3993   44.0888   49.6764 N   0  0  0  0  0  0  0  0  0  0  0  0
    7.7310   44.7753   50.9743 N   0  0  0  0  0  2  0  0  0  0  0  0
    9.9407   45.1030   50.5482 C   0  0  0  0  0  2  0  0  0  0  0  0
    8.7524   45.7648   51.0501 N   0  0  0  0  0  0  0  0  0  0  0  0
    9.0557   46.1358   52.4043 C   0  0  0  0  0  3  0  0  0  0  0  0
   10.2071   47.0608   52.5722 C   0  0  0  0  0  2  0  0  0  0  0  0
    7.8837   46.3699   53.2873 C   0  0  0  0  0  2  0  0  0  0  0  0
    9.9926   48.1201   53.6215 C   0  0  0  0  0  2  0  0  0  0  0  0
    7.5284   47.7930   53.5460 C   0  0  0  0  0  2  0  0  0  0  0  0
    8.6511   48.7624   53.3435 C   0  0  0  0  0  2  0  0  0  0  0  0
    1.6974   40.3894   48.8981 C   0  0  0  0  0  0  0  0  0  0  0  0
    1.0830   40.7721   50.0187 N   0  0  0  0  0  0  0  0  0  0  0  0
    0.8974   39.5494   48.2473 N   0  0  0  0  0  0  0  0  0  0  0  0
   -0.1039   40.1720   50.0717 C   0  0  0  0  0  3  0  0  0  0  0  0
   -0.2177   39.4117   48.9689 N   0  0  0  0  0  0  0  0  0  0  0  0
  1  7  1  0
  2  1  2  0
  3  2  1  0
  4  5  1  0
  4  3  2  0
  5  6  2  0
  6  1  1  0
  7  9  2  0
  8  7  1  0
  8 10  1  0
 10 11  2  0
 11 13  1  0
 12 10  1  0
 12 14  1  0
 14 15  1  0
 14 13  1  0
 15 17  1  0
 16 15  1  0
 18 16  1  0
 19 17  1  0
 20 18  1  0
 20 19  1  0
 21  5  1  0
 22 21  2  0
 23 21  1  0
 24 22  1  0
 25 24  2  0
 25 23  1  0
M  RAD  8   2   2   3   2   4   2   6   2  12   2  13   3  15   2  16   3
M  RAD  5  17   3  18   3  19   3  20   3  24   2
M  END
>  <REMARK>  (1) 
 SMILES O=C(Nc1ncn(C2CCCCC2)n1)c1cccc(-c2ncn[nH]2)c1
 SMILES IDX 15 1 16 2 17 3 18 4 19 5 25 6 2 7 3 8 1 9 4 11 5 12 14 13
 SMILES IDX 6 14 7 15 8 16 9 17 13 18 10 19 12 20 11 21 20 22 21 23
 SMILES IDX 24 24 22 25 23 26
 H PARENT 3 10 24 27

>  <TORSDO>  (1) 
F 4

$$$$
