/home/pchatterjee/Documents/git/vs_workflow/DiffDock/diffdock_run/pdbqt_scrubbed/Z1657740785.pdbqt
     RDKit          3D

 25 28  0  0  1  0  0  0  0  0999 V2000
    5.4184   41.8711   48.9959 C   0  0  0  0  0  0  0  0  0  0  0  0
    6.0063   41.3480   47.8625 C   0  0  0  0  0  3  0  0  0  0  0  0
    5.3467   40.4070   47.0656 C   0  0  0  0  0  3  0  0  0  0  0  0
    4.0713   39.9792   47.4089 C   0  0  0  0  0  3  0  0  0  0  0  0
    3.4822   40.5038   48.5450 C   0  0  0  0  0  0  0  0  0  0  0  0
    4.1522   41.4453   49.3351 C   0  0  0  0  0  3  0  0  0  0  0  0
    6.1678   42.8511   49.7807 C   0  0  0  0  0  0  0  0  0  0  0  0
    7.5874   42.8079   49.8517 N   0  0  0  0  0  0  0  0  0  0  0  0
    5.4959   43.7247   50.3829 O   0  0  0  0  0  0  0  0  0  0  0  0
    8.2938   44.0262   50.1713 C   0  0  0  0  0  0  0  0  0  0  0  0
    9.5496   44.0651   50.3542 N   0  0  0  0  0  0  0  0  0  0  0  0
    7.7224   45.3299   50.3239 N   0  0  0  0  0  2  0  0  0  0  0  0
    9.9705   45.4115   50.6575 C   0  0  0  0  0  2  0  0  0  0  0  0
    8.8390   46.2083   50.2252 N   0  0  0  0  0  0  0  0  0  0  0  0
    8.7575   47.3037   51.1509 C   0  0  0  0  0  3  0  0  0  0  0  0
    7.5292   47.3455   51.9869 C   0  0  0  0  0  2  0  0  0  0  0  0
   10.0293   47.6767   51.8230 C   0  0  0  0  0  2  0  0  0  0  0  0
    7.7758   47.7526   53.4161 C   0  0  0  0  0  2  0  0  0  0  0  0
   10.1946   47.2063   53.2265 C   0  0  0  0  0  2  0  0  0  0  0  0
    8.9125   46.9001   53.9362 C   0  0  0  0  0  2  0  0  0  0  0  0
    2.1472   40.0452   48.8896 C   0  0  0  0  0  0  0  0  0  0  0  0
    1.3816   40.4692   49.8965 N   0  0  0  0  0  0  0  0  0  0  0  0
    1.4818   39.1057   48.2237 N   0  0  0  0  0  0  0  0  0  0  0  0
    0.2343   39.7952   49.8629 C   0  0  0  0  0  3  0  0  0  0  0  0
    0.2983   38.9474   48.8216 N   0  0  0  0  0  0  0  0  0  0  0  0
  1  7  1  0
  2  1  2  0
  3  2  1  0
  4  5  1  0
  4  3  2  0
  5  6  2  0
  6  1  1  0
  7  9  2  0
  8  7  1  0
  8 10  1  0
 10 11  2  0
 11 13  1  0
 12 10  1  0
 12 14  1  0
 14 15  1  0
 14 13  1  0
 15 17  1  0
 16 15  1  0
 18 16  1  0
 19 17  1  0
 20 18  1  0
 20 19  1  0
 21  5  1  0
 22 21  2  0
 23 21  1  0
 24 22  1  0
 25 24  2  0
 25 23  1  0
M  RAD  8   2   2   3   2   4   2   6   2  12   2  13   3  15   2  16   3
M  RAD  5  17   3  18   3  19   3  20   3  24   2
M  END
>  <REMARK>  (1) 
 SMILES O=C(Nc1ncn(C2CCCCC2)n1)c1cccc(-c2ncn[nH]2)c1
 SMILES IDX 15 1 16 2 17 3 18 4 19 5 25 6 2 7 3 8 1 9 4 11 5 12 14 13
 SMILES IDX 6 14 7 15 8 16 9 17 13 18 10 19 12 20 11 21 20 22 21 23
 SMILES IDX 24 24 22 25 23 26
 H PARENT 3 10 24 27

>  <TORSDO>  (1) 
F 4

$$$$
