/home/pchatterjee/Documents/git/vs_workflow/DiffDock/diffdock_run/pdbqt_scrubbed/Z1657740785.pdbqt
     RDKit          3D

 25 28  0  0  1  0  0  0  0  0999 V2000
    5.1247   41.9924   48.7608 C   0  0  0  0  0  0  0  0  0  0  0  0
    5.5487   41.4702   47.5560 C   0  0  0  0  0  3  0  0  0  0  0  0
    4.7305   40.6274   46.7971 C   0  0  0  0  0  3  0  0  0  0  0  0
    3.4606   40.2991   47.2523 C   0  0  0  0  0  3  0  0  0  0  0  0
    3.0361   40.8227   48.4599 C   0  0  0  0  0  0  0  0  0  0  0  0
    3.8638   41.6654   49.2109 C   0  0  0  0  0  3  0  0  0  0  0  0
    6.0343   42.8667   49.5000 C   0  0  0  0  0  0  0  0  0  0  0  0
    7.3674   43.0867   49.0567 N   0  0  0  0  0  0  0  0  0  0  0  0
    5.5784   43.4076   50.5377 O   0  0  0  0  0  0  0  0  0  0  0  0
    8.2069   43.9738   49.8272 C   0  0  0  0  0  0  0  0  0  0  0  0
    9.4647   44.0415   49.6676 N   0  0  0  0  0  0  0  0  0  0  0  0
    7.7795   44.8827   50.8474 N   0  0  0  0  0  2  0  0  0  0  0  0
   10.0335   45.0102   50.5732 C   0  0  0  0  0  2  0  0  0  0  0  0
    8.8773   45.7783   50.9917 N   0  0  0  0  0  0  0  0  0  0  0  0
    9.1195   46.1310   52.3630 C   0  0  0  0  0  3  0  0  0  0  0  0
   10.2877   47.0193   52.5990 C   0  0  0  0  0  2  0  0  0  0  0  0
    7.9100   46.3948   53.1849 C   0  0  0  0  0  2  0  0  0  0  0  0
   10.0498   48.0777   53.6442 C   0  0  0  0  0  2  0  0  0  0  0  0
    7.5844   47.8263   53.4362 C   0  0  0  0  0  2  0  0  0  0  0  0
    8.7448   48.7624   53.3012 C   0  0  0  0  0  2  0  0  0  0  0  0
    1.7044   40.4690   48.9212 C   0  0  0  0  0  0  0  0  0  0  0  0
    1.0695   40.9398   49.9959 N   0  0  0  0  0  0  0  0  0  0  0  0
    0.9073   39.5953   48.3126 N   0  0  0  0  0  0  0  0  0  0  0  0
   -0.1273   40.3613   50.0623 C   0  0  0  0  0  3  0  0  0  0  0  0
   -0.2267   39.5252   49.0144 N   0  0  0  0  0  0  0  0  0  0  0  0
  1  7  1  0
  2  1  2  0
  3  2  1  0
  4  5  1  0
  4  3  2  0
  5  6  2  0
  6  1  1  0
  7  9  2  0
  8  7  1  0
  8 10  1  0
 10 11  2  0
 11 13  1  0
 12 10  1  0
 12 14  1  0
 14 15  1  0
 14 13  1  0
 15 17  1  0
 16 15  1  0
 18 16  1  0
 19 17  1  0
 20 18  1  0
 20 19  1  0
 21  5  1  0
 22 21  2  0
 23 21  1  0
 24 22  1  0
 25 24  2  0
 25 23  1  0
M  RAD  8   2   2   3   2   4   2   6   2  12   2  13   3  15   2  16   3
M  RAD  5  17   3  18   3  19   3  20   3  24   2
M  END
>  <REMARK>  (1) 
 SMILES O=C(Nc1ncn(C2CCCCC2)n1)c1cccc(-c2ncn[nH]2)c1
 SMILES IDX 15 1 16 2 17 3 18 4 19 5 25 6 2 7 3 8 1 9 4 11 5 12 14 13
 SMILES IDX 6 14 7 15 8 16 9 17 13 18 10 19 12 20 11 21 20 22 21 23
 SMILES IDX 24 24 22 25 23 26
 H PARENT 3 10 24 27

>  <TORSDO>  (1) 
F 4

$$$$
