/home/pchatterjee/Documents/git/vs_workflow/DiffDock/diffdock_run/pdbqt_scrubbed/Z1657740785.pdbqt
     RDKit          3D

 25 28  0  0  1  0  0  0  0  0999 V2000
    4.8251   41.9486   49.3856 C   0  0  0  0  0  0  0  0  0  0  0  0
    4.1314   41.1047   50.2286 C   0  0  0  0  0  3  0  0  0  0  0  0
    3.2605   40.1300   49.7314 C   0  0  0  0  0  3  0  0  0  0  0  0
    3.0789   39.9956   48.3616 C   0  0  0  0  0  3  0  0  0  0  0  0
    3.7744   40.8416   47.5170 C   0  0  0  0  0  0  0  0  0  0  0  0
    4.6435   41.8136   48.0261 C   0  0  0  0  0  3  0  0  0  0  0  0
    5.7184   42.9440   49.9766 C   0  0  0  0  0  0  0  0  0  0  0  0
    7.0821   42.6433   50.2447 N   0  0  0  0  0  0  0  0  0  0  0  0
    5.2204   44.0683   50.2320 O   0  0  0  0  0  0  0  0  0  0  0  0
    7.9993   43.7415   50.4398 C   0  0  0  0  0  0  0  0  0  0  0  0
    9.2564   43.5817   50.5191 N   0  0  0  0  0  0  0  0  0  0  0  0
    7.6591   45.1263   50.5664 N   0  0  0  0  0  2  0  0  0  0  0  0
    9.9119   44.8522   50.7138 C   0  0  0  0  0  2  0  0  0  0  0  0
    8.8886   45.8052   50.3308 N   0  0  0  0  0  0  0  0  0  0  0  0
    9.0648   46.9360   51.1990 C   0  0  0  0  0  3  0  0  0  0  0  0
    7.8484   47.3775   51.9302 C   0  0  0  0  0  2  0  0  0  0  0  0
   10.3434   46.9761   51.9551 C   0  0  0  0  0  2  0  0  0  0  0  0
    8.1076   47.7892   53.3559 C   0  0  0  0  0  2  0  0  0  0  0  0
   10.2747   46.5695   53.3863 C   0  0  0  0  0  2  0  0  0  0  0  0
    8.9152   46.6850   54.0024 C   0  0  0  0  0  2  0  0  0  0  0  0
    3.5725   40.6872   46.0864 C   0  0  0  0  0  0  0  0  0  0  0  0
    4.4342   40.9828   45.1117 N   0  0  0  0  0  0  0  0  0  0  0  0
    2.4601   40.2126   45.5328 N   0  0  0  0  0  0  0  0  0  0  0  0
    3.8625   40.6935   43.9451 C   0  0  0  0  0  3  0  0  0  0  0  0
    2.6344   40.2145   44.2088 N   0  0  0  0  0  0  0  0  0  0  0  0
  1  7  1  0
  2  1  2  0
  3  2  1  0
  4  5  1  0
  4  3  2  0
  5  6  2  0
  6  1  1  0
  7  9  2  0
  8  7  1  0
  8 10  1  0
 10 11  2  0
 11 13  1  0
 12 10  1  0
 12 14  1  0
 14 15  1  0
 14 13  1  0
 15 17  1  0
 16 15  1  0
 18 16  1  0
 19 17  1  0
 20 18  1  0
 20 19  1  0
 21  5  1  0
 22 21  2  0
 23 21  1  0
 24 22  1  0
 25 24  2  0
 25 23  1  0
M  RAD  8   2   2   3   2   4   2   6   2  12   2  13   3  15   2  16   3
M  RAD  5  17   3  18   3  19   3  20   3  24   2
M  END
>  <REMARK>  (1) 
 SMILES O=C(Nc1ncn(C2CCCCC2)n1)c1cccc(-c2ncn[nH]2)c1
 SMILES IDX 15 1 16 2 17 3 18 4 19 5 25 6 2 7 3 8 1 9 4 11 5 12 14 13
 SMILES IDX 6 14 7 15 8 16 9 17 13 18 10 19 12 20 11 21 20 22 21 23
 SMILES IDX 24 24 22 25 23 26
 H PARENT 3 10 24 27

>  <TORSDO>  (1) 
F 4

$$$$
