/home/pchatterjee/Documents/git/vs_workflow/DiffDock/diffdock_run/pdbqt_scrubbed/Z1657740785.pdbqt
     RDKit          3D

 25 28  0  0  1  0  0  0  0  0999 V2000
    5.1825   41.8860   48.8155 C   0  0  0  0  0  0  0  0  0  0  0  0
    5.5523   41.3859   47.5838 C   0  0  0  0  0  3  0  0  0  0  0  0
    4.7028   40.5530   46.8488 C   0  0  0  0  0  3  0  0  0  0  0  0
    3.4561   40.2122   47.3559 C   0  0  0  0  0  3  0  0  0  0  0  0
    3.0858   40.7136   48.5905 C   0  0  0  0  0  0  0  0  0  0  0  0
    3.9445   41.5465   49.3172 C   0  0  0  0  0  3  0  0  0  0  0  0
    6.1223   42.7510   49.5271 C   0  0  0  0  0  0  0  0  0  0  0  0
    7.4507   42.9404   49.0564 N   0  0  0  0  0  0  0  0  0  0  0  0
    5.6965   43.3122   50.5668 O   0  0  0  0  0  0  0  0  0  0  0  0
    8.3120   43.8431   49.7835 C   0  0  0  0  0  0  0  0  0  0  0  0
    9.5671   43.8945   49.5986 N   0  0  0  0  0  0  0  0  0  0  0  0
    7.9116   44.7866   50.7830 N   0  0  0  0  0  2  0  0  0  0  0  0
   10.1610   44.8853   50.4632 C   0  0  0  0  0  2  0  0  0  0  0  0
    9.0194   45.6762   50.8793 N   0  0  0  0  0  0  0  0  0  0  0  0
    9.2904   46.0685   52.2344 C   0  0  0  0  0  3  0  0  0  0  0  0
   10.4665   46.9581   52.4205 C   0  0  0  0  0  2  0  0  0  0  0  0
    8.0985   46.3621   53.0720 C   0  0  0  0  0  2  0  0  0  0  0  0
   10.2537   48.0482   53.4382 C   0  0  0  0  0  2  0  0  0  0  0  0
    7.7836   47.8019   53.2868 C   0  0  0  0  0  2  0  0  0  0  0  0
    8.9448   48.7283   53.1009 C   0  0  0  0  0  2  0  0  0  0  0  0
    1.7777   40.3469   49.1061 C   0  0  0  0  0  0  0  0  0  0  0  0
    1.2051   40.7717   50.2337 N   0  0  0  0  0  0  0  0  0  0  0  0
    0.9419   39.5068   48.5022 N   0  0  0  0  0  0  0  0  0  0  0  0
    0.0087   40.1979   50.3380 C   0  0  0  0  0  3  0  0  0  0  0  0
   -0.1535   39.4113   49.2600 N   0  0  0  0  0  0  0  0  0  0  0  0
  1  7  1  0
  2  1  2  0
  3  2  1  0
  4  5  1  0
  4  3  2  0
  5  6  2  0
  6  1  1  0
  7  9  2  0
  8  7  1  0
  8 10  1  0
 10 11  2  0
 11 13  1  0
 12 10  1  0
 12 14  1  0
 14 15  1  0
 14 13  1  0
 15 17  1  0
 16 15  1  0
 18 16  1  0
 19 17  1  0
 20 18  1  0
 20 19  1  0
 21  5  1  0
 22 21  2  0
 23 21  1  0
 24 22  1  0
 25 24  2  0
 25 23  1  0
M  RAD  8   2   2   3   2   4   2   6   2  12   2  13   3  15   2  16   3
M  RAD  5  17   3  18   3  19   3  20   3  24   2
M  END
>  <REMARK>  (1) 
 SMILES O=C(Nc1ncn(C2CCCCC2)n1)c1cccc(-c2ncn[nH]2)c1
 SMILES IDX 15 1 16 2 17 3 18 4 19 5 25 6 2 7 3 8 1 9 4 11 5 12 14 13
 SMILES IDX 6 14 7 15 8 16 9 17 13 18 10 19 12 20 11 21 20 22 21 23
 SMILES IDX 24 24 22 25 23 26
 H PARENT 3 10 24 27

>  <TORSDO>  (1) 
F 4

$$$$
