/home/pchatterjee/Documents/git/vs_workflow/DiffDock/diffdock_run/pdbqt_scrubbed/Z1657740785.pdbqt
     RDKit          3D

 25 28  0  0  1  0  0  0  0  0999 V2000
    5.0866   42.0063   49.3545 C   0  0  0  0  0  0  0  0  0  0  0  0
    4.1443   41.3639   50.1313 C   0  0  0  0  0  3  0  0  0  0  0  0
    3.2723   40.4160   49.5867 C   0  0  0  0  0  3  0  0  0  0  0  0
    3.3434   40.1030   48.2360 C   0  0  0  0  0  3  0  0  0  0  0  0
    4.2880   40.7471   47.4576 C   0  0  0  0  0  0  0  0  0  0  0  0
    5.1557   41.6942   48.0138 C   0  0  0  0  0  3  0  0  0  0  0  0
    5.9650   42.9859   49.9922 C   0  0  0  0  0  0  0  0  0  0  0  0
    7.3799   42.8647   49.9189 N   0  0  0  0  0  0  0  0  0  0  0  0
    5.4071   43.9313   50.6024 O   0  0  0  0  0  0  0  0  0  0  0  0
    8.1835   44.0181   50.2495 C   0  0  0  0  0  0  0  0  0  0  0  0
    9.4529   43.9933   50.2542 N   0  0  0  0  0  0  0  0  0  0  0  0
    7.7043   45.3191   50.6064 N   0  0  0  0  0  2  0  0  0  0  0  0
    9.9781   45.2859   50.6218 C   0  0  0  0  0  2  0  0  0  0  0  0
    8.8387   46.1625   50.4338 N   0  0  0  0  0  0  0  0  0  0  0  0
    8.9408   47.1601   51.4624 C   0  0  0  0  0  3  0  0  0  0  0  0
    7.6567   47.5626   52.0938 C   0  0  0  0  0  2  0  0  0  0  0  0
   10.1137   47.0373   52.3664 C   0  0  0  0  0  2  0  0  0  0  0  0
    7.7465   47.7712   53.5829 C   0  0  0  0  0  2  0  0  0  0  0  0
    9.8505   46.4513   53.7101 C   0  0  0  0  0  2  0  0  0  0  0  0
    8.4284   46.5531   54.1668 C   0  0  0  0  0  2  0  0  0  0  0  0
    4.3486   40.4076   46.0462 C   0  0  0  0  0  0  0  0  0  0  0  0
    5.4366   40.3393   45.2771 N   0  0  0  0  0  0  0  0  0  0  0  0
    3.2888   40.1075   45.3007 N   0  0  0  0  0  0  0  0  0  0  0  0
    5.0597   39.9960   44.0476 C   0  0  0  0  0  3  0  0  0  0  0  0
    3.7232   39.8522   44.0640 N   0  0  0  0  0  0  0  0  0  0  0  0
  1  7  1  0
  2  1  2  0
  3  2  1  0
  4  5  1  0
  4  3  2  0
  5  6  2  0
  6  1  1  0
  7  9  2  0
  8  7  1  0
  8 10  1  0
 10 11  2  0
 11 13  1  0
 12 10  1  0
 12 14  1  0
 14 15  1  0
 14 13  1  0
 15 17  1  0
 16 15  1  0
 18 16  1  0
 19 17  1  0
 20 18  1  0
 20 19  1  0
 21  5  1  0
 22 21  2  0
 23 21  1  0
 24 22  1  0
 25 24  2  0
 25 23  1  0
M  RAD  8   2   2   3   2   4   2   6   2  12   2  13   3  15   2  16   3
M  RAD  5  17   3  18   3  19   3  20   3  24   2
M  END
>  <REMARK>  (1) 
 SMILES O=C(Nc1ncn(C2CCCCC2)n1)c1cccc(-c2ncn[nH]2)c1
 SMILES IDX 15 1 16 2 17 3 18 4 19 5 25 6 2 7 3 8 1 9 4 11 5 12 14 13
 SMILES IDX 6 14 7 15 8 16 9 17 13 18 10 19 12 20 11 21 20 22 21 23
 SMILES IDX 24 24 22 25 23 26
 H PARENT 3 10 24 27

>  <TORSDO>  (1) 
F 4

$$$$
