/home/pchatterjee/Documents/git/vs_workflow/DiffDock/diffdock_run/pdbqt_scrubbed/Z1657740785.pdbqt
     RDKit          3D

 25 28  0  0  1  0  0  0  0  0999 V2000
    5.1343   41.9963   48.7792 C   0  0  0  0  0  0  0  0  0  0  0  0
    5.5256   41.4881   47.5575 C   0  0  0  0  0  3  0  0  0  0  0  0
    4.6944   40.6395   46.8195 C   0  0  0  0  0  3  0  0  0  0  0  0
    3.4445   40.2910   47.3133 C   0  0  0  0  0  3  0  0  0  0  0  0
    3.0527   40.8005   48.5379 C   0  0  0  0  0  0  0  0  0  0  0  0
    3.8932   41.6491   49.2678 C   0  0  0  0  0  3  0  0  0  0  0  0
    6.0558   42.8776   49.4948 C   0  0  0  0  0  0  0  0  0  0  0  0
    7.4244   42.9729   49.1205 N   0  0  0  0  0  0  0  0  0  0  0  0
    5.5774   43.5396   50.4488 O   0  0  0  0  0  0  0  0  0  0  0  0
    8.2590   43.9248   49.8151 C   0  0  0  0  0  0  0  0  0  0  0  0
    9.5018   44.0459   49.5856 N   0  0  0  0  0  0  0  0  0  0  0  0
    7.8420   44.8478   50.8269 N   0  0  0  0  0  2  0  0  0  0  0  0
   10.0695   45.0713   50.4271 C   0  0  0  0  0  2  0  0  0  0  0  0
    8.9009   45.7985   50.8824 N   0  0  0  0  0  0  0  0  0  0  0  0
    9.1973   46.2099   52.2265 C   0  0  0  0  0  3  0  0  0  0  0  0
   10.3656   47.1167   52.3756 C   0  0  0  0  0  2  0  0  0  0  0  0
    8.0210   46.4980   53.0876 C   0  0  0  0  0  2  0  0  0  0  0  0
   10.1617   48.2158   53.3854 C   0  0  0  0  0  2  0  0  0  0  0  0
    7.6922   47.9360   53.2931 C   0  0  0  0  0  2  0  0  0  0  0  0
    8.8367   48.8750   53.0703 C   0  0  0  0  0  2  0  0  0  0  0  0
    1.7416   40.4256   49.0398 C   0  0  0  0  0  0  0  0  0  0  0  0
    1.1619   40.8328   50.1703 N   0  0  0  0  0  0  0  0  0  0  0  0
    0.9099   39.5947   48.4178 N   0  0  0  0  0  0  0  0  0  0  0  0
   -0.0349   40.2571   50.2583 C   0  0  0  0  0  3  0  0  0  0  0  0
   -0.1902   39.4872   49.1672 N   0  0  0  0  0  0  0  0  0  0  0  0
  1  7  1  0
  2  1  2  0
  3  2  1  0
  4  5  1  0
  4  3  2  0
  5  6  2  0
  6  1  1  0
  7  9  2  0
  8  7  1  0
  8 10  1  0
 10 11  2  0
 11 13  1  0
 12 10  1  0
 12 14  1  0
 14 15  1  0
 14 13  1  0
 15 17  1  0
 16 15  1  0
 18 16  1  0
 19 17  1  0
 20 18  1  0
 20 19  1  0
 21  5  1  0
 22 21  2  0
 23 21  1  0
 24 22  1  0
 25 24  2  0
 25 23  1  0
M  RAD  8   2   2   3   2   4   2   6   2  12   2  13   3  15   2  16   3
M  RAD  5  17   3  18   3  19   3  20   3  24   2
M  END
>  <REMARK>  (1) 
 SMILES O=C(Nc1ncn(C2CCCCC2)n1)c1cccc(-c2ncn[nH]2)c1
 SMILES IDX 15 1 16 2 17 3 18 4 19 5 25 6 2 7 3 8 1 9 4 11 5 12 14 13
 SMILES IDX 6 14 7 15 8 16 9 17 13 18 10 19 12 20 11 21 20 22 21 23
 SMILES IDX 24 24 22 25 23 26
 H PARENT 3 10 24 27

>  <TORSDO>  (1) 
F 4

$$$$
