/home/pchatterjee/Documents/git/vs_workflow/DiffDock/diffdock_run/pdbqt_scrubbed/Z1657740785.pdbqt
     RDKit          3D

 25 28  0  0  1  0  0  0  0  0999 V2000
    5.3184   41.8834   48.6917 C   0  0  0  0  0  0  0  0  0  0  0  0
    5.8487   41.3651   47.5280 C   0  0  0  0  0  3  0  0  0  0  0  0
    5.1173   40.4903   46.7185 C   0  0  0  0  0  3  0  0  0  0  0  0
    3.8274   40.1252   47.0798 C   0  0  0  0  0  3  0  0  0  0  0  0
    3.2963   40.6449   48.2463 C   0  0  0  0  0  0  0  0  0  0  0  0
    4.0378   41.5198   49.0487 C   0  0  0  0  0  3  0  0  0  0  0  0
    6.1414   42.7924   49.4882 C   0  0  0  0  0  0  0  0  0  0  0  0
    7.5301   42.9499   49.2260 N   0  0  0  0  0  0  0  0  0  0  0  0
    5.5606   43.4204   50.4077 O   0  0  0  0  0  0  0  0  0  0  0  0
    8.2544   43.9614   49.9592 C   0  0  0  0  0  0  0  0  0  0  0  0
    9.4679   44.2479   49.7197 N   0  0  0  0  0  0  0  0  0  0  0  0
    7.7468   44.7722   51.0243 N   0  0  0  0  0  2  0  0  0  0  0  0
    9.9212   45.2914   50.6070 C   0  0  0  0  0  2  0  0  0  0  0  0
    8.6810   45.8432   51.1163 N   0  0  0  0  0  0  0  0  0  0  0  0
    8.9511   46.2188   52.4762 C   0  0  0  0  0  3  0  0  0  0  0  0
   10.0228   47.2323   52.6598 C   0  0  0  0  0  2  0  0  0  0  0  0
    7.7627   46.3439   53.3595 C   0  0  0  0  0  2  0  0  0  0  0  0
    9.7209   48.2558   53.7231 C   0  0  0  0  0  2  0  0  0  0  0  0
    7.2918   47.7294   53.6369 C   0  0  0  0  0  2  0  0  0  0  0  0
    8.3318   48.7901   53.4507 C   0  0  0  0  0  2  0  0  0  0  0  0
    1.9452   40.2524   48.6094 C   0  0  0  0  0  0  0  0  0  0  0  0
    1.1000   39.5077   47.8946 N   0  0  0  0  0  0  0  0  0  0  0  0
    1.3445   40.5945   49.7457 N   0  0  0  0  0  0  0  0  0  0  0  0
   -0.0324   39.3821   48.5826 C   0  0  0  0  0  3  0  0  0  0  0  0
    0.1213   40.0588   49.7340 N   0  0  0  0  0  0  0  0  0  0  0  0
  1  7  1  0
  2  1  2  0
  3  2  1  0
  4  5  1  0
  4  3  2  0
  5  6  2  0
  6  1  1  0
  7  9  2  0
  8  7  1  0
  8 10  1  0
 10 11  2  0
 11 13  1  0
 12 10  1  0
 12 14  1  0
 14 15  1  0
 14 13  1  0
 15 17  1  0
 16 15  1  0
 18 16  1  0
 19 17  1  0
 20 18  1  0
 20 19  1  0
 21  5  1  0
 22 21  2  0
 23 21  1  0
 24 22  1  0
 25 24  2  0
 25 23  1  0
M  RAD  8   2   2   3   2   4   2   6   2  12   2  13   3  15   2  16   3
M  RAD  5  17   3  18   3  19   3  20   3  24   2
M  END
>  <REMARK>  (1) 
 SMILES O=C(Nc1ncn(C2CCCCC2)n1)c1cccc(-c2ncn[nH]2)c1
 SMILES IDX 15 1 16 2 17 3 18 4 19 5 25 6 2 7 3 8 1 9 4 11 5 12 14 13
 SMILES IDX 6 14 7 15 8 16 9 17 13 18 10 19 12 20 11 21 20 22 21 23
 SMILES IDX 24 24 22 25 23 26
 H PARENT 3 10 24 27

>  <TORSDO>  (1) 
F 4

$$$$
