/home/pchatterjee/Documents/git/vs_workflow/DiffDock/diffdock_run/pdbqt_scrubbed/Z2636563025.pdbqt
     RDKit          3D

 22 25  0  0  1  0  0  0  0  0999 V2000
    4.5408   44.7915   51.3936 N   0  0  0  0  0  0  0  0  0  0  0  0
    3.3308   45.5548   51.3842 C   0  0  0  0  0  2  0  0  0  0  0  0
    2.4051   45.1256   52.4961 C   0  0  0  0  0  2  0  0  0  0  0  0
    2.8209   43.7673   52.9610 C   0  0  0  0  0  2  0  0  0  0  0  0
    3.2533   42.8393   51.8613 C   0  0  0  0  0  3  0  0  0  0  0  0
    4.4469   43.3609   51.1099 C   0  0  0  0  0  2  0  0  0  0  0  0
    5.8147   45.3161   51.6559 C   0  0  0  0  0  0  0  0  0  0  0  0
    5.9176   46.1312   52.6344 O   0  0  0  0  0  0  0  0  0  0  0  0
    6.9910   44.9688   50.8679 C   0  0  0  0  0  0  0  0  0  0  0  0
    6.9431   44.1073   49.8234 N   0  0  0  0  0  0  0  0  0  0  0  0
    8.2111   45.5274   51.1806 C   0  0  0  0  0  0  0  0  0  0  0  0
    8.0668   43.8384   49.1484 C   0  0  0  0  0  3  0  0  0  0  0  0
    8.5341   46.4308   52.1917 C   0  0  0  0  0  3  0  0  0  0  0  0
    9.3617   45.2286   50.4605 C   0  0  0  0  0  0  0  0  0  0  0  0
    9.2726   44.3606   49.4209 N   0  0  0  0  0  0  0  0  0  0  0  0
    9.9030   46.6535   52.0456 C   0  0  0  0  0  3  0  0  0  0  0  0
   10.3729   45.9290   51.0111 N   0  0  0  0  0  0  0  0  0  0  0  0
    2.2327   42.6081   50.9377 O   0  0  0  0  0  0  0  0  0  0  0  0
    2.4482   41.2810   50.5003 C   0  0  0  0  0  2  0  0  0  0  0  0
    3.4024   41.4242   49.3143 C   0  0  0  0  0  3  0  0  0  0  0  0
    2.7441   40.8061   48.0384 C   0  0  0  0  0  2  0  0  0  0  0  0
    2.8583   42.2692   48.1853 C   0  0  0  0  0  2  0  0  0  0  0  0
  1  7  1  0
  1  6  1  0
  2  1  1  0
  3  2  1  0
  3  4  1  0
  4  5  1  0
  5 18  1  0
  6  5  1  0
  7  9  1  0
  8  7  2  0
  9 11  1  0
  9 10  2  0
 10 12  1  0
 11 14  2  0
 12 15  2  0
 13 11  1  0
 13 16  2  0
 14 17  1  0
 14 15  1  0
 16 17  1  0
 18 19  1  0
 20 19  1  0
 21 20  1  0
 22 21  1  0
 22 20  1  0
M  RAD  8   2   3   3   3   4   3   5   2   6   3  12   2  13   2  16   2
M  RAD  4  19   3  20   2  21   3  22   3
M  END
>  <REMARK>  (1) 
 SMILES O=C(c1ncnc2[nH]ccc12)N1CCCC(OCC2CC2)C1
 SMILES IDX 12 1 13 2 14 3 15 4 16 5 22 6 2 7 1 8 3 9 4 10 11 11 5 12
 SMILES IDX 10 13 7 14 6 15 9 16 8 17 17 19 18 20 19 21 20 22 21 23
 H PARENT 8 18

>  <TORSDO>  (1) 
F 5

$$$$
