/home/pchatterjee/Documents/git/vs_workflow/DiffDock/diffdock_run/pdbqt_scrubbed/Z2636563025.pdbqt
     RDKit          3D

 22 25  0  0  1  0  0  0  0  0999 V2000
    4.6884   45.2246   51.5809 N   0  0  0  0  0  0  0  0  0  0  0  0
    3.5160   46.0244   51.7612 C   0  0  0  0  0  2  0  0  0  0  0  0
    2.6692   45.5050   52.8971 C   0  0  0  0  0  2  0  0  0  0  0  0
    3.0635   44.0899   53.1734 C   0  0  0  0  0  2  0  0  0  0  0  0
    3.3615   43.2767   51.9456 C   0  0  0  0  0  3  0  0  0  0  0  0
    4.5093   43.8387   51.1530 C   0  0  0  0  0  2  0  0  0  0  0  0
    6.0012   45.6733   51.7853 C   0  0  0  0  0  0  0  0  0  0  0  0
    6.1947   46.4829   52.7546 O   0  0  0  0  0  0  0  0  0  0  0  0
    7.1195   45.2553   50.9486 C   0  0  0  0  0  0  0  0  0  0  0  0
    6.9582   44.4964   49.8380 N   0  0  0  0  0  0  0  0  0  0  0  0
    8.4010   45.6359   51.2823 C   0  0  0  0  0  0  0  0  0  0  0  0
    8.0347   44.1528   49.1214 C   0  0  0  0  0  3  0  0  0  0  0  0
    8.8403   46.4062   52.3577 C   0  0  0  0  0  3  0  0  0  0  0  0
    9.5003   45.2633   50.5178 C   0  0  0  0  0  0  0  0  0  0  0  0
    9.2972   44.5025   49.4124 N   0  0  0  0  0  0  0  0  0  0  0  0
   10.2246   46.4752   52.2037 C   0  0  0  0  0  3  0  0  0  0  0  0
   10.5938   45.7891   51.1043 N   0  0  0  0  0  0  0  0  0  0  0  0
    2.2580   43.1848   51.0960 O   0  0  0  0  0  0  0  0  0  0  0  0
    2.8103   42.8576   49.8364 C   0  0  0  0  0  2  0  0  0  0  0  0
    2.7814   41.3294   49.7964 C   0  0  0  0  0  3  0  0  0  0  0  0
    3.7541   40.8190   48.6842 C   0  0  0  0  0  2  0  0  0  0  0  0
    4.1105   40.6807   50.1088 C   0  0  0  0  0  2  0  0  0  0  0  0
  1  7  1  0
  1  6  1  0
  2  1  1  0
  3  2  1  0
  3  4  1  0
  4  5  1  0
  5 18  1  0
  6  5  1  0
  7  9  1  0
  8  7  2  0
  9 11  1  0
  9 10  2  0
 10 12  1  0
 11 14  2  0
 12 15  2  0
 13 11  1  0
 13 16  2  0
 14 17  1  0
 14 15  1  0
 16 17  1  0
 18 19  1  0
 20 19  1  0
 21 20  1  0
 22 21  1  0
 22 20  1  0
M  RAD  8   2   3   3   3   4   3   5   2   6   3  12   2  13   2  16   2
M  RAD  4  19   3  20   2  21   3  22   3
M  END
>  <REMARK>  (1) 
 SMILES O=C(c1ncnc2[nH]ccc12)N1CCCC(OCC2CC2)C1
 SMILES IDX 12 1 13 2 14 3 15 4 16 5 22 6 2 7 1 8 3 9 4 10 11 11 5 12
 SMILES IDX 10 13 7 14 6 15 9 16 8 17 17 19 18 20 19 21 20 22 21 23
 H PARENT 8 18

>  <TORSDO>  (1) 
F 5

$$$$
