/home/pchatterjee/Documents/git/vs_workflow/DiffDock/diffdock_run/pdbqt_scrubbed/Z2636563025.pdbqt
     RDKit          3D

 22 25  0  0  1  0  0  0  0  0999 V2000
    4.6548   45.0808   51.4982 N   0  0  0  0  0  0  0  0  0  0  0  0
    3.4625   45.8615   51.6235 C   0  0  0  0  0  2  0  0  0  0  0  0
    2.5986   45.3622   52.7556 C   0  0  0  0  0  2  0  0  0  0  0  0
    3.0143   43.9656   53.0884 C   0  0  0  0  0  2  0  0  0  0  0  0
    3.3587   43.1188   51.8960 C   0  0  0  0  0  3  0  0  0  0  0  0
    4.5142   43.6781   51.1128 C   0  0  0  0  0  2  0  0  0  0  0  0
    5.9530   45.5633   51.7188 C   0  0  0  0  0  0  0  0  0  0  0  0
    6.1020   46.4271   52.6485 O   0  0  0  0  0  0  0  0  0  0  0  0
    7.1042   45.1212   50.9413 C   0  0  0  0  0  0  0  0  0  0  0  0
    6.9952   44.2697   49.8932 N   0  0  0  0  0  0  0  0  0  0  0  0
    8.3634   45.5750   51.2681 C   0  0  0  0  0  0  0  0  0  0  0  0
    8.0993   43.9098   49.2284 C   0  0  0  0  0  3  0  0  0  0  0  0
    8.7504   46.4453   52.2858 C   0  0  0  0  0  3  0  0  0  0  0  0
    9.4924   45.1832   50.5585 C   0  0  0  0  0  0  0  0  0  0  0  0
    9.3417   44.3286   49.5149 N   0  0  0  0  0  0  0  0  0  0  0  0
   10.1345   46.5533   52.1542 C   0  0  0  0  0  3  0  0  0  0  0  0
   10.5528   45.7950   51.1218 N   0  0  0  0  0  0  0  0  0  0  0  0
    2.2786   42.9758   51.0238 O   0  0  0  0  0  0  0  0  0  0  0  0
    2.3860   41.6499   50.5452 C   0  0  0  0  0  2  0  0  0  0  0  0
    2.9659   41.8016   49.1386 C   0  0  0  0  0  3  0  0  0  0  0  0
    4.3845   41.1473   49.0865 C   0  0  0  0  0  2  0  0  0  0  0  0
    3.2345   40.4889   48.4390 C   0  0  0  0  0  2  0  0  0  0  0  0
  1  7  1  0
  1  6  1  0
  2  1  1  0
  3  2  1  0
  3  4  1  0
  4  5  1  0
  5 18  1  0
  6  5  1  0
  7  9  1  0
  8  7  2  0
  9 11  1  0
  9 10  2  0
 10 12  1  0
 11 14  2  0
 12 15  2  0
 13 11  1  0
 13 16  2  0
 14 17  1  0
 14 15  1  0
 16 17  1  0
 18 19  1  0
 20 19  1  0
 21 20  1  0
 22 21  1  0
 22 20  1  0
M  RAD  8   2   3   3   3   4   3   5   2   6   3  12   2  13   2  16   2
M  RAD  4  19   3  20   2  21   3  22   3
M  END
>  <REMARK>  (1) 
 SMILES O=C(c1ncnc2[nH]ccc12)N1CCCC(OCC2CC2)C1
 SMILES IDX 12 1 13 2 14 3 15 4 16 5 22 6 2 7 1 8 3 9 4 10 11 11 5 12
 SMILES IDX 10 13 7 14 6 15 9 16 8 17 17 19 18 20 19 21 20 22 21 23
 H PARENT 8 18

>  <TORSDO>  (1) 
F 5

$$$$
