/home/pchatterjee/Documents/git/vs_workflow/DiffDock/diffdock_run/pdbqt_scrubbed/Z2636563025.pdbqt
     RDKit          3D

 22 25  0  0  1  0  0  0  0  0999 V2000
    4.7964   44.9993   52.1096 N   0  0  0  0  0  0  0  0  0  0  0  0
    4.1594   44.0739   51.2237 C   0  0  0  0  0  2  0  0  0  0  0  0
    2.8396   44.6120   50.7279 C   0  0  0  0  0  2  0  0  0  0  0  0
    2.3981   45.7050   51.6469 C   0  0  0  0  0  2  0  0  0  0  0  0
    2.6732   45.4436   53.1008 C   0  0  0  0  0  3  0  0  0  0  0  0
    4.1414   45.2840   53.3846 C   0  0  0  0  0  2  0  0  0  0  0  0
    6.0069   45.6558   51.8441 C   0  0  0  0  0  0  0  0  0  0  0  0
    6.1964   46.7809   52.4191 O   0  0  0  0  0  0  0  0  0  0  0  0
    7.0259   45.1082   50.9569 C   0  0  0  0  0  0  0  0  0  0  0  0
    6.7615   44.1350   50.0523 N   0  0  0  0  0  0  0  0  0  0  0  0
    8.3169   45.5847   51.0243 C   0  0  0  0  0  0  0  0  0  0  0  0
    7.7509   43.6834   49.2729 C   0  0  0  0  0  3  0  0  0  0  0  0
    8.8511   46.5697   51.8534 C   0  0  0  0  0  3  0  0  0  0  0  0
    9.3242   45.0956   50.2010 C   0  0  0  0  0  0  0  0  0  0  0  0
    9.0193   44.1205   49.3076 N   0  0  0  0  0  0  0  0  0  0  0  0
   10.1966   46.6451   51.4948 C   0  0  0  0  0  3  0  0  0  0  0  0
   10.4546   45.7604   50.5116 N   0  0  0  0  0  0  0  0  0  0  0  0
    2.0206   44.2990   53.5612 O   0  0  0  0  0  0  0  0  0  0  0  0
    2.2691   44.2883   54.9529 C   0  0  0  0  0  2  0  0  0  0  0  0
    1.3492   45.3754   55.5095 C   0  0  0  0  0  3  0  0  0  0  0  0
    1.2413   45.2223   57.0614 C   0  0  0  0  0  2  0  0  0  0  0  0
    2.0281   46.3222   56.4725 C   0  0  0  0  0  2  0  0  0  0  0  0
  1  7  1  0
  1  6  1  0
  2  1  1  0
  3  2  1  0
  3  4  1  0
  4  5  1  0
  5 18  1  0
  6  5  1  0
  7  9  1  0
  8  7  2  0
  9 11  1  0
  9 10  2  0
 10 12  1  0
 11 14  2  0
 12 15  2  0
 13 11  1  0
 13 16  2  0
 14 17  1  0
 14 15  1  0
 16 17  1  0
 18 19  1  0
 20 19  1  0
 21 20  1  0
 22 21  1  0
 22 20  1  0
M  RAD  8   2   3   3   3   4   3   5   2   6   3  12   2  13   2  16   2
M  RAD  4  19   3  20   2  21   3  22   3
M  END
>  <REMARK>  (1) 
 SMILES O=C(c1ncnc2[nH]ccc12)N1CCCC(OCC2CC2)C1
 SMILES IDX 12 1 13 2 14 3 15 4 16 5 22 6 2 7 1 8 3 9 4 10 11 11 5 12
 SMILES IDX 10 13 7 14 6 15 9 16 8 17 17 19 18 20 19 21 20 22 21 23
 H PARENT 8 18

>  <TORSDO>  (1) 
F 5

$$$$
