/home/pchatterjee/Documents/git/vs_workflow/DiffDock/diffdock_run/pdbqt_scrubbed/Z2636563025.pdbqt
     RDKit          3D

 22 25  0  0  1  0  0  0  0  0999 V2000
    4.7251   45.1519   51.6479 N   0  0  0  0  0  0  0  0  0  0  0  0
    3.5784   45.9909   51.8143 C   0  0  0  0  0  2  0  0  0  0  0  0
    2.7268   45.5296   52.9715 C   0  0  0  0  0  2  0  0  0  0  0  0
    3.0817   44.1120   53.2855 C   0  0  0  0  0  2  0  0  0  0  0  0
    3.3449   43.2554   52.0794 C   0  0  0  0  0  3  0  0  0  0  0  0
    4.5017   43.7602   51.2617 C   0  0  0  0  0  2  0  0  0  0  0  0
    6.0524   45.5672   51.8287 C   0  0  0  0  0  0  0  0  0  0  0  0
    6.2748   46.4147   52.7587 O   0  0  0  0  0  0  0  0  0  0  0  0
    7.1540   45.0748   51.0106 C   0  0  0  0  0  0  0  0  0  0  0  0
    6.9693   44.2313   49.9666 N   0  0  0  0  0  0  0  0  0  0  0  0
    8.4433   45.4701   51.2928 C   0  0  0  0  0  0  0  0  0  0  0  0
    8.0316   43.8229   49.2630 C   0  0  0  0  0  3  0  0  0  0  0  0
    8.9054   46.3198   52.2965 C   0  0  0  0  0  3  0  0  0  0  0  0
    9.5274   45.0287   50.5434 C   0  0  0  0  0  0  0  0  0  0  0  0
    9.3011   44.1841   49.5054 N   0  0  0  0  0  0  0  0  0  0  0  0
   10.2874   46.3648   52.1159 C   0  0  0  0  0  3  0  0  0  0  0  0
   10.6340   45.5904   51.0690 N   0  0  0  0  0  0  0  0  0  0  0  0
    2.2318   43.1718   51.2416 O   0  0  0  0  0  0  0  0  0  0  0  0
    2.7741   42.9238   49.9598 C   0  0  0  0  0  2  0  0  0  0  0  0
    2.7774   41.3996   49.8393 C   0  0  0  0  0  3  0  0  0  0  0  0
    3.7865   40.9672   48.7265 C   0  0  0  0  0  2  0  0  0  0  0  0
    4.1116   40.7608   50.1503 C   0  0  0  0  0  2  0  0  0  0  0  0
  1  7  1  0
  1  6  1  0
  2  1  1  0
  3  2  1  0
  3  4  1  0
  4  5  1  0
  5 18  1  0
  6  5  1  0
  7  9  1  0
  8  7  2  0
  9 11  1  0
  9 10  2  0
 10 12  1  0
 11 14  2  0
 12 15  2  0
 13 11  1  0
 13 16  2  0
 14 17  1  0
 14 15  1  0
 16 17  1  0
 18 19  1  0
 20 19  1  0
 21 20  1  0
 22 21  1  0
 22 20  1  0
M  RAD  8   2   3   3   3   4   3   5   2   6   3  12   2  13   2  16   2
M  RAD  4  19   3  20   2  21   3  22   3
M  END
>  <REMARK>  (1) 
 SMILES O=C(c1ncnc2[nH]ccc12)N1CCCC(OCC2CC2)C1
 SMILES IDX 12 1 13 2 14 3 15 4 16 5 22 6 2 7 1 8 3 9 4 10 11 11 5 12
 SMILES IDX 10 13 7 14 6 15 9 16 8 17 17 19 18 20 19 21 20 22 21 23
 H PARENT 8 18

>  <TORSDO>  (1) 
F 5

$$$$
