/home/pchatterjee/Documents/git/vs_workflow/DiffDock/diffdock_run/pdbqt_scrubbed/Z2636563025.pdbqt
     RDKit          3D

 22 25  0  0  1  0  0  0  0  0999 V2000
    4.8571   44.2931   52.0166 N   0  0  0  0  0  0  0  0  0  0  0  0
    4.9759   42.8674   52.0082 C   0  0  0  0  0  2  0  0  0  0  0  0
    4.0572   42.2483   50.9835 C   0  0  0  0  0  2  0  0  0  0  0  0
    3.0016   43.2456   50.6295 C   0  0  0  0  0  2  0  0  0  0  0  0
    2.4951   44.0532   51.7909 C   0  0  0  0  0  3  0  0  0  0  0  0
    3.5811   44.8687   52.4366 C   0  0  0  0  0  2  0  0  0  0  0  0
    5.8778   45.1823   51.6501 C   0  0  0  0  0  0  0  0  0  0  0  0
    5.7415   46.4020   52.0052 O   0  0  0  0  0  0  0  0  0  0  0  0
    7.0557   44.7679   50.8976 C   0  0  0  0  0  0  0  0  0  0  0  0
    7.0004   43.8577   49.8956 N   0  0  0  0  0  0  0  0  0  0  0  0
    8.2851   45.3108   51.2010 C   0  0  0  0  0  0  0  0  0  0  0  0
    8.1260   43.5284   49.2515 C   0  0  0  0  0  3  0  0  0  0  0  0
    8.6171   46.2544   52.1718 C   0  0  0  0  0  3  0  0  0  0  0  0
    9.4376   44.9488   50.5137 C   0  0  0  0  0  0  0  0  0  0  0  0
    9.3408   44.0334   49.5164 N   0  0  0  0  0  0  0  0  0  0  0  0
    9.9930   46.4357   52.0357 C   0  0  0  0  0  3  0  0  0  0  0  0
   10.4586   45.6500   51.0448 N   0  0  0  0  0  0  0  0  0  0  0  0
    1.9179   43.2509   52.7764 O   0  0  0  0  0  0  0  0  0  0  0  0
    1.4822   44.1647   53.7633 C   0  0  0  0  0  2  0  0  0  0  0  0
   -0.0436   44.1113   53.6806 C   0  0  0  0  0  3  0  0  0  0  0  0
   -0.6438   45.4271   54.2739 C   0  0  0  0  0  2  0  0  0  0  0  0
   -0.6512   45.1933   52.8176 C   0  0  0  0  0  2  0  0  0  0  0  0
  1  7  1  0
  1  6  1  0
  2  1  1  0
  3  2  1  0
  3  4  1  0
  4  5  1  0
  5 18  1  0
  6  5  1  0
  7  9  1  0
  8  7  2  0
  9 11  1  0
  9 10  2  0
 10 12  1  0
 11 14  2  0
 12 15  2  0
 13 11  1  0
 13 16  2  0
 14 17  1  0
 14 15  1  0
 16 17  1  0
 18 19  1  0
 20 19  1  0
 21 20  1  0
 22 21  1  0
 22 20  1  0
M  RAD  8   2   3   3   3   4   3   5   2   6   3  12   2  13   2  16   2
M  RAD  4  19   3  20   2  21   3  22   3
M  END
>  <REMARK>  (1) 
 SMILES O=C(c1ncnc2[nH]ccc12)N1CCCC(OCC2CC2)C1
 SMILES IDX 12 1 13 2 14 3 15 4 16 5 22 6 2 7 1 8 3 9 4 10 11 11 5 12
 SMILES IDX 10 13 7 14 6 15 9 16 8 17 17 19 18 20 19 21 20 22 21 23
 H PARENT 8 18

>  <TORSDO>  (1) 
F 5

$$$$
