/home/pchatterjee/Documents/git/vs_workflow/DiffDock/diffdock_run/pdbqt_scrubbed/Z2636563025.pdbqt
     RDKit          3D

 22 25  0  0  1  0  0  0  0  0999 V2000
    4.7574   45.2718   51.6299 N   0  0  0  0  0  0  0  0  0  0  0  0
    3.6168   46.1086   51.8436 C   0  0  0  0  0  2  0  0  0  0  0  0
    2.7844   45.6132   53.0007 C   0  0  0  0  0  2  0  0  0  0  0  0
    3.1399   44.1852   53.2629 C   0  0  0  0  0  2  0  0  0  0  0  0
    3.3783   43.3667   52.0257 C   0  0  0  0  0  3  0  0  0  0  0  0
    4.5220   43.8938   51.2037 C   0  0  0  0  0  2  0  0  0  0  0  0
    6.0891   45.6772   51.7999 C   0  0  0  0  0  0  0  0  0  0  0  0
    6.3171   46.5671   52.6879 O   0  0  0  0  0  0  0  0  0  0  0  0
    7.1893   45.1289   51.0160 C   0  0  0  0  0  0  0  0  0  0  0  0
    7.0199   44.1287   50.1181 N   0  0  0  0  0  0  0  0  0  0  0  0
    8.4610   45.6333   51.1789 C   0  0  0  0  0  0  0  0  0  0  0  0
    8.0797   43.6784   49.4365 C   0  0  0  0  0  3  0  0  0  0  0  0
    8.9052   46.6491   52.0238 C   0  0  0  0  0  3  0  0  0  0  0  0
    9.5430   45.1449   50.4561 C   0  0  0  0  0  0  0  0  0  0  0  0
    9.3324   44.1421   49.5661 N   0  0  0  0  0  0  0  0  0  0  0  0
   10.2746   46.7431   51.7775 C   0  0  0  0  0  3  0  0  0  0  0  0
   10.6308   45.8401   50.8428 N   0  0  0  0  0  0  0  0  0  0  0  0
    2.2500   43.3133   51.2059 O   0  0  0  0  0  0  0  0  0  0  0  0
    2.7689   43.1161   49.9057 C   0  0  0  0  0  2  0  0  0  0  0  0
    2.8251   41.5964   49.7475 C   0  0  0  0  0  3  0  0  0  0  0  0
    3.8954   41.2239   48.6708 C   0  0  0  0  0  2  0  0  0  0  0  0
    4.1635   40.9900   50.1022 C   0  0  0  0  0  2  0  0  0  0  0  0
  1  7  1  0
  1  6  1  0
  2  1  1  0
  3  2  1  0
  3  4  1  0
  4  5  1  0
  5 18  1  0
  6  5  1  0
  7  9  1  0
  8  7  2  0
  9 11  1  0
  9 10  2  0
 10 12  1  0
 11 14  2  0
 12 15  2  0
 13 11  1  0
 13 16  2  0
 14 17  1  0
 14 15  1  0
 16 17  1  0
 18 19  1  0
 20 19  1  0
 21 20  1  0
 22 21  1  0
 22 20  1  0
M  RAD  8   2   3   3   3   4   3   5   2   6   3  12   2  13   2  16   2
M  RAD  4  19   3  20   2  21   3  22   3
M  END
>  <REMARK>  (1) 
 SMILES O=C(c1ncnc2[nH]ccc12)N1CCCC(OCC2CC2)C1
 SMILES IDX 12 1 13 2 14 3 15 4 16 5 22 6 2 7 1 8 3 9 4 10 11 11 5 12
 SMILES IDX 10 13 7 14 6 15 9 16 8 17 17 19 18 20 19 21 20 22 21 23
 H PARENT 8 18

>  <TORSDO>  (1) 
F 5

$$$$
