/home/pchatterjee/Documents/git/vs_workflow/DiffDock/diffdock_run/pdbqt_scrubbed/Z2636563025.pdbqt
     RDKit          3D

 22 25  0  0  1  0  0  0  0  0999 V2000
    4.6379   44.7042   51.4056 N   0  0  0  0  0  0  0  0  0  0  0  0
    3.3843   45.3914   51.3498 C   0  0  0  0  0  2  0  0  0  0  0  0
    2.4712   44.9546   52.4690 C   0  0  0  0  0  2  0  0  0  0  0  0
    2.9618   43.6452   52.9971 C   0  0  0  0  0  2  0  0  0  0  0  0
    3.4642   42.6990   51.9436 C   0  0  0  0  0  3  0  0  0  0  0  0
    4.6343   43.2598   51.1833 C   0  0  0  0  0  2  0  0  0  0  0  0
    5.8741   45.3160   51.6588 C   0  0  0  0  0  0  0  0  0  0  0  0
    5.8977   46.2328   52.5484 O   0  0  0  0  0  0  0  0  0  0  0  0
    7.0978   44.9475   50.9572 C   0  0  0  0  0  0  0  0  0  0  0  0
    7.1238   44.0190   49.9710 N   0  0  0  0  0  0  0  0  0  0  0  0
    8.2873   45.5553   51.2947 C   0  0  0  0  0  0  0  0  0  0  0  0
    8.2872   43.7347   49.3742 C   0  0  0  0  0  3  0  0  0  0  0  0
    8.5369   46.5303   52.2591 C   0  0  0  0  0  3  0  0  0  0  0  0
    9.4807   45.2389   50.6563 C   0  0  0  0  0  0  0  0  0  0  0  0
    9.4654   44.3032   49.6733 N   0  0  0  0  0  0  0  0  0  0  0  0
    9.9065   46.7768   52.1694 C   0  0  0  0  0  3  0  0  0  0  0  0
   10.4461   45.9984   51.2108 N   0  0  0  0  0  0  0  0  0  0  0  0
    2.4721   42.3669   51.0198 O   0  0  0  0  0  0  0  0  0  0  0  0
    3.1436   41.5937   50.0452 C   0  0  0  0  0  2  0  0  0  0  0  0
    2.1142   40.5470   49.6180 C   0  0  0  0  0  3  0  0  0  0  0  0
    0.6790   41.1598   49.7103 C   0  0  0  0  0  2  0  0  0  0  0  0
    1.3121   40.9355   48.3971 C   0  0  0  0  0  2  0  0  0  0  0  0
  1  7  1  0
  1  6  1  0
  2  1  1  0
  3  2  1  0
  3  4  1  0
  4  5  1  0
  5 18  1  0
  6  5  1  0
  7  9  1  0
  8  7  2  0
  9 11  1  0
  9 10  2  0
 10 12  1  0
 11 14  2  0
 12 15  2  0
 13 11  1  0
 13 16  2  0
 14 17  1  0
 14 15  1  0
 16 17  1  0
 18 19  1  0
 20 19  1  0
 21 20  1  0
 22 21  1  0
 22 20  1  0
M  RAD  8   2   3   3   3   4   3   5   2   6   3  12   2  13   2  16   2
M  RAD  4  19   3  20   2  21   3  22   3
M  END
>  <REMARK>  (1) 
 SMILES O=C(c1ncnc2[nH]ccc12)N1CCCC(OCC2CC2)C1
 SMILES IDX 12 1 13 2 14 3 15 4 16 5 22 6 2 7 1 8 3 9 4 10 11 11 5 12
 SMILES IDX 10 13 7 14 6 15 9 16 8 17 17 19 18 20 19 21 20 22 21 23
 H PARENT 8 18

>  <TORSDO>  (1) 
F 5

$$$$
