/home/pchatterjee/Documents/git/vs_workflow/DiffDock/diffdock_run/pdbqt_scrubbed/Z2636563025.pdbqt
     RDKit          3D

 22 25  0  0  1  0  0  0  0  0999 V2000
    4.6657   45.1361   51.6754 N   0  0  0  0  0  0  0  0  0  0  0  0
    3.4923   45.9445   51.8037 C   0  0  0  0  0  2  0  0  0  0  0  0
    2.6362   45.4860   52.9586 C   0  0  0  0  0  2  0  0  0  0  0  0
    3.0274   44.0875   53.3125 C   0  0  0  0  0  2  0  0  0  0  0  0
    3.3348   43.2104   52.1319 C   0  0  0  0  0  3  0  0  0  0  0  0
    4.4892   43.7295   51.3199 C   0  0  0  0  0  2  0  0  0  0  0  0
    5.9771   45.5948   51.8663 C   0  0  0  0  0  0  0  0  0  0  0  0
    6.1525   46.5047   52.7460 O   0  0  0  0  0  0  0  0  0  0  0  0
    7.1134   45.0790   51.1126 C   0  0  0  0  0  0  0  0  0  0  0  0
    6.9833   44.1396   50.1451 N   0  0  0  0  0  0  0  0  0  0  0  0
    8.3799   45.5517   51.3786 C   0  0  0  0  0  0  0  0  0  0  0  0
    8.0746   43.7158   49.4972 C   0  0  0  0  0  3  0  0  0  0  0  0
    8.7877   46.5054   52.3097 C   0  0  0  0  0  3  0  0  0  0  0  0
    9.4953   45.0920   50.6884 C   0  0  0  0  0  0  0  0  0  0  0  0
    9.3235   44.1502   49.7263 N   0  0  0  0  0  0  0  0  0  0  0  0
   10.1700   46.5926   52.1474 C   0  0  0  0  0  3  0  0  0  0  0  0
   10.5678   45.7441   51.1791 N   0  0  0  0  0  0  0  0  0  0  0  0
    2.2382   43.0739   51.2795 O   0  0  0  0  0  0  0  0  0  0  0  0
    2.8050   42.9959   49.9867 C   0  0  0  0  0  2  0  0  0  0  0  0
    2.8636   41.4972   49.6894 C   0  0  0  0  0  3  0  0  0  0  0  0
    3.9230   41.2288   48.5718 C   0  0  0  0  0  2  0  0  0  0  0  0
    4.2074   40.8659   49.9728 C   0  0  0  0  0  2  0  0  0  0  0  0
  1  7  1  0
  1  6  1  0
  2  1  1  0
  3  2  1  0
  3  4  1  0
  4  5  1  0
  5 18  1  0
  6  5  1  0
  7  9  1  0
  8  7  2  0
  9 11  1  0
  9 10  2  0
 10 12  1  0
 11 14  2  0
 12 15  2  0
 13 11  1  0
 13 16  2  0
 14 17  1  0
 14 15  1  0
 16 17  1  0
 18 19  1  0
 20 19  1  0
 21 20  1  0
 22 21  1  0
 22 20  1  0
M  RAD  8   2   3   3   3   4   3   5   2   6   3  12   2  13   2  16   2
M  RAD  4  19   3  20   2  21   3  22   3
M  END
>  <REMARK>  (1) 
 SMILES O=C(c1ncnc2[nH]ccc12)N1CCCC(OCC2CC2)C1
 SMILES IDX 12 1 13 2 14 3 15 4 16 5 22 6 2 7 1 8 3 9 4 10 11 11 5 12
 SMILES IDX 10 13 7 14 6 15 9 16 8 17 17 19 18 20 19 21 20 22 21 23
 H PARENT 8 18

>  <TORSDO>  (1) 
F 5

$$$$
