/home/pchatterjee/Documents/git/vs_workflow/DiffDock/diffdock_run/pdbqt_scrubbed/Z2636563025.pdbqt
     RDKit          3D

 22 25  0  0  1  0  0  0  0  0999 V2000
    5.0135   44.9752   52.2752 N   0  0  0  0  0  0  0  0  0  0  0  0
    4.4553   44.5980   53.5373 C   0  0  0  0  0  2  0  0  0  0  0  0
    4.2691   43.1032   53.6278 C   0  0  0  0  0  2  0  0  0  0  0  0
    4.2883   42.5386   52.2440 C   0  0  0  0  0  2  0  0  0  0  0  0
    3.5865   43.3832   51.2184 C   0  0  0  0  0  3  0  0  0  0  0  0
    4.2086   44.7450   51.0773 C   0  0  0  0  0  2  0  0  0  0  0  0
    6.2803   45.5513   52.1017 C   0  0  0  0  0  0  0  0  0  0  0  0
    6.5536   46.5791   52.8097 O   0  0  0  0  0  0  0  0  0  0  0  0
    7.2662   45.0270   51.1644 C   0  0  0  0  0  0  0  0  0  0  0  0
    6.9458   44.1567   50.1768 N   0  0  0  0  0  0  0  0  0  0  0  0
    8.5830   45.4189   51.2688 C   0  0  0  0  0  0  0  0  0  0  0  0
    7.9077   43.7199   49.3556 C   0  0  0  0  0  3  0  0  0  0  0  0
    9.1735   46.2920   52.1809 C   0  0  0  0  0  3  0  0  0  0  0  0
    9.5605   44.9478   50.4004 C   0  0  0  0  0  0  0  0  0  0  0  0
    9.1995   44.0768   49.4241 N   0  0  0  0  0  0  0  0  0  0  0  0
   10.5214   46.3202   51.8247 C   0  0  0  0  0  3  0  0  0  0  0  0
   10.7278   45.5143   50.7647 N   0  0  0  0  0  0  0  0  0  0  0  0
    2.2347   43.5583   51.5182 O   0  0  0  0  0  0  0  0  0  0  0  0
    1.9022   44.8006   50.9311 C   0  0  0  0  0  2  0  0  0  0  0  0
    2.5722   45.8368   51.8340 C   0  0  0  0  0  3  0  0  0  0  0  0
    1.8492   47.2133   51.6730 C   0  0  0  0  0  2  0  0  0  0  0  0
    1.6606   46.4094   52.8951 C   0  0  0  0  0  2  0  0  0  0  0  0
  1  7  1  0
  1  6  1  0
  2  1  1  0
  3  2  1  0
  3  4  1  0
  4  5  1  0
  5 18  1  0
  6  5  1  0
  7  9  1  0
  8  7  2  0
  9 11  1  0
  9 10  2  0
 10 12  1  0
 11 14  2  0
 12 15  2  0
 13 11  1  0
 13 16  2  0
 14 17  1  0
 14 15  1  0
 16 17  1  0
 18 19  1  0
 20 19  1  0
 21 20  1  0
 22 21  1  0
 22 20  1  0
M  RAD  8   2   3   3   3   4   3   5   2   6   3  12   2  13   2  16   2
M  RAD  4  19   3  20   2  21   3  22   3
M  END
>  <REMARK>  (1) 
 SMILES O=C(c1ncnc2[nH]ccc12)N1CCCC(OCC2CC2)C1
 SMILES IDX 12 1 13 2 14 3 15 4 16 5 22 6 2 7 1 8 3 9 4 10 11 11 5 12
 SMILES IDX 10 13 7 14 6 15 9 16 8 17 17 19 18 20 19 21 20 22 21 23
 H PARENT 8 18

>  <TORSDO>  (1) 
F 5

$$$$
