/home/pchatterjee/Documents/git/vs_workflow/DiffDock/diffdock_run/pdbqt_scrubbed/Z1159125105.pdbqt
     RDKit          3D

 28 31  0  0  0  0  0  0  0  0999 V2000
    8.2067   45.6525   51.6213 C   0  0  0  0  0  0  0  0  0  0  0  0
    9.5768   45.8937   51.5138 C   0  0  0  0  0  3  0  0  0  0  0  0
   10.3495   45.1904   50.6116 C   0  0  0  0  0  3  0  0  0  0  0  0
    9.7182   44.2709   49.8506 N   0  0  0  0  0  0  0  0  0  0  0  0
    8.3993   44.0182   49.9334 C   0  0  0  0  0  0  0  0  0  0  0  0
    7.6845   44.7165   50.8159 N   0  0  0  0  0  0  0  0  0  0  0  0
    7.4612   46.3802   52.5410 O   0  0  0  0  0  0  0  0  0  0  0  0
    8.0318   47.1888   53.5077 C   0  0  0  0  0  0  0  0  0  0  0  0
    9.1642   48.7745   55.4178 C   0  0  0  0  0  0  0  0  0  0  0  0
    9.5728   47.4658   55.2770 C   0  0  0  0  0  3  0  0  0  0  0  0
    8.1905   49.3032   54.6104 C   0  0  0  0  0  3  0  0  0  0  0  0
    9.0032   46.6633   54.3140 C   0  0  0  0  0  3  0  0  0  0  0  0
    7.6075   48.5130   53.6385 C   0  0  0  0  0  3  0  0  0  0  0  0
    9.7548   49.5224   56.3791 F   0  0  0  0  0  0  0  0  0  0  0  0
    7.8286   43.0175   49.0755 N   0  0  0  0  0  0  0  0  0  0  0  0
    6.4504   42.7067   49.2806 C   0  0  0  0  0  0  0  0  0  0  0  0
    5.7824   43.2418   50.3420 C   0  0  0  0  0  3  0  0  0  0  0  0
    5.7544   41.8715   48.4326 C   0  0  0  0  0  3  0  0  0  0  0  0
    4.4349   42.9370   50.5412 C   0  0  0  0  0  3  0  0  0  0  0  0
    4.4174   41.5540   48.6092 C   0  0  0  0  0  3  0  0  0  0  0  0
    3.7377   42.1050   49.6983 C   0  0  0  0  0  0  0  0  0  0  0  0
    2.3732   41.8056   49.9131 N   0  0  0  0  0  0  0  0  0  0  0  0
    1.5440   41.3081   48.8697 C   0  0  0  0  0  3  0  0  0  0  0  0
    0.1009   41.1511   49.2690 C   0  0  0  0  0  2  0  0  0  0  0  0
    1.7782   41.9065   47.5347 C   0  0  0  0  0  2  0  0  0  0  0  0
   -0.8023   40.8388   48.1297 C   0  0  0  0  0  2  0  0  0  0  0  0
    0.4879   42.1070   46.8104 C   0  0  0  0  0  2  0  0  0  0  0  0
   -0.2330   40.9111   46.8802 O   0  0  0  0  0  0  0  0  0  0  0  0
  1  7  1  0
  2  1  2  0
  3  2  1  0
  4  5  1  0
  4  3  2  0
  5  6  2  0
  6  1  1  0
  7  8  1  0
  8 13  2  0
  9 14  1  0
  9 11  2  0
 10  9  1  0
 12 10  2  0
 12  8  1  0
 13 11  1  0
 15  5  1  0
 16 15  1  0
 16 17  2  0
 18 16  1  0
 19 17  1  0
 20 18  2  0
 20 21  1  0
 21 19  2  0
 22 21  1  0
 22 23  1  0
 23 24  1  0
 24 26  1  0
 25 23  1  0
 27 28  1  0
 27 25  1  0
 28 26  1  0
M  RAD  8   2   2   3   2  10   2  11   2  12   2  13   2  17   2  18   2
M  RAD  7  19   2  20   2  23   2  24   3  25   3  26   3  27   3
M  END
>  <REMARK>  (1) 
 SMILES Fc1ccc(Oc2ccnc(Nc3ccc(NC4CCOCC4)cc3)n2)cc1
 SMILES IDX 7 1 8 2 9 3 10 4 11 5 26 6 6 7 5 8 2 9 3 10 28 11 4 12 27 13
 SMILES IDX 1 14 12 15 13 17 14 18 25 19 15 20 24 21 16 22 17 23 18 25
 SMILES IDX 19 26 23 27 20 28 22 29 21 30
 H PARENT 12 16 17 24

>  <TORSDO>  (1) 
F 6

$$$$
