/home/pchatterjee/Documents/git/vs_workflow/DiffDock/diffdock_run/pdbqt_scrubbed/Z1159125105.pdbqt
     RDKit          3D

 28 31  0  0  0  0  0  0  0  0999 V2000
    7.8081   45.7709   51.6814 C   0  0  0  0  0  0  0  0  0  0  0  0
    9.1863   45.9877   51.7034 C   0  0  0  0  0  3  0  0  0  0  0  0
   10.0256   45.2861   50.8614 C   0  0  0  0  0  3  0  0  0  0  0  0
    9.4504   44.3929   50.0281 N   0  0  0  0  0  0  0  0  0  0  0  0
    8.1251   44.1641   49.9860 C   0  0  0  0  0  0  0  0  0  0  0  0
    7.3452   44.8598   50.8135 N   0  0  0  0  0  0  0  0  0  0  0  0
    6.9947   46.4960   52.5438 O   0  0  0  0  0  0  0  0  0  0  0  0
    5.6916   46.1360   52.8373 C   0  0  0  0  0  0  0  0  0  0  0  0
    3.1252   45.4198   53.4257 C   0  0  0  0  0  0  0  0  0  0  0  0
    4.1628   44.9815   54.2200 C   0  0  0  0  0  3  0  0  0  0  0  0
    3.3566   46.2165   52.3343 C   0  0  0  0  0  3  0  0  0  0  0  0
    5.4587   45.3413   53.9256 C   0  0  0  0  0  3  0  0  0  0  0  0
    4.6506   46.5878   52.0232 C   0  0  0  0  0  3  0  0  0  0  0  0
    1.8694   45.0387   53.7570 F   0  0  0  0  0  0  0  0  0  0  0  0
    7.6177   43.1902   49.0601 N   0  0  0  0  0  0  0  0  0  0  0  0
    6.2842   42.7301   49.2797 C   0  0  0  0  0  0  0  0  0  0  0  0
    5.6542   41.9877   48.3253 C   0  0  0  0  0  3  0  0  0  0  0  0
    5.5946   43.0116   50.4400 C   0  0  0  0  0  3  0  0  0  0  0  0
    4.3503   41.5386   48.5415 C   0  0  0  0  0  3  0  0  0  0  0  0
    4.3006   42.5774   50.6778 C   0  0  0  0  0  3  0  0  0  0  0  0
    3.6597   41.8170   49.6966 C   0  0  0  0  0  0  0  0  0  0  0  0
    2.3396   41.3552   49.9012 N   0  0  0  0  0  0  0  0  0  0  0  0
    1.5911   40.7449   48.8567 C   0  0  0  0  0  3  0  0  0  0  0  0
    0.1797   40.3978   49.2496 C   0  0  0  0  0  2  0  0  0  0  0  0
    1.7509   41.3618   47.5192 C   0  0  0  0  0  2  0  0  0  0  0  0
   -0.6664   39.9605   48.1077 C   0  0  0  0  0  2  0  0  0  0  0  0
    0.4496   41.3830   46.7869 C   0  0  0  0  0  2  0  0  0  0  0  0
   -0.1045   40.1015   46.8607 O   0  0  0  0  0  0  0  0  0  0  0  0
  1  7  1  0
  2  1  2  0
  3  2  1  0
  4  5  1  0
  4  3  2  0
  5  6  2  0
  6  1  1  0
  7  8  1  0
  8 13  2  0
  9 14  1  0
  9 11  2  0
 10  9  1  0
 12 10  2  0
 12  8  1  0
 13 11  1  0
 15  5  1  0
 16 15  1  0
 16 17  2  0
 18 16  1  0
 19 17  1  0
 20 18  2  0
 20 21  1  0
 21 19  2  0
 22 21  1  0
 22 23  1  0
 23 24  1  0
 24 26  1  0
 25 23  1  0
 27 28  1  0
 27 25  1  0
 28 26  1  0
M  RAD  8   2   2   3   2  10   2  11   2  12   2  13   2  17   2  18   2
M  RAD  7  19   2  20   2  23   2  24   3  25   3  26   3  27   3
M  END
>  <REMARK>  (1) 
 SMILES Fc1ccc(Oc2ccnc(Nc3ccc(NC4CCOCC4)cc3)n2)cc1
 SMILES IDX 7 1 8 2 9 3 10 4 11 5 26 6 6 7 5 8 2 9 3 10 28 11 4 12 27 13
 SMILES IDX 1 14 12 15 13 17 14 18 25 19 15 20 24 21 16 22 17 23 18 25
 SMILES IDX 19 26 23 27 20 28 22 29 21 30
 H PARENT 12 16 17 24

>  <TORSDO>  (1) 
F 6

$$$$
