/home/pchatterjee/Documents/git/vs_workflow/DiffDock/diffdock_run/pdbqt_scrubbed/Z1159125105.pdbqt
     RDKit          3D

 28 31  0  0  0  0  0  0  0  0999 V2000
    8.2268   45.7502   51.5248 C   0  0  0  0  0  0  0  0  0  0  0  0
    9.6111   45.9183   51.4798 C   0  0  0  0  0  3  0  0  0  0  0  0
   10.3900   45.1458   50.6417 C   0  0  0  0  0  3  0  0  0  0  0  0
    9.7502   44.2329   49.8798 N   0  0  0  0  0  0  0  0  0  0  0  0
    8.4174   44.0499   49.9033 C   0  0  0  0  0  0  0  0  0  0  0  0
    7.6971   44.8139   50.7247 N   0  0  0  0  0  0  0  0  0  0  0  0
    7.4755   46.5463   52.3810 O   0  0  0  0  0  0  0  0  0  0  0  0
    8.0334   47.3020   53.3966 C   0  0  0  0  0  0  0  0  0  0  0  0
    9.1266   48.8017   55.3970 C   0  0  0  0  0  0  0  0  0  0  0  0
    8.1405   49.3351   54.5954 C   0  0  0  0  0  3  0  0  0  0  0  0
    9.5755   47.5199   55.2095 C   0  0  0  0  0  3  0  0  0  0  0  0
    7.5871   48.5808   53.5853 C   0  0  0  0  0  3  0  0  0  0  0  0
    9.0319   46.7479   54.2008 C   0  0  0  0  0  3  0  0  0  0  0  0
    9.6387   49.5834   56.3761 F   0  0  0  0  0  0  0  0  0  0  0  0
    7.8386   43.0495   49.0503 N   0  0  0  0  0  0  0  0  0  0  0  0
    6.4984   42.6543   49.3430 C   0  0  0  0  0  0  0  0  0  0  0  0
    5.7914   43.3073   50.3087 C   0  0  0  0  0  3  0  0  0  0  0  0
    5.8784   41.6192   48.6757 C   0  0  0  0  0  3  0  0  0  0  0  0
    4.4810   42.9197   50.5937 C   0  0  0  0  0  3  0  0  0  0  0  0
    4.5795   41.2160   48.9404 C   0  0  0  0  0  3  0  0  0  0  0  0
    3.8596   41.8885   49.9309 C   0  0  0  0  0  0  0  0  0  0  0  0
    2.5319   41.5075   50.2306 N   0  0  0  0  0  0  0  0  0  0  0  0
    1.5622   41.3105   49.2086 C   0  0  0  0  0  3  0  0  0  0  0  0
    2.0107   40.3658   48.1255 C   0  0  0  0  0  2  0  0  0  0  0  0
    0.1705   41.1277   49.6827 C   0  0  0  0  0  2  0  0  0  0  0  0
    0.9296   39.9917   47.1755 C   0  0  0  0  0  2  0  0  0  0  0  0
   -0.5372   40.0990   48.8637 C   0  0  0  0  0  2  0  0  0  0  0  0
   -0.3349   40.4109   47.5160 O   0  0  0  0  0  0  0  0  0  0  0  0
  1  7  1  0
  2  1  2  0
  3  2  1  0
  4  5  1  0
  4  3  2  0
  5  6  2  0
  6  1  1  0
  7  8  1  0
  8 13  2  0
  9 14  1  0
  9 11  2  0
 10  9  1  0
 12 10  2  0
 12  8  1  0
 13 11  1  0
 15  5  1  0
 16 15  1  0
 16 17  2  0
 18 16  1  0
 19 17  1  0
 20 18  2  0
 20 21  1  0
 21 19  2  0
 22 21  1  0
 22 23  1  0
 23 24  1  0
 24 26  1  0
 25 23  1  0
 27 28  1  0
 27 25  1  0
 28 26  1  0
M  RAD  8   2   2   3   2  10   2  11   2  12   2  13   2  17   2  18   2
M  RAD  7  19   2  20   2  23   2  24   3  25   3  26   3  27   3
M  END
>  <REMARK>  (1) 
 SMILES Fc1ccc(Oc2ccnc(Nc3ccc(NC4CCOCC4)cc3)n2)cc1
 SMILES IDX 7 1 8 2 9 3 10 4 11 5 26 6 6 7 5 8 2 9 3 10 28 11 4 12 27 13
 SMILES IDX 1 14 12 15 13 17 14 18 25 19 15 20 24 21 16 22 17 23 18 25
 SMILES IDX 19 26 23 27 20 28 22 29 21 30
 H PARENT 12 16 17 24

>  <TORSDO>  (1) 
F 6

$$$$
