/home/pchatterjee/Documents/git/vs_workflow/DiffDock/diffdock_run/pdbqt_scrubbed/Z1159125105.pdbqt
     RDKit          3D

 28 31  0  0  0  0  0  0  0  0999 V2000
    8.1460   45.4193   51.7557 C   0  0  0  0  0  0  0  0  0  0  0  0
    9.5158   45.6455   51.6171 C   0  0  0  0  0  3  0  0  0  0  0  0
   10.2756   44.8773   50.7579 C   0  0  0  0  0  3  0  0  0  0  0  0
    9.6321   43.9103   50.0695 N   0  0  0  0  0  0  0  0  0  0  0  0
    8.3131   43.6706   50.1838 C   0  0  0  0  0  0  0  0  0  0  0  0
    7.6110   44.4321   51.0230 N   0  0  0  0  0  0  0  0  0  0  0  0
    7.4137   46.2129   52.6304 O   0  0  0  0  0  0  0  0  0  0  0  0
    7.9988   47.0618   53.5528 C   0  0  0  0  0  0  0  0  0  0  0  0
    9.1517   48.7276   55.3808 C   0  0  0  0  0  0  0  0  0  0  0  0
    8.7474   47.4649   55.7571 C   0  0  0  0  0  3  0  0  0  0  0  0
    8.9857   49.1702   54.0939 C   0  0  0  0  0  3  0  0  0  0  0  0
    8.1654   46.6222   54.8370 C   0  0  0  0  0  3  0  0  0  0  0  0
    8.4035   48.3385   53.1567 C   0  0  0  0  0  3  0  0  0  0  0  0
    9.7185   49.5180   56.3221 F   0  0  0  0  0  0  0  0  0  0  0  0
    7.7288   42.6154   49.4037 N   0  0  0  0  0  0  0  0  0  0  0  0
    6.3037   42.5908   49.3232 C   0  0  0  0  0  0  0  0  0  0  0  0
    5.5547   43.0440   50.3685 C   0  0  0  0  0  3  0  0  0  0  0  0
    5.6416   42.1181   48.2100 C   0  0  0  0  0  3  0  0  0  0  0  0
    4.1614   43.0192   50.2883 C   0  0  0  0  0  3  0  0  0  0  0  0
    4.2604   42.0833   48.1066 C   0  0  0  0  0  3  0  0  0  0  0  0
    3.4978   42.5489   49.1805 C   0  0  0  0  0  0  0  0  0  0  0  0
    2.0861   42.5302   49.1139 N   0  0  0  0  0  0  0  0  0  0  0  0
    1.3431   41.3381   49.3388 C   0  0  0  0  0  3  0  0  0  0  0  0
   -0.1467   41.5262   49.2295 C   0  0  0  0  0  2  0  0  0  0  0  0
    1.8850   40.1219   48.6888 C   0  0  0  0  0  2  0  0  0  0  0  0
   -0.9116   40.2512   49.2504 C   0  0  0  0  0  2  0  0  0  0  0  0
    0.7803   39.2640   48.1659 C   0  0  0  0  0  2  0  0  0  0  0  0
   -0.1581   39.1026   49.1896 O   0  0  0  0  0  0  0  0  0  0  0  0
  1  7  1  0
  2  1  2  0
  3  2  1  0
  4  5  1  0
  4  3  2  0
  5  6  2  0
  6  1  1  0
  7  8  1  0
  8 13  2  0
  9 14  1  0
  9 11  2  0
 10  9  1  0
 12 10  2  0
 12  8  1  0
 13 11  1  0
 15  5  1  0
 16 15  1  0
 16 17  2  0
 18 16  1  0
 19 17  1  0
 20 18  2  0
 20 21  1  0
 21 19  2  0
 22 21  1  0
 22 23  1  0
 23 24  1  0
 24 26  1  0
 25 23  1  0
 27 28  1  0
 27 25  1  0
 28 26  1  0
M  RAD  8   2   2   3   2  10   2  11   2  12   2  13   2  17   2  18   2
M  RAD  7  19   2  20   2  23   2  24   3  25   3  26   3  27   3
M  END
>  <REMARK>  (1) 
 SMILES Fc1ccc(Oc2ccnc(Nc3ccc(NC4CCOCC4)cc3)n2)cc1
 SMILES IDX 7 1 8 2 9 3 10 4 11 5 26 6 6 7 5 8 2 9 3 10 28 11 4 12 27 13
 SMILES IDX 1 14 12 15 13 17 14 18 25 19 15 20 24 21 16 22 17 23 18 25
 SMILES IDX 19 26 23 27 20 28 22 29 21 30
 H PARENT 12 16 17 24

>  <TORSDO>  (1) 
F 6

$$$$
