/home/pchatterjee/Documents/git/vs_workflow/DiffDock/diffdock_run/pdbqt_scrubbed/Z1159125105.pdbqt
     RDKit          3D

 28 31  0  0  0  0  0  0  0  0999 V2000
    7.9647   45.5272   51.6405 C   0  0  0  0  0  0  0  0  0  0  0  0
    9.3501   45.6767   51.7138 C   0  0  0  0  0  3  0  0  0  0  0  0
   10.1860   44.9139   50.9234 C   0  0  0  0  0  3  0  0  0  0  0  0
    9.6004   44.0290   50.0884 N   0  0  0  0  0  0  0  0  0  0  0  0
    8.2681   43.8644   49.9975 C   0  0  0  0  0  0  0  0  0  0  0  0
    7.4917   44.6182   50.7760 N   0  0  0  0  0  0  0  0  0  0  0  0
    7.1550   46.3128   52.4519 O   0  0  0  0  0  0  0  0  0  0  0  0
    5.8725   45.9488   52.8212 C   0  0  0  0  0  0  0  0  0  0  0  0
    3.3384   45.2368   53.5403 C   0  0  0  0  0  0  0  0  0  0  0  0
    3.5434   46.0319   52.4334 C   0  0  0  0  0  3  0  0  0  0  0  0
    4.3913   44.7907   54.2967 C   0  0  0  0  0  3  0  0  0  0  0  0
    4.8209   46.3927   52.0681 C   0  0  0  0  0  3  0  0  0  0  0  0
    5.6804   45.1426   53.9455 C   0  0  0  0  0  3  0  0  0  0  0  0
    2.0640   44.9097   53.8580 F   0  0  0  0  0  0  0  0  0  0  0  0
    7.7497   42.8933   49.0746 N   0  0  0  0  0  0  0  0  0  0  0  0
    6.4075   42.4567   49.2895 C   0  0  0  0  0  0  0  0  0  0  0  0
    5.7484   42.8165   50.4275 C   0  0  0  0  0  3  0  0  0  0  0  0
    5.7383   41.6710   48.3751 C   0  0  0  0  0  3  0  0  0  0  0  0
    4.4361   42.3888   50.6360 C   0  0  0  0  0  3  0  0  0  0  0  0
    4.4365   41.2342   48.5594 C   0  0  0  0  0  3  0  0  0  0  0  0
    3.7657   41.6056   49.7272 C   0  0  0  0  0  0  0  0  0  0  0  0
    2.4368   41.1803   49.9524 N   0  0  0  0  0  0  0  0  0  0  0  0
    1.6399   40.6338   48.9083 C   0  0  0  0  0  3  0  0  0  0  0  0
    0.2239   40.3353   49.3236 C   0  0  0  0  0  2  0  0  0  0  0  0
    1.7968   41.2830   47.5858 C   0  0  0  0  0  2  0  0  0  0  0  0
   -0.6651   39.9686   48.1894 C   0  0  0  0  0  2  0  0  0  0  0  0
    0.4820   41.3812   46.8848 C   0  0  0  0  0  2  0  0  0  0  0  0
   -0.1251   40.1228   46.9343 O   0  0  0  0  0  0  0  0  0  0  0  0
  1  7  1  0
  2  1  2  0
  3  2  1  0
  4  5  1  0
  4  3  2  0
  5  6  2  0
  6  1  1  0
  7  8  1  0
  8 13  2  0
  9 14  1  0
  9 11  2  0
 10  9  1  0
 12 10  2  0
 12  8  1  0
 13 11  1  0
 15  5  1  0
 16 15  1  0
 16 17  2  0
 18 16  1  0
 19 17  1  0
 20 18  2  0
 20 21  1  0
 21 19  2  0
 22 21  1  0
 22 23  1  0
 23 24  1  0
 24 26  1  0
 25 23  1  0
 27 28  1  0
 27 25  1  0
 28 26  1  0
M  RAD  8   2   2   3   2  10   2  11   2  12   2  13   2  17   2  18   2
M  RAD  7  19   2  20   2  23   2  24   3  25   3  26   3  27   3
M  END
>  <REMARK>  (1) 
 SMILES Fc1ccc(Oc2ccnc(Nc3ccc(NC4CCOCC4)cc3)n2)cc1
 SMILES IDX 7 1 8 2 9 3 10 4 11 5 26 6 6 7 5 8 2 9 3 10 28 11 4 12 27 13
 SMILES IDX 1 14 12 15 13 17 14 18 25 19 15 20 24 21 16 22 17 23 18 25
 SMILES IDX 19 26 23 27 20 28 22 29 21 30
 H PARENT 12 16 17 24

>  <TORSDO>  (1) 
F 6

$$$$
