/home/pchatterjee/Documents/git/vs_workflow/DiffDock/diffdock_run/pdbqt_scrubbed/Z1159125105.pdbqt
     RDKit          3D

 28 31  0  0  0  0  0  0  0  0999 V2000
    8.2717   45.6964   51.6714 C   0  0  0  0  0  0  0  0  0  0  0  0
    9.6634   45.7927   51.6976 C   0  0  0  0  0  3  0  0  0  0  0  0
   10.4390   45.0612   50.8206 C   0  0  0  0  0  3  0  0  0  0  0  0
    9.7888   44.2601   49.9497 N   0  0  0  0  0  0  0  0  0  0  0  0
    8.4488   44.1482   49.9027 C   0  0  0  0  0  0  0  0  0  0  0  0
    7.7318   44.8695   50.7646 N   0  0  0  0  0  0  0  0  0  0  0  0
    7.5239   46.4482   52.5697 O   0  0  0  0  0  0  0  0  0  0  0  0
    8.0921   47.2838   53.5146 C   0  0  0  0  0  0  0  0  0  0  0  0
    9.2181   48.9226   55.3833 C   0  0  0  0  0  0  0  0  0  0  0  0
    9.4607   47.5664   55.4196 C   0  0  0  0  0  3  0  0  0  0  0  0
    8.4146   49.4728   54.4182 C   0  0  0  0  0  3  0  0  0  0  0  0
    8.8939   46.7371   54.4780 C   0  0  0  0  0  3  0  0  0  0  0  0
    7.8371   48.6561   53.4650 C   0  0  0  0  0  3  0  0  0  0  0  0
    9.7984   49.6954   56.3309 F   0  0  0  0  0  0  0  0  0  0  0  0
    7.8591   43.2652   48.9353 N   0  0  0  0  0  0  0  0  0  0  0  0
    6.5576   42.7614   49.2359 C   0  0  0  0  0  0  0  0  0  0  0  0
    6.0590   41.7027   48.5363 C   0  0  0  0  0  3  0  0  0  0  0  0
    5.7696   43.3127   50.2240 C   0  0  0  0  0  3  0  0  0  0  0  0
    4.7863   41.2112   48.8314 C   0  0  0  0  0  3  0  0  0  0  0  0
    4.5040   42.8429   50.5353 C   0  0  0  0  0  3  0  0  0  0  0  0
    3.9979   41.7579   49.8154 C   0  0  0  0  0  0  0  0  0  0  0  0
    2.7109   41.2491   50.1028 N   0  0  0  0  0  0  0  0  0  0  0  0
    1.6786   41.2315   49.1242 C   0  0  0  0  0  3  0  0  0  0  0  0
    2.1053   40.6379   47.8080 C   0  0  0  0  0  2  0  0  0  0  0  0
    0.3465   40.8090   49.6162 C   0  0  0  0  0  2  0  0  0  0  0  0
    0.9809   40.4214   46.8593 C   0  0  0  0  0  2  0  0  0  0  0  0
   -0.3489   39.9626   48.6013 C   0  0  0  0  0  2  0  0  0  0  0  0
   -0.2790   40.6239   47.3715 O   0  0  0  0  0  0  0  0  0  0  0  0
  1  7  1  0
  2  1  2  0
  3  2  1  0
  4  5  1  0
  4  3  2  0
  5  6  2  0
  6  1  1  0
  7  8  1  0
  8 13  2  0
  9 14  1  0
  9 11  2  0
 10  9  1  0
 12 10  2  0
 12  8  1  0
 13 11  1  0
 15  5  1  0
 16 15  1  0
 16 17  2  0
 18 16  1  0
 19 17  1  0
 20 18  2  0
 20 21  1  0
 21 19  2  0
 22 21  1  0
 22 23  1  0
 23 24  1  0
 24 26  1  0
 25 23  1  0
 27 28  1  0
 27 25  1  0
 28 26  1  0
M  RAD  8   2   2   3   2  10   2  11   2  12   2  13   2  17   2  18   2
M  RAD  7  19   2  20   2  23   2  24   3  25   3  26   3  27   3
M  END
>  <REMARK>  (1) 
 SMILES Fc1ccc(Oc2ccnc(Nc3ccc(NC4CCOCC4)cc3)n2)cc1
 SMILES IDX 7 1 8 2 9 3 10 4 11 5 26 6 6 7 5 8 2 9 3 10 28 11 4 12 27 13
 SMILES IDX 1 14 12 15 13 17 14 18 25 19 15 20 24 21 16 22 17 23 18 25
 SMILES IDX 19 26 23 27 20 28 22 29 21 30
 H PARENT 12 16 17 24

>  <TORSDO>  (1) 
F 6

$$$$
