/home/pchatterjee/Documents/git/vs_workflow/DiffDock/diffdock_run/pdbqt_scrubbed/Z1159125105.pdbqt
     RDKit          3D

 28 31  0  0  0  0  0  0  0  0999 V2000
    7.9521   45.6918   51.4571 C   0  0  0  0  0  0  0  0  0  0  0  0
    9.3424   45.8038   51.4927 C   0  0  0  0  0  3  0  0  0  0  0  0
   10.1345   45.0420   50.6573 C   0  0  0  0  0  3  0  0  0  0  0  0
    9.5016   44.1958   49.8168 N   0  0  0  0  0  0  0  0  0  0  0  0
    8.1633   44.0677   49.7616 C   0  0  0  0  0  0  0  0  0  0  0  0
    7.4302   44.8193   50.5831 N   0  0  0  0  0  0  0  0  0  0  0  0
    7.1875   46.4751   52.3132 O   0  0  0  0  0  0  0  0  0  0  0  0
    5.8875   46.1617   52.6677 C   0  0  0  0  0  0  0  0  0  0  0  0
    3.3194   45.5504   53.3581 C   0  0  0  0  0  0  0  0  0  0  0  0
    3.5662   46.3813   52.2865 C   0  0  0  0  0  3  0  0  0  0  0  0
    4.3471   45.0182   54.0931 C   0  0  0  0  0  3  0  0  0  0  0  0
    4.8610   46.6915   51.9359 C   0  0  0  0  0  3  0  0  0  0  0  0
    5.6530   45.3183   53.7560 C   0  0  0  0  0  3  0  0  0  0  0  0
    2.0295   45.2758   53.6626 F   0  0  0  0  0  0  0  0  0  0  0  0
    7.5928   43.1360   48.8290 N   0  0  0  0  0  0  0  0  0  0  0  0
    6.2877   42.6430   49.1320 C   0  0  0  0  0  0  0  0  0  0  0  0
    5.7491   41.6378   48.3846 C   0  0  0  0  0  3  0  0  0  0  0  0
    5.5357   43.1519   50.1696 C   0  0  0  0  0  3  0  0  0  0  0  0
    4.4729   41.1568   48.6820 C   0  0  0  0  0  3  0  0  0  0  0  0
    4.2674   42.6915   50.4843 C   0  0  0  0  0  3  0  0  0  0  0  0
    3.7203   41.6614   49.7153 C   0  0  0  0  0  0  0  0  0  0  0  0
    2.4293   41.1639   50.0044 N   0  0  0  0  0  0  0  0  0  0  0  0
    1.4024   41.1335   49.0204 C   0  0  0  0  0  3  0  0  0  0  0  0
    1.8349   40.5182   47.7162 C   0  0  0  0  0  2  0  0  0  0  0  0
    0.0665   40.7221   49.5115 C   0  0  0  0  0  2  0  0  0  0  0  0
    0.7153   40.2896   46.7647 C   0  0  0  0  0  2  0  0  0  0  0  0
   -0.6254   39.8617   48.5061 C   0  0  0  0  0  2  0  0  0  0  0  0
   -0.5469   40.5033   47.2665 O   0  0  0  0  0  0  0  0  0  0  0  0
  1  7  1  0
  2  1  2  0
  3  2  1  0
  4  5  1  0
  4  3  2  0
  5  6  2  0
  6  1  1  0
  7  8  1  0
  8 13  2  0
  9 14  1  0
  9 11  2  0
 10  9  1  0
 12 10  2  0
 12  8  1  0
 13 11  1  0
 15  5  1  0
 16 15  1  0
 16 17  2  0
 18 16  1  0
 19 17  1  0
 20 18  2  0
 20 21  1  0
 21 19  2  0
 22 21  1  0
 22 23  1  0
 23 24  1  0
 24 26  1  0
 25 23  1  0
 27 28  1  0
 27 25  1  0
 28 26  1  0
M  RAD  8   2   2   3   2  10   2  11   2  12   2  13   2  17   2  18   2
M  RAD  7  19   2  20   2  23   2  24   3  25   3  26   3  27   3
M  END
>  <REMARK>  (1) 
 SMILES Fc1ccc(Oc2ccnc(Nc3ccc(NC4CCOCC4)cc3)n2)cc1
 SMILES IDX 7 1 8 2 9 3 10 4 11 5 26 6 6 7 5 8 2 9 3 10 28 11 4 12 27 13
 SMILES IDX 1 14 12 15 13 17 14 18 25 19 15 20 24 21 16 22 17 23 18 25
 SMILES IDX 19 26 23 27 20 28 22 29 21 30
 H PARENT 12 16 17 24

>  <TORSDO>  (1) 
F 6

$$$$
