/home/pchatterjee/Documents/git/vs_workflow/DiffDock/diffdock_run/pdbqt_scrubbed/Z1159125105.pdbqt
     RDKit          3D

 28 31  0  0  0  0  0  0  0  0999 V2000
    7.8619   45.7903   51.6006 C   0  0  0  0  0  0  0  0  0  0  0  0
    9.2372   46.0237   51.6290 C   0  0  0  0  0  3  0  0  0  0  0  0
   10.0937   45.2994   50.8243 C   0  0  0  0  0  3  0  0  0  0  0  0
    9.5379   44.3675   50.0208 N   0  0  0  0  0  0  0  0  0  0  0  0
    8.2158   44.1219   49.9734 C   0  0  0  0  0  0  0  0  0  0  0  0
    7.4190   44.8406   50.7644 N   0  0  0  0  0  0  0  0  0  0  0  0
    7.0309   46.5393   52.4250 O   0  0  0  0  0  0  0  0  0  0  0  0
    5.7209   46.1888   52.6991 C   0  0  0  0  0  0  0  0  0  0  0  0
    3.1408   45.4923   53.2498 C   0  0  0  0  0  0  0  0  0  0  0  0
    4.1504   45.1422   54.1203 C   0  0  0  0  0  3  0  0  0  0  0  0
    3.4071   46.1905   52.1004 C   0  0  0  0  0  3  0  0  0  0  0  0
    5.4532   45.4923   53.8450 C   0  0  0  0  0  3  0  0  0  0  0  0
    4.7085   46.5505   51.8075 C   0  0  0  0  0  3  0  0  0  0  0  0
    1.8769   45.1249   53.5652 F   0  0  0  0  0  0  0  0  0  0  0  0
    7.7297   43.1065   49.0812 N   0  0  0  0  0  0  0  0  0  0  0  0
    6.4137   42.6115   49.3289 C   0  0  0  0  0  0  0  0  0  0  0  0
    5.6534   43.1633   50.3170 C   0  0  0  0  0  3  0  0  0  0  0  0
    5.8704   41.5782   48.5952 C   0  0  0  0  0  3  0  0  0  0  0  0
    4.3669   42.6782   50.5579 C   0  0  0  0  0  3  0  0  0  0  0  0
    4.5966   41.0795   48.8153 C   0  0  0  0  0  3  0  0  0  0  0  0
    3.8218   41.6485   49.8289 C   0  0  0  0  0  0  0  0  0  0  0  0
    2.5174   41.1679   50.0846 N   0  0  0  0  0  0  0  0  0  0  0  0
    1.5037   41.1905   49.0868 C   0  0  0  0  0  3  0  0  0  0  0  0
    1.9389   40.6012   47.7715 C   0  0  0  0  0  2  0  0  0  0  0  0
    0.1516   40.7989   49.5487 C   0  0  0  0  0  2  0  0  0  0  0  0
    0.8272   40.4271   46.7995 C   0  0  0  0  0  2  0  0  0  0  0  0
   -0.5473   39.9842   48.5106 C   0  0  0  0  0  2  0  0  0  0  0  0
   -0.4362   40.6580   47.2906 O   0  0  0  0  0  0  0  0  0  0  0  0
  1  7  1  0
  2  1  2  0
  3  2  1  0
  4  5  1  0
  4  3  2  0
  5  6  2  0
  6  1  1  0
  7  8  1  0
  8 13  2  0
  9 14  1  0
  9 11  2  0
 10  9  1  0
 12 10  2  0
 12  8  1  0
 13 11  1  0
 15  5  1  0
 16 15  1  0
 16 17  2  0
 18 16  1  0
 19 17  1  0
 20 18  2  0
 20 21  1  0
 21 19  2  0
 22 21  1  0
 22 23  1  0
 23 24  1  0
 24 26  1  0
 25 23  1  0
 27 28  1  0
 27 25  1  0
 28 26  1  0
M  RAD  8   2   2   3   2  10   2  11   2  12   2  13   2  17   2  18   2
M  RAD  7  19   2  20   2  23   2  24   3  25   3  26   3  27   3
M  END
>  <REMARK>  (1) 
 SMILES Fc1ccc(Oc2ccnc(Nc3ccc(NC4CCOCC4)cc3)n2)cc1
 SMILES IDX 7 1 8 2 9 3 10 4 11 5 26 6 6 7 5 8 2 9 3 10 28 11 4 12 27 13
 SMILES IDX 1 14 12 15 13 17 14 18 25 19 15 20 24 21 16 22 17 23 18 25
 SMILES IDX 19 26 23 27 20 28 22 29 21 30
 H PARENT 12 16 17 24

>  <TORSDO>  (1) 
F 6

$$$$
