/home/pchatterjee/Documents/git/vs_workflow/DiffDock/diffdock_run/pdbqt_scrubbed/Z1159125105.pdbqt
     RDKit          3D

 28 31  0  0  0  0  0  0  0  0999 V2000
    8.2481   45.6885   51.5070 C   0  0  0  0  0  0  0  0  0  0  0  0
    9.6226   45.9091   51.4124 C   0  0  0  0  0  3  0  0  0  0  0  0
   10.4008   45.1611   50.5518 C   0  0  0  0  0  3  0  0  0  0  0  0
    9.7703   44.2192   49.8179 N   0  0  0  0  0  0  0  0  0  0  0  0
    8.4472   43.9855   49.8893 C   0  0  0  0  0  0  0  0  0  0  0  0
    7.7272   44.7270   50.7313 N   0  0  0  0  0  0  0  0  0  0  0  0
    7.4971   46.4612   52.3846 O   0  0  0  0  0  0  0  0  0  0  0  0
    8.0622   47.3072   53.3221 C   0  0  0  0  0  0  0  0  0  0  0  0
    9.1700   48.9848   55.1671 C   0  0  0  0  0  0  0  0  0  0  0  0
    8.2188   49.4573   54.2887 C   0  0  0  0  0  3  0  0  0  0  0  0
    9.5765   47.6759   55.1340 C   0  0  0  0  0  3  0  0  0  0  0  0
    7.6581   48.6131   53.3567 C   0  0  0  0  0  3  0  0  0  0  0  0
    9.0249   46.8140   54.2056 C   0  0  0  0  0  3  0  0  0  0  0  0
    9.6909   49.8541   56.0643 F   0  0  0  0  0  0  0  0  0  0  0  0
    7.8780   42.9578   49.0629 N   0  0  0  0  0  0  0  0  0  0  0  0
    6.5376   42.5655   49.3590 C   0  0  0  0  0  0  0  0  0  0  0  0
    5.8991   41.6650   48.5587 C   0  0  0  0  0  3  0  0  0  0  0  0
    5.8498   43.0700   50.4423 C   0  0  0  0  0  3  0  0  0  0  0  0
    4.5886   41.2824   48.8496 C   0  0  0  0  0  3  0  0  0  0  0  0
    4.5493   42.7059   50.7516 C   0  0  0  0  0  3  0  0  0  0  0  0
    3.8997   41.7829   49.9283 C   0  0  0  0  0  0  0  0  0  0  0  0
    2.5728   41.3858   50.2101 N   0  0  0  0  0  0  0  0  0  0  0  0
    1.7634   40.7386   49.2355 C   0  0  0  0  0  3  0  0  0  0  0  0
    0.3521   40.4861   49.6949 C   0  0  0  0  0  2  0  0  0  0  0  0
    1.9054   41.2512   47.8527 C   0  0  0  0  0  2  0  0  0  0  0  0
   -0.5503   40.0089   48.6137 C   0  0  0  0  0  2  0  0  0  0  0  0
    0.5826   41.2809   47.1605 C   0  0  0  0  0  2  0  0  0  0  0  0
   -0.0248   40.0350   47.3433 O   0  0  0  0  0  0  0  0  0  0  0  0
  1  7  1  0
  2  1  2  0
  3  2  1  0
  4  5  1  0
  4  3  2  0
  5  6  2  0
  6  1  1  0
  7  8  1  0
  8 13  2  0
  9 14  1  0
  9 11  2  0
 10  9  1  0
 12 10  2  0
 12  8  1  0
 13 11  1  0
 15  5  1  0
 16 15  1  0
 16 17  2  0
 18 16  1  0
 19 17  1  0
 20 18  2  0
 20 21  1  0
 21 19  2  0
 22 21  1  0
 22 23  1  0
 23 24  1  0
 24 26  1  0
 25 23  1  0
 27 28  1  0
 27 25  1  0
 28 26  1  0
M  RAD  8   2   2   3   2  10   2  11   2  12   2  13   2  17   2  18   2
M  RAD  7  19   2  20   2  23   2  24   3  25   3  26   3  27   3
M  END
>  <REMARK>  (1) 
 SMILES Fc1ccc(Oc2ccnc(Nc3ccc(NC4CCOCC4)cc3)n2)cc1
 SMILES IDX 7 1 8 2 9 3 10 4 11 5 26 6 6 7 5 8 2 9 3 10 28 11 4 12 27 13
 SMILES IDX 1 14 12 15 13 17 14 18 25 19 15 20 24 21 16 22 17 23 18 25
 SMILES IDX 19 26 23 27 20 28 22 29 21 30
 H PARENT 12 16 17 24

>  <TORSDO>  (1) 
F 6

$$$$
