/home/pchatterjee/Documents/git/vs_workflow/DiffDock/diffdock_run/pdbqt_scrubbed/Z1159125105.pdbqt
     RDKit          3D

 28 31  0  0  0  0  0  0  0  0999 V2000
    7.8668   45.7262   51.6903 C   0  0  0  0  0  0  0  0  0  0  0  0
    9.2476   45.9061   51.7787 C   0  0  0  0  0  3  0  0  0  0  0  0
   10.1100   45.1411   51.0194 C   0  0  0  0  0  3  0  0  0  0  0  0
    9.5544   44.2236   50.1992 N   0  0  0  0  0  0  0  0  0  0  0  0
    8.2272   44.0292   50.0943 C   0  0  0  0  0  0  0  0  0  0  0  0
    7.4246   44.7862   50.8427 N   0  0  0  0  0  0  0  0  0  0  0  0
    7.0298   46.5151   52.4703 O   0  0  0  0  0  0  0  0  0  0  0  0
    5.7486   46.1354   52.8283 C   0  0  0  0  0  0  0  0  0  0  0  0
    3.2172   45.3926   53.5253 C   0  0  0  0  0  0  0  0  0  0  0  0
    3.4222   46.1903   52.4202 C   0  0  0  0  0  3  0  0  0  0  0  0
    4.2688   44.9591   54.2907 C   0  0  0  0  0  3  0  0  0  0  0  0
    4.6984   46.5667   52.0662 C   0  0  0  0  0  3  0  0  0  0  0  0
    5.5565   45.3267   53.9508 C   0  0  0  0  0  3  0  0  0  0  0  0
    1.9441   45.0500   53.8317 F   0  0  0  0  0  0  0  0  0  0  0  0
    7.7418   43.0249   49.1894 N   0  0  0  0  0  0  0  0  0  0  0  0
    6.3859   42.6110   49.3578 C   0  0  0  0  0  0  0  0  0  0  0  0
    5.7715   41.8794   48.3850 C   0  0  0  0  0  3  0  0  0  0  0  0
    5.6588   42.9272   50.4858 C   0  0  0  0  0  3  0  0  0  0  0  0
    4.4457   41.4755   48.5511 C   0  0  0  0  0  3  0  0  0  0  0  0
    4.3425   42.5381   50.6737 C   0  0  0  0  0  3  0  0  0  0  0  0
    3.7177   41.7887   49.6739 C   0  0  0  0  0  0  0  0  0  0  0  0
    2.3758   41.3724   49.8278 N   0  0  0  0  0  0  0  0  0  0  0  0
    1.6651   40.7357   48.7727 C   0  0  0  0  0  3  0  0  0  0  0  0
    0.2451   40.3838   49.1284 C   0  0  0  0  0  2  0  0  0  0  0  0
    1.8614   41.3282   47.4290 C   0  0  0  0  0  2  0  0  0  0  0  0
   -0.5615   39.9173   47.9695 C   0  0  0  0  0  2  0  0  0  0  0  0
    0.5834   41.3239   46.6566 C   0  0  0  0  0  2  0  0  0  0  0  0
    0.0378   40.0393   46.7380 O   0  0  0  0  0  0  0  0  0  0  0  0
  1  7  1  0
  2  1  2  0
  3  2  1  0
  4  5  1  0
  4  3  2  0
  5  6  2  0
  6  1  1  0
  7  8  1  0
  8 13  2  0
  9 14  1  0
  9 11  2  0
 10  9  1  0
 12 10  2  0
 12  8  1  0
 13 11  1  0
 15  5  1  0
 16 15  1  0
 16 17  2  0
 18 16  1  0
 19 17  1  0
 20 18  2  0
 20 21  1  0
 21 19  2  0
 22 21  1  0
 22 23  1  0
 23 24  1  0
 24 26  1  0
 25 23  1  0
 27 28  1  0
 27 25  1  0
 28 26  1  0
M  RAD  8   2   2   3   2  10   2  11   2  12   2  13   2  17   2  18   2
M  RAD  7  19   2  20   2  23   2  24   3  25   3  26   3  27   3
M  END
>  <REMARK>  (1) 
 SMILES Fc1ccc(Oc2ccnc(Nc3ccc(NC4CCOCC4)cc3)n2)cc1
 SMILES IDX 7 1 8 2 9 3 10 4 11 5 26 6 6 7 5 8 2 9 3 10 28 11 4 12 27 13
 SMILES IDX 1 14 12 15 13 17 14 18 25 19 15 20 24 21 16 22 17 23 18 25
 SMILES IDX 19 26 23 27 20 28 22 29 21 30
 H PARENT 12 16 17 24

>  <TORSDO>  (1) 
F 6

$$$$
