/home/pchatterjee/Documents/git/vs_workflow/DiffDock/diffdock_run/pdbqt_scrubbed/Z24682342.pdbqt
     RDKit          3D

 26 29  0  0  1  0  0  0  0  0999 V2000
    9.2847   44.8760   50.3338 S   0  0  0  0  0  0  0  0  0  0  0  0
    9.3578   45.1902   52.1199 C   0  0  0  0  0  2  0  0  0  0  0  0
    9.1811   46.6748   52.2668 C   0  0  0  0  0  0  0  0  0  0  0  0
    8.0218   47.2145   52.8914 N   0  0  0  0  0  0  0  0  0  0  0  0
    6.9105   46.4263   53.3505 C   0  0  0  0  0  2  0  0  0  0  0  0
    7.7674   48.6236   53.1666 C   0  0  0  0  0  2  0  0  0  0  0  0
    6.4112   47.1784   54.5405 C   0  0  0  0  0  2  0  0  0  0  0  0
    6.9156   48.5988   54.4067 C   0  0  0  0  0  2  0  0  0  0  0  0
   10.0388   47.4956   51.8497 O   0  0  0  0  0  0  0  0  0  0  0  0
    7.6890   44.1238   50.0021 C   0  0  0  0  0  0  0  0  0  0  0  0
    6.5892   44.5816   50.4911 N   0  0  0  0  0  0  0  0  0  0  0  0
    7.7039   42.9701   49.1521 N   0  0  0  0  0  2  0  0  0  0  0  0
    5.2814   44.0490   50.2810 C   0  0  0  0  0  3  0  0  0  0  0  0
    6.4622   42.3526   48.8704 C   0  0  0  0  0  0  0  0  0  0  0  0
    5.2979   42.8620   49.4062 C   0  0  0  0  0  0  0  0  0  0  0  0
    6.3873   41.2418   48.0644 C   0  0  0  0  0  3  0  0  0  0  0  0
    4.0911   42.2502   49.1240 C   0  0  0  0  0  3  0  0  0  0  0  0
    5.1932   40.6041   47.7612 C   0  0  0  0  0  3  0  0  0  0  0  0
    4.0479   41.1343   48.3097 C   0  0  0  0  0  3  0  0  0  0  0  0
    4.6180   43.7260   51.5295 N   0  0  0  0  0  0  0  0  0  0  0  0
    4.1831   44.7607   52.4208 C   0  0  0  0  0  0  0  0  0  0  0  0
    4.5367   44.7715   53.7426 C   0  0  0  0  0  3  0  0  0  0  0  0
    3.3896   45.7769   51.9534 C   0  0  0  0  0  3  0  0  0  0  0  0
    4.1154   45.7727   54.6032 C   0  0  0  0  0  3  0  0  0  0  0  0
    2.9580   46.7867   52.7971 C   0  0  0  0  0  3  0  0  0  0  0  0
    3.3129   46.7989   54.1272 C   0  0  0  0  0  3  0  0  0  0  0  0
  1 10  1  0
  2  1  1  0
  3  9  2  0
  3  2  1  0
  4  3  1  0
  5  4  1  0
  6  4  1  0
  7  8  1  0
  7  5  1  0
  8  6  1  0
 10 12  1  0
 11 10  2  0
 11 13  1  0
 12 14  1  0
 13 20  1  0
 13 15  1  0
 14 16  1  0
 15 14  2  0
 15 17  1  0
 16 18  2  0
 17 19  2  0
 19 18  1  0
 21 20  1  0
 22 21  2  0
 23 21  1  0
 24 22  1  0
 25 23  2  0
 26 25  1  0
 26 24  2  0
M  RAD  8   2   3   5   3   6   3   7   3   8   3  12   2  13   2  16   2
M  RAD  8  17   2  18   2  19   2  22   2  23   2  24   2  25   2  26   2
M  END
>  <REMARK>  (1) 
 SMILES O=C(CSc1nc(Nc2ccccc2)c2ccccc2n1)N1CCCC1
 SMILES IDX 4 1 3 2 2 3 22 4 23 5 26 6 24 7 25 8 1 9 5 10 6 11 21 12
 SMILES IDX 7 13 20 14 15 15 19 16 16 17 18 18 17 19 8 20 9 22 10 23
 SMILES IDX 14 24 11 25 13 26 12 27
 H PARENT 8 21

>  <TORSDO>  (1) 
F 5

$$$$
