/home/pchatterjee/Documents/git/vs_workflow/DiffDock/diffdock_run/pdbqt_scrubbed/Z24682342.pdbqt
     RDKit          3D

 26 29  0  0  1  0  0  0  0  0999 V2000
    9.3680   44.6402   50.2849 S   0  0  0  0  0  0  0  0  0  0  0  0
    9.3271   45.2890   51.9796 C   0  0  0  0  0  2  0  0  0  0  0  0
    8.6882   46.6441   51.8678 C   0  0  0  0  0  0  0  0  0  0  0  0
    7.9483   47.1948   52.9516 N   0  0  0  0  0  0  0  0  0  0  0  0
    7.4725   48.5506   52.9987 C   0  0  0  0  0  2  0  0  0  0  0  0
    7.5552   46.4971   54.1701 C   0  0  0  0  0  2  0  0  0  0  0  0
    6.1998   48.4520   53.7743 C   0  0  0  0  0  2  0  0  0  0  0  0
    6.2647   47.1629   54.5642 C   0  0  0  0  0  2  0  0  0  0  0  0
    8.7779   47.3425   50.8250 O   0  0  0  0  0  0  0  0  0  0  0  0
    7.7260   44.0080   49.9295 C   0  0  0  0  0  0  0  0  0  0  0  0
    6.6564   44.5435   50.4062 N   0  0  0  0  0  0  0  0  0  0  0  0
    7.6677   42.8591   49.0749 N   0  0  0  0  0  2  0  0  0  0  0  0
    5.3160   44.1088   50.1770 C   0  0  0  0  0  3  0  0  0  0  0  0
    6.3879   42.3351   48.7746 C   0  0  0  0  0  0  0  0  0  0  0  0
    5.2571   42.9266   49.2974 C   0  0  0  0  0  0  0  0  0  0  0  0
    6.2426   41.2355   47.9629 C   0  0  0  0  0  3  0  0  0  0  0  0
    4.0126   42.4059   48.9970 C   0  0  0  0  0  3  0  0  0  0  0  0
    5.0091   40.6879   47.6416 C   0  0  0  0  0  3  0  0  0  0  0  0
    3.8985   41.2987   48.1775 C   0  0  0  0  0  3  0  0  0  0  0  0
    4.6143   43.8312   51.4154 N   0  0  0  0  0  0  0  0  0  0  0  0
    4.2550   44.8908   52.3111 C   0  0  0  0  0  0  0  0  0  0  0  0
    3.7414   46.0758   51.8592 C   0  0  0  0  0  3  0  0  0  0  0  0
    4.4237   44.7304   53.6626 C   0  0  0  0  0  3  0  0  0  0  0  0
    3.3945   47.0995   52.7265 C   0  0  0  0  0  3  0  0  0  0  0  0
    4.0832   45.7412   54.5459 C   0  0  0  0  0  3  0  0  0  0  0  0
    3.5664   46.9340   54.0927 C   0  0  0  0  0  3  0  0  0  0  0  0
  1 10  1  0
  2  1  1  0
  3  9  2  0
  3  2  1  0
  4  3  1  0
  5  4  1  0
  6  4  1  0
  7  8  1  0
  7  5  1  0
  8  6  1  0
 10 12  1  0
 11 10  2  0
 11 13  1  0
 12 14  1  0
 13 20  1  0
 13 15  1  0
 14 16  1  0
 15 14  2  0
 15 17  1  0
 16 18  2  0
 17 19  2  0
 19 18  1  0
 21 20  1  0
 22 21  2  0
 23 21  1  0
 24 22  1  0
 25 23  2  0
 26 25  1  0
 26 24  2  0
M  RAD  8   2   3   5   3   6   3   7   3   8   3  12   2  13   2  16   2
M  RAD  8  17   2  18   2  19   2  22   2  23   2  24   2  25   2  26   2
M  END
>  <REMARK>  (1) 
 SMILES O=C(CSc1nc(Nc2ccccc2)c2ccccc2n1)N1CCCC1
 SMILES IDX 4 1 3 2 2 3 22 4 23 5 26 6 24 7 25 8 1 9 5 10 6 11 21 12
 SMILES IDX 7 13 20 14 15 15 19 16 16 17 18 18 17 19 8 20 9 22 10 23
 SMILES IDX 14 24 11 25 13 26 12 27
 H PARENT 8 21

>  <TORSDO>  (1) 
F 5

$$$$
