/home/pchatterjee/Documents/git/vs_workflow/DiffDock/diffdock_run/pdbqt_scrubbed/Z24682342.pdbqt
     RDKit          3D

 26 29  0  0  1  0  0  0  0  0999 V2000
    9.8659   44.8671   50.5701 S   0  0  0  0  0  0  0  0  0  0  0  0
   10.0366   46.5740   51.1633 C   0  0  0  0  0  2  0  0  0  0  0  0
    9.7979   46.5023   52.6448 C   0  0  0  0  0  0  0  0  0  0  0  0
    8.7812   47.2856   53.2598 N   0  0  0  0  0  0  0  0  0  0  0  0
    8.6067   47.4107   54.6813 C   0  0  0  0  0  2  0  0  0  0  0  0
    7.7670   48.0759   52.5722 C   0  0  0  0  0  2  0  0  0  0  0  0
    8.0787   48.7975   54.8520 C   0  0  0  0  0  2  0  0  0  0  0  0
    7.4962   49.2137   53.5188 C   0  0  0  0  0  2  0  0  0  0  0  0
   10.4772   45.7567   53.3970 O   0  0  0  0  0  0  0  0  0  0  0  0
    8.1174   44.4660   50.6337 C   0  0  0  0  0  0  0  0  0  0  0  0
    7.6083   43.4714   49.9936 N   0  0  0  0  0  0  0  0  0  0  0  0
    7.3063   45.3236   51.4464 N   0  0  0  0  0  2  0  0  0  0  0  0
    6.2351   43.0810   49.9869 C   0  0  0  0  0  3  0  0  0  0  0  0
    5.9228   45.0352   51.5184 C   0  0  0  0  0  0  0  0  0  0  0  0
    5.4014   43.9641   50.8234 C   0  0  0  0  0  0  0  0  0  0  0  0
    5.0741   45.8076   52.2749 C   0  0  0  0  0  3  0  0  0  0  0  0
    4.0485   43.6923   50.9015 C   0  0  0  0  0  3  0  0  0  0  0  0
    3.7123   45.5625   52.3750 C   0  0  0  0  0  3  0  0  0  0  0  0
    3.2201   44.4874   51.6709 C   0  0  0  0  0  3  0  0  0  0  0  0
    5.6913   43.0252   48.6436 N   0  0  0  0  0  0  0  0  0  0  0  0
    4.8408   41.9451   48.2383 C   0  0  0  0  0  0  0  0  0  0  0  0
    3.7763   41.5403   48.9965 C   0  0  0  0  0  3  0  0  0  0  0  0
    5.0856   41.2871   47.0603 C   0  0  0  0  0  3  0  0  0  0  0  0
    2.9547   40.4957   48.6034 C   0  0  0  0  0  3  0  0  0  0  0  0
    4.2766   40.2408   46.6495 C   0  0  0  0  0  3  0  0  0  0  0  0
    3.2052   39.8324   47.4114 C   0  0  0  0  0  3  0  0  0  0  0  0
  1 10  1  0
  2  1  1  0
  3  9  2  0
  3  2  1  0
  4  3  1  0
  5  4  1  0
  6  4  1  0
  7  8  1  0
  7  5  1  0
  8  6  1  0
 10 12  1  0
 11 10  2  0
 11 13  1  0
 12 14  1  0
 13 20  1  0
 13 15  1  0
 14 16  1  0
 15 14  2  0
 15 17  1  0
 16 18  2  0
 17 19  2  0
 19 18  1  0
 21 20  1  0
 22 21  2  0
 23 21  1  0
 24 22  1  0
 25 23  2  0
 26 25  1  0
 26 24  2  0
M  RAD  8   2   3   5   3   6   3   7   3   8   3  12   2  13   2  16   2
M  RAD  8  17   2  18   2  19   2  22   2  23   2  24   2  25   2  26   2
M  END
>  <REMARK>  (1) 
 SMILES O=C(CSc1nc(Nc2ccccc2)c2ccccc2n1)N1CCCC1
 SMILES IDX 4 1 3 2 2 3 22 4 23 5 26 6 24 7 25 8 1 9 5 10 6 11 21 12
 SMILES IDX 7 13 20 14 15 15 19 16 16 17 18 18 17 19 8 20 9 22 10 23
 SMILES IDX 14 24 11 25 13 26 12 27
 H PARENT 8 21

>  <TORSDO>  (1) 
F 5

$$$$
