/home/pchatterjee/Documents/git/vs_workflow/DiffDock/diffdock_run/pdbqt_scrubbed/Z24682342.pdbqt
     RDKit          3D

 26 29  0  0  1  0  0  0  0  0999 V2000
    9.3446   44.9695   50.2691 S   0  0  0  0  0  0  0  0  0  0  0  0
    9.0809   46.6300   50.9530 C   0  0  0  0  0  2  0  0  0  0  0  0
    9.1639   46.4605   52.4434 C   0  0  0  0  0  0  0  0  0  0  0  0
    8.2353   47.1087   53.3055 N   0  0  0  0  0  0  0  0  0  0  0  0
    8.4499   47.3204   54.7111 C   0  0  0  0  0  2  0  0  0  0  0  0
    6.9395   47.6560   52.9217 C   0  0  0  0  0  2  0  0  0  0  0  0
    7.7432   48.6071   54.9869 C   0  0  0  0  0  2  0  0  0  0  0  0
    6.7406   48.8063   53.8711 C   0  0  0  0  0  2  0  0  0  0  0  0
   10.0461   45.7475   52.9880 O   0  0  0  0  0  0  0  0  0  0  0  0
    7.7208   44.2548   49.9962 C   0  0  0  0  0  0  0  0  0  0  0  0
    6.6517   44.7323   50.5320 N   0  0  0  0  0  0  0  0  0  0  0  0
    7.6765   43.1080   49.1378 N   0  0  0  0  0  2  0  0  0  0  0  0
    5.3252   44.2300   50.3705 C   0  0  0  0  0  3  0  0  0  0  0  0
    6.4112   42.5199   48.9016 C   0  0  0  0  0  0  0  0  0  0  0  0
    5.2807   43.0500   49.4872 C   0  0  0  0  0  0  0  0  0  0  0  0
    6.2799   41.4176   48.0911 C   0  0  0  0  0  3  0  0  0  0  0  0
    4.0505   42.4669   49.2490 C   0  0  0  0  0  3  0  0  0  0  0  0
    5.0609   40.8083   47.8313 C   0  0  0  0  0  3  0  0  0  0  0  0
    3.9503   41.3587   48.4290 C   0  0  0  0  0  3  0  0  0  0  0  0
    4.7050   43.9113   51.6422 N   0  0  0  0  0  0  0  0  0  0  0  0
    4.3568   44.9459   52.5708 C   0  0  0  0  0  0  0  0  0  0  0  0
    4.7307   44.8923   53.8859 C   0  0  0  0  0  3  0  0  0  0  0  0
    3.6284   46.0280   52.1472 C   0  0  0  0  0  3  0  0  0  0  0  0
    4.3932   45.8936   54.7826 C   0  0  0  0  0  3  0  0  0  0  0  0
    3.2809   47.0391   53.0275 C   0  0  0  0  0  3  0  0  0  0  0  0
    3.6565   46.9865   54.3509 C   0  0  0  0  0  3  0  0  0  0  0  0
  1 10  1  0
  2  1  1  0
  3  9  2  0
  3  2  1  0
  4  3  1  0
  5  4  1  0
  6  4  1  0
  7  8  1  0
  7  5  1  0
  8  6  1  0
 10 12  1  0
 11 10  2  0
 11 13  1  0
 12 14  1  0
 13 20  1  0
 13 15  1  0
 14 16  1  0
 15 14  2  0
 15 17  1  0
 16 18  2  0
 17 19  2  0
 19 18  1  0
 21 20  1  0
 22 21  2  0
 23 21  1  0
 24 22  1  0
 25 23  2  0
 26 25  1  0
 26 24  2  0
M  RAD  8   2   3   5   3   6   3   7   3   8   3  12   2  13   2  16   2
M  RAD  8  17   2  18   2  19   2  22   2  23   2  24   2  25   2  26   2
M  END
>  <REMARK>  (1) 
 SMILES O=C(CSc1nc(Nc2ccccc2)c2ccccc2n1)N1CCCC1
 SMILES IDX 4 1 3 2 2 3 22 4 23 5 26 6 24 7 25 8 1 9 5 10 6 11 21 12
 SMILES IDX 7 13 20 14 15 15 19 16 16 17 18 18 17 19 8 20 9 22 10 23
 SMILES IDX 14 24 11 25 13 26 12 27
 H PARENT 8 21

>  <TORSDO>  (1) 
F 5

$$$$
