/home/pchatterjee/Documents/git/vs_workflow/DiffDock/diffdock_run/pdbqt_scrubbed/Z24682342.pdbqt
     RDKit          3D

 26 29  0  0  1  0  0  0  0  0999 V2000
    8.1756   43.7259   49.3845 S   0  0  0  0  0  0  0  0  0  0  0  0
    8.4209   44.2866   51.0932 C   0  0  0  0  0  2  0  0  0  0  0  0
    9.0539   45.6440   50.9758 C   0  0  0  0  0  0  0  0  0  0  0  0
    9.0590   46.5456   52.0770 N   0  0  0  0  0  0  0  0  0  0  0  0
    9.8489   47.7454   52.1350 C   0  0  0  0  0  2  0  0  0  0  0  0
    8.2840   46.4117   53.3047 C   0  0  0  0  0  2  0  0  0  0  0  0
    9.0101   48.6823   52.9410 C   0  0  0  0  0  2  0  0  0  0  0  0
    8.0364   47.8337   53.7295 C   0  0  0  0  0  2  0  0  0  0  0  0
    9.6002   46.0383   49.9131 O   0  0  0  0  0  0  0  0  0  0  0  0
    6.4535   43.2414   49.2374 C   0  0  0  0  0  0  0  0  0  0  0  0
    5.5005   43.8720   49.8311 N   0  0  0  0  0  0  0  0  0  0  0  0
    6.1915   42.0992   48.4125 N   0  0  0  0  0  2  0  0  0  0  0  0
    4.1092   43.5578   49.7704 C   0  0  0  0  0  3  0  0  0  0  0  0
    4.8437   41.6905   48.2752 C   0  0  0  0  0  0  0  0  0  0  0  0
    3.8407   42.3824   48.9213 C   0  0  0  0  0  0  0  0  0  0  0  0
    4.5051   40.6052   47.5027 C   0  0  0  0  0  3  0  0  0  0  0  0
    2.5280   41.9737   48.7796 C   0  0  0  0  0  3  0  0  0  0  0  0
    3.1984   40.1687   47.3394 C   0  0  0  0  0  3  0  0  0  0  0  0
    2.2188   40.8781   47.9957 C   0  0  0  0  0  3  0  0  0  0  0  0
    3.5403   43.3484   51.0878 N   0  0  0  0  0  0  0  0  0  0  0  0
    3.4608   44.4219   52.0341 C   0  0  0  0  0  0  0  0  0  0  0  0
    4.0463   44.3420   53.2681 C   0  0  0  0  0  3  0  0  0  0  0  0
    2.7828   45.5694   51.7109 C   0  0  0  0  0  3  0  0  0  0  0  0
    3.9685   45.3809   54.1821 C   0  0  0  0  0  3  0  0  0  0  0  0
    2.6935   46.6189   52.6100 C   0  0  0  0  0  3  0  0  0  0  0  0
    3.2821   46.5400   53.8520 C   0  0  0  0  0  3  0  0  0  0  0  0
  1 10  1  0
  2  1  1  0
  3  9  2  0
  3  2  1  0
  4  3  1  0
  5  4  1  0
  6  4  1  0
  7  8  1  0
  7  5  1  0
  8  6  1  0
 10 12  1  0
 11 10  2  0
 11 13  1  0
 12 14  1  0
 13 20  1  0
 13 15  1  0
 14 16  1  0
 15 14  2  0
 15 17  1  0
 16 18  2  0
 17 19  2  0
 19 18  1  0
 21 20  1  0
 22 21  2  0
 23 21  1  0
 24 22  1  0
 25 23  2  0
 26 25  1  0
 26 24  2  0
M  RAD  8   2   3   5   3   6   3   7   3   8   3  12   2  13   2  16   2
M  RAD  8  17   2  18   2  19   2  22   2  23   2  24   2  25   2  26   2
M  END
>  <REMARK>  (1) 
 SMILES O=C(CSc1nc(Nc2ccccc2)c2ccccc2n1)N1CCCC1
 SMILES IDX 4 1 3 2 2 3 22 4 23 5 26 6 24 7 25 8 1 9 5 10 6 11 21 12
 SMILES IDX 7 13 20 14 15 15 19 16 16 17 18 18 17 19 8 20 9 22 10 23
 SMILES IDX 14 24 11 25 13 26 12 27
 H PARENT 8 21

>  <TORSDO>  (1) 
F 5

$$$$
