/home/pchatterjee/Documents/git/vs_workflow/DiffDock/diffdock_run/pdbqt_scrubbed/Z24682342.pdbqt
     RDKit          3D

 26 29  0  0  1  0  0  0  0  0999 V2000
   10.2018   83.9518   70.9559 S   0  0  0  0  0  0  0  0  0  0  0  0
   11.2901   84.4465   69.5901 C   0  0  0  0  0  2  0  0  0  0  0  0
   11.5639   85.9067   69.8130 C   0  0  0  0  0  0  0  0  0  0  0  0
   12.6314   86.5615   69.1369 N   0  0  0  0  0  0  0  0  0  0  0  0
   13.5854   85.8926   68.2947 C   0  0  0  0  0  2  0  0  0  0  0  0
   12.9339   87.9872   69.1804 C   0  0  0  0  0  2  0  0  0  0  0  0
   13.9207   86.9151   67.2589 C   0  0  0  0  0  2  0  0  0  0  0  0
   13.5508   88.2641   67.8362 C   0  0  0  0  0  2  0  0  0  0  0  0
   10.8709   86.6057   70.5969 O   0  0  0  0  0  0  0  0  0  0  0  0
   11.1955   83.9811   72.4504 C   0  0  0  0  0  0  0  0  0  0  0  0
   12.4292   84.3497   72.4582 N   0  0  0  0  0  0  0  0  0  0  0  0
   10.5335   83.5665   73.6520 N   0  0  0  0  0  2  0  0  0  0  0  0
   13.2908   84.4036   73.5952 C   0  0  0  0  0  3  0  0  0  0  0  0
   11.2887   83.5779   74.8487 C   0  0  0  0  0  0  0  0  0  0  0  0
   12.6087   83.9769   74.8310 C   0  0  0  0  0  0  0  0  0  0  0  0
   10.7306   83.1954   76.0451 C   0  0  0  0  0  3  0  0  0  0  0  0
   13.3362   83.9837   76.0062 C   0  0  0  0  0  3  0  0  0  0  0  0
   11.4321   83.1906   77.2420 C   0  0  0  0  0  3  0  0  0  0  0  0
   12.7470   83.5935   77.1941 C   0  0  0  0  0  3  0  0  0  0  0  0
   14.4937   83.6161   73.4048 N   0  0  0  0  0  0  0  0  0  0  0  0
   15.3379   83.8259   72.2657 C   0  0  0  0  0  0  0  0  0  0  0  0
   15.6766   85.0809   71.8388 C   0  0  0  0  0  3  0  0  0  0  0  0
   15.8295   82.7500   71.5717 C   0  0  0  0  0  3  0  0  0  0  0  0
   16.4930   85.2821   70.7372 C   0  0  0  0  0  3  0  0  0  0  0  0
   16.6468   82.9297   70.4683 C   0  0  0  0  0  3  0  0  0  0  0  0
   16.9884   84.1919   70.0376 C   0  0  0  0  0  3  0  0  0  0  0  0
  1 10  1  0
  2  1  1  0
  3  9  2  0
  3  2  1  0
  4  3  1  0
  5  4  1  0
  6  4  1  0
  7  8  1  0
  7  5  1  0
  8  6  1  0
 10 12  1  0
 11 10  2  0
 11 13  1  0
 12 14  1  0
 13 20  1  0
 13 15  1  0
 14 16  1  0
 15 14  2  0
 15 17  1  0
 16 18  2  0
 17 19  2  0
 19 18  1  0
 21 20  1  0
 22 21  2  0
 23 21  1  0
 24 22  1  0
 25 23  2  0
 26 25  1  0
 26 24  2  0
M  RAD  8   2   3   5   3   6   3   7   3   8   3  12   2  13   2  16   2
M  RAD  8  17   2  18   2  19   2  22   2  23   2  24   2  25   2  26   2
M  END
>  <REMARK>  (1) 
 SMILES O=C(CSc1nc(Nc2ccccc2)c2ccccc2n1)N1CCCC1
 SMILES IDX 4 1 3 2 2 3 22 4 23 5 26 6 24 7 25 8 1 9 5 10 6 11 21 12
 SMILES IDX 7 13 20 14 15 15 19 16 16 17 18 18 17 19 8 20 9 22 10 23
 SMILES IDX 14 24 11 25 13 26 12 27
 H PARENT 8 21

>  <TORSDO>  (1) 
F 5

$$$$
