/home/pchatterjee/Documents/git/vs_workflow/DiffDock/diffdock_run/pdbqt_scrubbed/Z24682342.pdbqt
     RDKit          3D

 26 29  0  0  1  0  0  0  0  0999 V2000
    9.2273   44.6838   50.2231 S   0  0  0  0  0  0  0  0  0  0  0  0
    8.9804   46.4110   50.7232 C   0  0  0  0  0  2  0  0  0  0  0  0
    9.2259   46.4315   52.2052 C   0  0  0  0  0  0  0  0  0  0  0  0
    8.2797   47.0135   53.0947 N   0  0  0  0  0  0  0  0  0  0  0  0
    8.5519   47.3283   54.4708 C   0  0  0  0  0  2  0  0  0  0  0  0
    6.9061   47.3815   52.7724 C   0  0  0  0  0  2  0  0  0  0  0  0
    7.7123   48.5362   54.7300 C   0  0  0  0  0  2  0  0  0  0  0  0
    6.6271   48.5523   53.6754 C   0  0  0  0  0  2  0  0  0  0  0  0
   10.2651   45.9414   52.7184 O   0  0  0  0  0  0  0  0  0  0  0  0
    7.5971   43.9791   49.9620 C   0  0  0  0  0  0  0  0  0  0  0  0
    6.5249   44.5126   50.4351 N   0  0  0  0  0  0  0  0  0  0  0  0
    7.5515   42.7738   49.1880 N   0  0  0  0  0  2  0  0  0  0  0  0
    5.1933   44.0227   50.2773 C   0  0  0  0  0  3  0  0  0  0  0  0
    6.2813   42.1919   48.9634 C   0  0  0  0  0  0  0  0  0  0  0  0
    5.1475   42.7825   49.4807 C   0  0  0  0  0  0  0  0  0  0  0  0
    6.1483   41.0359   48.2317 C   0  0  0  0  0  3  0  0  0  0  0  0
    3.9124   42.2048   49.2547 C   0  0  0  0  0  3  0  0  0  0  0  0
    4.9245   40.4304   47.9863 C   0  0  0  0  0  3  0  0  0  0  0  0
    3.8107   41.0418   48.5147 C   0  0  0  0  0  3  0  0  0  0  0  0
    4.5373   43.8080   51.5528 N   0  0  0  0  0  0  0  0  0  0  0  0
    4.2403   44.9083   52.4218 C   0  0  0  0  0  0  0  0  0  0  0  0
    3.6724   46.0631   51.9571 C   0  0  0  0  0  3  0  0  0  0  0  0
    4.5266   44.8192   53.7601 C   0  0  0  0  0  3  0  0  0  0  0  0
    3.3858   47.1262   52.7987 C   0  0  0  0  0  3  0  0  0  0  0  0
    4.2480   45.8702   54.6177 C   0  0  0  0  0  3  0  0  0  0  0  0
    3.6765   47.0327   54.1516 C   0  0  0  0  0  3  0  0  0  0  0  0
  1 10  1  0
  2  1  1  0
  3  9  2  0
  3  2  1  0
  4  3  1  0
  5  4  1  0
  6  4  1  0
  7  8  1  0
  7  5  1  0
  8  6  1  0
 10 12  1  0
 11 10  2  0
 11 13  1  0
 12 14  1  0
 13 20  1  0
 13 15  1  0
 14 16  1  0
 15 14  2  0
 15 17  1  0
 16 18  2  0
 17 19  2  0
 19 18  1  0
 21 20  1  0
 22 21  2  0
 23 21  1  0
 24 22  1  0
 25 23  2  0
 26 25  1  0
 26 24  2  0
M  RAD  8   2   3   5   3   6   3   7   3   8   3  12   2  13   2  16   2
M  RAD  8  17   2  18   2  19   2  22   2  23   2  24   2  25   2  26   2
M  END
>  <REMARK>  (1) 
 SMILES O=C(CSc1nc(Nc2ccccc2)c2ccccc2n1)N1CCCC1
 SMILES IDX 4 1 3 2 2 3 22 4 23 5 26 6 24 7 25 8 1 9 5 10 6 11 21 12
 SMILES IDX 7 13 20 14 15 15 19 16 16 17 18 18 17 19 8 20 9 22 10 23
 SMILES IDX 14 24 11 25 13 26 12 27
 H PARENT 8 21

>  <TORSDO>  (1) 
F 5

$$$$
