/home/pchatterjee/Documents/git/vs_workflow/DiffDock/diffdock_run/pdbqt_scrubbed/Z24682342.pdbqt
     RDKit          3D

 26 29  0  0  1  0  0  0  0  0999 V2000
    9.3012   44.8755   50.3520 S   0  0  0  0  0  0  0  0  0  0  0  0
    9.4082   45.0830   52.1520 C   0  0  0  0  0  2  0  0  0  0  0  0
    9.0591   46.5222   52.4045 C   0  0  0  0  0  0  0  0  0  0  0  0
    7.8851   46.8732   53.1284 N   0  0  0  0  0  0  0  0  0  0  0  0
    6.9307   45.9222   53.6299 C   0  0  0  0  0  2  0  0  0  0  0  0
    7.4587   48.2231   53.4775 C   0  0  0  0  0  2  0  0  0  0  0  0
    6.4206   46.5592   54.8809 C   0  0  0  0  0  2  0  0  0  0  0  0
    6.7119   48.0401   54.7710 C   0  0  0  0  0  2  0  0  0  0  0  0
    9.7796   47.4680   51.9927 O   0  0  0  0  0  0  0  0  0  0  0  0
    7.7028   44.1350   50.0072 C   0  0  0  0  0  0  0  0  0  0  0  0
    6.6031   44.5973   50.4921 N   0  0  0  0  0  0  0  0  0  0  0  0
    7.7155   42.9856   49.1514 N   0  0  0  0  0  2  0  0  0  0  0  0
    5.2932   44.0741   50.2716 C   0  0  0  0  0  3  0  0  0  0  0  0
    6.4716   42.3774   48.8594 C   0  0  0  0  0  0  0  0  0  0  0  0
    5.3074   42.8913   49.3909 C   0  0  0  0  0  0  0  0  0  0  0  0
    6.3945   41.2711   48.0472 C   0  0  0  0  0  3  0  0  0  0  0  0
    4.0985   42.2887   49.0985 C   0  0  0  0  0  3  0  0  0  0  0  0
    5.1982   40.6425   47.7339 C   0  0  0  0  0  3  0  0  0  0  0  0
    4.0530   41.1771   48.2783 C   0  0  0  0  0  3  0  0  0  0  0  0
    4.6204   43.7489   51.5146 N   0  0  0  0  0  0  0  0  0  0  0  0
    4.1191   44.7822   52.3720 C   0  0  0  0  0  0  0  0  0  0  0  0
    3.4743   45.8826   51.8766 C   0  0  0  0  0  3  0  0  0  0  0  0
    4.2811   44.6822   53.7301 C   0  0  0  0  0  3  0  0  0  0  0  0
    2.9901   46.8809   52.7069 C   0  0  0  0  0  3  0  0  0  0  0  0
    3.8046   45.6689   54.5770 C   0  0  0  0  0  3  0  0  0  0  0  0
    3.1557   46.7765   54.0800 C   0  0  0  0  0  3  0  0  0  0  0  0
  1 10  1  0
  2  1  1  0
  3  9  2  0
  3  2  1  0
  4  3  1  0
  5  4  1  0
  6  4  1  0
  7  8  1  0
  7  5  1  0
  8  6  1  0
 10 12  1  0
 11 10  2  0
 11 13  1  0
 12 14  1  0
 13 20  1  0
 13 15  1  0
 14 16  1  0
 15 14  2  0
 15 17  1  0
 16 18  2  0
 17 19  2  0
 19 18  1  0
 21 20  1  0
 22 21  2  0
 23 21  1  0
 24 22  1  0
 25 23  2  0
 26 25  1  0
 26 24  2  0
M  RAD  8   2   3   5   3   6   3   7   3   8   3  12   2  13   2  16   2
M  RAD  8  17   2  18   2  19   2  22   2  23   2  24   2  25   2  26   2
M  END
>  <REMARK>  (1) 
 SMILES O=C(CSc1nc(Nc2ccccc2)c2ccccc2n1)N1CCCC1
 SMILES IDX 4 1 3 2 2 3 22 4 23 5 26 6 24 7 25 8 1 9 5 10 6 11 21 12
 SMILES IDX 7 13 20 14 15 15 19 16 16 17 18 18 17 19 8 20 9 22 10 23
 SMILES IDX 14 24 11 25 13 26 12 27
 H PARENT 8 21

>  <TORSDO>  (1) 
F 5

$$$$
