/home/pchatterjee/Documents/git/vs_workflow/DiffDock/diffdock_run/pdbqt_scrubbed/Z24682342.pdbqt
     RDKit          3D

 26 29  0  0  1  0  0  0  0  0999 V2000
    9.0009   44.1362   50.2638 S   0  0  0  0  0  0  0  0  0  0  0  0
    9.9175   44.8885   51.6379 C   0  0  0  0  0  2  0  0  0  0  0  0
    9.6628   46.3645   51.5208 C   0  0  0  0  0  0  0  0  0  0  0  0
    8.9206   47.0592   52.5166 N   0  0  0  0  0  0  0  0  0  0  0  0
    8.2942   46.4267   53.6455 C   0  0  0  0  0  2  0  0  0  0  0  0
    8.6735   48.4955   52.5628 C   0  0  0  0  0  2  0  0  0  0  0  0
    8.3761   47.4605   54.7205 C   0  0  0  0  0  2  0  0  0  0  0  0
    8.5715   48.7948   54.0338 C   0  0  0  0  0  2  0  0  0  0  0  0
   10.0888   47.0423   50.5500 O   0  0  0  0  0  0  0  0  0  0  0  0
    7.2672   44.1425   50.7290 C   0  0  0  0  0  0  0  0  0  0  0  0
    6.4311   43.2581   50.3083 N   0  0  0  0  0  0  0  0  0  0  0  0
    6.8569   45.1991   51.6059 N   0  0  0  0  0  2  0  0  0  0  0  0
    5.0410   43.1869   50.6258 C   0  0  0  0  0  3  0  0  0  0  0  0
    5.4960   45.2332   51.9923 C   0  0  0  0  0  0  0  0  0  0  0  0
    4.6199   44.2745   51.5283 C   0  0  0  0  0  0  0  0  0  0  0  0
    5.0195   46.2126   52.8308 C   0  0  0  0  0  3  0  0  0  0  0  0
    3.2930   44.3183   51.9126 C   0  0  0  0  0  3  0  0  0  0  0  0
    3.6946   46.2854   53.2357 C   0  0  0  0  0  3  0  0  0  0  0  0
    2.8435   45.3158   52.7571 C   0  0  0  0  0  3  0  0  0  0  0  0
    4.2101   43.1897   49.4372 N   0  0  0  0  0  0  0  0  0  0  0  0
    4.2953   42.1288   48.4774 C   0  0  0  0  0  0  0  0  0  0  0  0
    3.3030   41.8998   47.5636 C   0  0  0  0  0  3  0  0  0  0  0  0
    5.3952   41.3098   48.4594 C   0  0  0  0  0  3  0  0  0  0  0  0
    3.3868   40.8735   46.6361 C   0  0  0  0  0  3  0  0  0  0  0  0
    5.4982   40.2786   47.5406 C   0  0  0  0  0  3  0  0  0  0  0  0
    4.5005   40.0470   46.6207 C   0  0  0  0  0  3  0  0  0  0  0  0
  1 10  1  0
  2  1  1  0
  3  9  2  0
  3  2  1  0
  4  3  1  0
  5  4  1  0
  6  4  1  0
  7  8  1  0
  7  5  1  0
  8  6  1  0
 10 12  1  0
 11 10  2  0
 11 13  1  0
 12 14  1  0
 13 20  1  0
 13 15  1  0
 14 16  1  0
 15 14  2  0
 15 17  1  0
 16 18  2  0
 17 19  2  0
 19 18  1  0
 21 20  1  0
 22 21  2  0
 23 21  1  0
 24 22  1  0
 25 23  2  0
 26 25  1  0
 26 24  2  0
M  RAD  8   2   3   5   3   6   3   7   3   8   3  12   2  13   2  16   2
M  RAD  8  17   2  18   2  19   2  22   2  23   2  24   2  25   2  26   2
M  END
>  <REMARK>  (1) 
 SMILES O=C(CSc1nc(Nc2ccccc2)c2ccccc2n1)N1CCCC1
 SMILES IDX 4 1 3 2 2 3 22 4 23 5 26 6 24 7 25 8 1 9 5 10 6 11 21 12
 SMILES IDX 7 13 20 14 15 15 19 16 16 17 18 18 17 19 8 20 9 22 10 23
 SMILES IDX 14 24 11 25 13 26 12 27
 H PARENT 8 21

>  <TORSDO>  (1) 
F 5

$$$$
