/home/pchatterjee/Documents/git/vs_workflow/DiffDock/diffdock_run/pdbqt_scrubbed/Z24682342.pdbqt
     RDKit          3D

 26 29  0  0  1  0  0  0  0  0999 V2000
    4.1422   45.4667   53.3273 S   0  0  0  0  0  0  0  0  0  0  0  0
    4.8021   46.1161   54.8885 C   0  0  0  0  0  2  0  0  0  0  0  0
    4.9123   47.6002   54.6831 C   0  0  0  0  0  0  0  0  0  0  0  0
    6.1724   48.2572   54.7608 N   0  0  0  0  0  0  0  0  0  0  0  0
    6.3354   49.6807   54.8775 C   0  0  0  0  0  2  0  0  0  0  0  0
    7.4818   47.6164   54.7359 C   0  0  0  0  0  2  0  0  0  0  0  0
    7.5795   49.8287   55.6908 C   0  0  0  0  0  2  0  0  0  0  0  0
    8.3431   48.5280   55.5673 C   0  0  0  0  0  2  0  0  0  0  0  0
    3.9087   48.3182   54.4367 O   0  0  0  0  0  0  0  0  0  0  0  0
    5.5464   45.1866   52.2448 C   0  0  0  0  0  0  0  0  0  0  0  0
    5.4496   44.5463   51.1317 N   0  0  0  0  0  0  0  0  0  0  0  0
    6.7990   45.7208   52.6913 N   0  0  0  0  0  2  0  0  0  0  0  0
    6.5090   44.2783   50.2130 C   0  0  0  0  0  3  0  0  0  0  0  0
    7.9267   45.5175   51.8610 C   0  0  0  0  0  0  0  0  0  0  0  0
    7.7974   44.8285   50.6734 C   0  0  0  0  0  0  0  0  0  0  0  0
    9.1654   45.9970   52.2145 C   0  0  0  0  0  3  0  0  0  0  0  0
    8.9061   44.6362   49.8708 C   0  0  0  0  0  3  0  0  0  0  0  0
   10.2979   45.8216   51.4326 C   0  0  0  0  0  3  0  0  0  0  0  0
   10.1388   45.1304   50.2534 C   0  0  0  0  0  3  0  0  0  0  0  0
    6.6517   42.8601   49.9451 N   0  0  0  0  0  0  0  0  0  0  0  0
    5.6048   42.1243   49.2996 C   0  0  0  0  0  0  0  0  0  0  0  0
    4.4666   41.7546   49.9627 C   0  0  0  0  0  3  0  0  0  0  0  0
    5.7301   41.7720   47.9801 C   0  0  0  0  0  3  0  0  0  0  0  0
    3.4552   41.0430   49.3371 C   0  0  0  0  0  3  0  0  0  0  0  0
    4.7309   41.0611   47.3366 C   0  0  0  0  0  3  0  0  0  0  0  0
    3.5852   40.6884   48.0026 C   0  0  0  0  0  3  0  0  0  0  0  0
  1 10  1  0
  2  1  1  0
  3  9  2  0
  3  2  1  0
  4  3  1  0
  5  4  1  0
  6  4  1  0
  7  8  1  0
  7  5  1  0
  8  6  1  0
 10 12  1  0
 11 10  2  0
 11 13  1  0
 12 14  1  0
 13 20  1  0
 13 15  1  0
 14 16  1  0
 15 14  2  0
 15 17  1  0
 16 18  2  0
 17 19  2  0
 19 18  1  0
 21 20  1  0
 22 21  2  0
 23 21  1  0
 24 22  1  0
 25 23  2  0
 26 25  1  0
 26 24  2  0
M  RAD  8   2   3   5   3   6   3   7   3   8   3  12   2  13   2  16   2
M  RAD  8  17   2  18   2  19   2  22   2  23   2  24   2  25   2  26   2
M  END
>  <REMARK>  (1) 
 SMILES O=C(CSc1nc(Nc2ccccc2)c2ccccc2n1)N1CCCC1
 SMILES IDX 4 1 3 2 2 3 22 4 23 5 26 6 24 7 25 8 1 9 5 10 6 11 21 12
 SMILES IDX 7 13 20 14 15 15 19 16 16 17 18 18 17 19 8 20 9 22 10 23
 SMILES IDX 14 24 11 25 13 26 12 27
 H PARENT 8 21

>  <TORSDO>  (1) 
F 5

$$$$
