/home/pchatterjee/Documents/git/vs_workflow/DiffDock/diffdock_run/pdbqt_scrubbed/Z166744674.pdbqt
     RDKit          3D

 22 24  0  0  1  0  0  0  0  0999 V2000
    5.0151   45.6388   53.1755 N   0  0  0  0  0  0  0  0  0  0  0  0
    6.3806   45.4659   52.7426 C   0  0  0  0  0  0  0  0  0  0  0  0
    6.6925   45.1558   51.3966 N   0  0  0  0  0  0  0  0  0  0  0  0
    7.3477   45.5840   53.5447 O   0  0  0  0  0  0  0  0  0  0  0  0
    8.0239   44.9362   50.9701 C   0  0  0  0  0  0  0  0  0  0  0  0
    9.0734   45.4924   51.6576 C   0  0  0  0  0  3  0  0  0  0  0  0
    8.3172   44.1692   49.8677 C   0  0  0  0  0  3  0  0  0  0  0  0
   10.3843   45.3144   51.2915 C   0  0  0  0  0  3  0  0  0  0  0  0
    9.5954   43.9923   49.5060 N   0  0  0  0  0  0  0  0  0  0  0  0
   10.6164   44.5349   50.1768 C   0  0  0  0  0  3  0  0  0  0  0  0
    4.7775   46.2142   54.4624 C   0  0  0  0  0  2  0  0  0  0  0  0
    5.6402   47.4051   54.6963 C   0  0  0  0  0  0  0  0  0  0  0  0
    6.8041   47.5985   55.3350 C   0  0  0  0  0  3  0  0  0  0  0  0
    5.2713   49.0802   54.0967 S   0  0  0  0  0  0  0  0  0  0  0  0
    7.4032   48.7368   55.4263 C   0  0  0  0  0  3  0  0  0  0  0  0
    6.8107   49.9000   54.8126 C   0  0  0  0  0  3  0  0  0  0  0  0
    3.9639   45.2159   52.2734 C   0  0  0  0  0  2  0  0  0  0  0  0
    2.5854   45.5692   52.7112 C   0  0  0  0  0  3  0  0  0  0  0  0
    1.4899   44.9797   51.8629 C   0  0  0  0  0  2  0  0  0  0  0  0
    2.3026   45.2989   54.0304 O   0  0  0  0  0  0  0  0  0  0  0  0
    0.4162   44.5726   52.8459 C   0  0  0  0  0  2  0  0  0  0  0  0
    0.9168   45.2101   54.1277 C   0  0  0  0  0  2  0  0  0  0  0  0
  1 11  1  0
  2  3  1  0
  2  1  1  0
  4  2  2  0
  5  7  1  0
  5  3  1  0
  6  5  2  0
  8 10  2  0
  8  6  1  0
  9  7  2  0
 10  9  1  0
 11 12  1  0
 12 13  2  0
 13 15  1  0
 14 12  1  0
 14 16  1  0
 16 15  2  0
 17  1  1  0
 18 17  1  0
 18 20  1  0
 19 21  1  0
 19 18  1  0
 21 22  1  0
 22 20  1  0
M  RAD  8   6   2   7   2   8   2  10   2  11   3  13   2  15   2  16   2
M  RAD  5  17   3  18   2  19   3  21   3  22   3
M  END
>  <REMARK>  (1) 
 SMILES O=C(Nc1cccnc1)N(Cc1cccs1)CC1CCCO1
 SMILES IDX 10 1 2 2 3 3 1 4 4 6 5 7 9 8 6 9 8 10 7 11 11 12 12 13 13 14
 SMILES IDX 16 15 14 16 15 17 17 18 18 19 19 20 22 21 20 22 21 23
 H PARENT 3 5

>  <TORSDO>  (1) 
F 6

$$$$
