/home/pchatterjee/Documents/git/vs_workflow/DiffDock/diffdock_run/pdbqt_scrubbed/Z166744674.pdbqt
     RDKit          3D

 22 24  0  0  1  0  0  0  0  0999 V2000
    4.8936   45.2873   53.5863 N   0  0  0  0  0  0  0  0  0  0  0  0
    6.2605   45.4746   53.1636 C   0  0  0  0  0  0  0  0  0  0  0  0
    6.6429   45.3031   51.8110 N   0  0  0  0  0  0  0  0  0  0  0  0
    7.1661   45.7977   53.9810 O   0  0  0  0  0  0  0  0  0  0  0  0
    8.0019   45.2369   51.4219 C   0  0  0  0  0  0  0  0  0  0  0  0
    8.9339   46.0512   52.0149 C   0  0  0  0  0  3  0  0  0  0  0  0
    8.4385   44.3686   50.4497 C   0  0  0  0  0  3  0  0  0  0  0  0
   10.2647   46.0315   51.6790 C   0  0  0  0  0  3  0  0  0  0  0  0
    9.7367   44.3454   50.1180 N   0  0  0  0  0  0  0  0  0  0  0  0
   10.6431   45.1394   50.6967 C   0  0  0  0  0  3  0  0  0  0  0  0
    3.8918   45.0989   52.5841 C   0  0  0  0  0  2  0  0  0  0  0  0
    3.1947   46.3745   52.2616 C   0  0  0  0  0  0  0  0  0  0  0  0
    2.0838   46.6781   51.5734 C   0  0  0  0  0  3  0  0  0  0  0  0
    3.7561   48.0195   52.7908 S   0  0  0  0  0  0  0  0  0  0  0  0
    1.6371   47.8761   51.4052 C   0  0  0  0  0  3  0  0  0  0  0  0
    2.3546   48.9867   51.9815 C   0  0  0  0  0  3  0  0  0  0  0  0
    4.6205   45.3021   55.0086 C   0  0  0  0  0  2  0  0  0  0  0  0
    3.2333   44.9112   55.3823 C   0  0  0  0  0  3  0  0  0  0  0  0
    2.8643   45.2071   56.8118 C   0  0  0  0  0  2  0  0  0  0  0  0
    2.2440   45.4134   54.5683 O   0  0  0  0  0  0  0  0  0  0  0  0
    1.4358   45.6973   56.7490 C   0  0  0  0  0  2  0  0  0  0  0  0
    1.0673   45.3839   55.3116 C   0  0  0  0  0  2  0  0  0  0  0  0
  1 11  1  0
  2  3  1  0
  2  1  1  0
  4  2  2  0
  5  7  1  0
  5  3  1  0
  6  5  2  0
  8 10  2  0
  8  6  1  0
  9  7  2  0
 10  9  1  0
 11 12  1  0
 12 13  2  0
 13 15  1  0
 14 12  1  0
 14 16  1  0
 16 15  2  0
 17  1  1  0
 18 17  1  0
 18 20  1  0
 19 21  1  0
 19 18  1  0
 21 22  1  0
 22 20  1  0
M  RAD  8   6   2   7   2   8   2  10   2  11   3  13   2  15   2  16   2
M  RAD  5  17   3  18   2  19   3  21   3  22   3
M  END
>  <REMARK>  (1) 
 SMILES O=C(Nc1cccnc1)N(Cc1cccs1)CC1CCCO1
 SMILES IDX 10 1 2 2 3 3 1 4 4 6 5 7 9 8 6 9 8 10 7 11 11 12 12 13 13 14
 SMILES IDX 16 15 14 16 15 17 17 18 18 19 19 20 22 21 20 22 21 23
 H PARENT 3 5

>  <TORSDO>  (1) 
F 6

$$$$
