/home/pchatterjee/Documents/git/vs_workflow/DiffDock/diffdock_run/pdbqt_scrubbed/Z166744674.pdbqt
     RDKit          3D

 22 24  0  0  1  0  0  0  0  0999 V2000
    4.7726   43.3589   52.6613 N   0  0  0  0  0  0  0  0  0  0  0  0
    5.8505   44.1630   52.1383 C   0  0  0  0  0  0  0  0  0  0  0  0
    6.7250   43.6642   51.1425 N   0  0  0  0  0  0  0  0  0  0  0  0
    6.0553   45.3393   52.5471 O   0  0  0  0  0  0  0  0  0  0  0  0
    7.9638   44.2861   50.8570 C   0  0  0  0  0  0  0  0  0  0  0  0
    8.4097   45.3304   51.6275 C   0  0  0  0  0  3  0  0  0  0  0  0
    8.7594   43.8770   49.8134 C   0  0  0  0  0  3  0  0  0  0  0  0
    9.6016   45.9718   51.3988 C   0  0  0  0  0  3  0  0  0  0  0  0
    9.9240   44.4997   49.5856 N   0  0  0  0  0  0  0  0  0  0  0  0
   10.3567   45.5169   50.3373 C   0  0  0  0  0  3  0  0  0  0  0  0
    4.6787   41.9944   52.2455 C   0  0  0  0  0  2  0  0  0  0  0  0
    4.3577   41.8858   50.7955 C   0  0  0  0  0  0  0  0  0  0  0  0
    3.2383   42.0571   50.0762 C   0  0  0  0  0  3  0  0  0  0  0  0
    5.5559   41.4411   49.5039 S   0  0  0  0  0  0  0  0  0  0  0  0
    3.1664   41.9117   48.7968 C   0  0  0  0  0  3  0  0  0  0  0  0
    4.3491   41.5409   48.0589 C   0  0  0  0  0  3  0  0  0  0  0  0
    3.8474   43.9886   53.5807 C   0  0  0  0  0  2  0  0  0  0  0  0
    2.8187   44.8521   52.9380 C   0  0  0  0  0  3  0  0  0  0  0  0
    2.0949   44.2091   51.7848 C   0  0  0  0  0  2  0  0  0  0  0  0
    1.8812   45.3822   53.7945 O   0  0  0  0  0  0  0  0  0  0  0  0
    0.6580   44.6539   51.9337 C   0  0  0  0  0  2  0  0  0  0  0  0
    0.7748   45.7100   53.0158 C   0  0  0  0  0  2  0  0  0  0  0  0
  1 11  1  0
  2  3  1  0
  2  1  1  0
  4  2  2  0
  5  7  1  0
  5  3  1  0
  6  5  2  0
  8 10  2  0
  8  6  1  0
  9  7  2  0
 10  9  1  0
 11 12  1  0
 12 13  2  0
 13 15  1  0
 14 12  1  0
 14 16  1  0
 16 15  2  0
 17  1  1  0
 18 17  1  0
 18 20  1  0
 19 21  1  0
 19 18  1  0
 21 22  1  0
 22 20  1  0
M  RAD  8   6   2   7   2   8   2  10   2  11   3  13   2  15   2  16   2
M  RAD  5  17   3  18   2  19   3  21   3  22   3
M  END
>  <REMARK>  (1) 
 SMILES O=C(Nc1cccnc1)N(Cc1cccs1)CC1CCCO1
 SMILES IDX 10 1 2 2 3 3 1 4 4 6 5 7 9 8 6 9 8 10 7 11 11 12 12 13 13 14
 SMILES IDX 16 15 14 16 15 17 17 18 18 19 19 20 22 21 20 22 21 23
 H PARENT 3 5

>  <TORSDO>  (1) 
F 6

$$$$
