/home/pchatterjee/Documents/git/vs_workflow/DiffDock/diffdock_run/pdbqt_scrubbed/Z166744674.pdbqt
     RDKit          3D

 22 24  0  0  1  0  0  0  0  0999 V2000
    6.0993   46.5452   53.3946 N   0  0  0  0  0  0  0  0  0  0  0  0
    6.5560   46.0735   52.1098 C   0  0  0  0  0  0  0  0  0  0  0  0
    7.6844   45.2255   51.9954 N   0  0  0  0  0  0  0  0  0  0  0  0
    5.9691   46.3974   51.0406 O   0  0  0  0  0  0  0  0  0  0  0  0
    8.0038   44.5669   50.7843 C   0  0  0  0  0  0  0  0  0  0  0  0
    7.0071   44.1047   49.9620 C   0  0  0  0  0  3  0  0  0  0  0  0
    9.3043   44.3658   50.3870 C   0  0  0  0  0  3  0  0  0  0  0  0
    7.2560   43.4592   48.7764 C   0  0  0  0  0  3  0  0  0  0  0  0
    9.5529   43.7362   49.2304 N   0  0  0  0  0  0  0  0  0  0  0  0
    8.5807   43.2866   48.4307 C   0  0  0  0  0  3  0  0  0  0  0  0
    6.9666   46.3962   54.5212 C   0  0  0  0  0  2  0  0  0  0  0  0
    8.1986   47.2197   54.3752 C   0  0  0  0  0  0  0  0  0  0  0  0
    9.4989   46.9274   54.2216 C   0  0  0  0  0  3  0  0  0  0  0  0
    8.2308   49.0364   54.3705 S   0  0  0  0  0  0  0  0  0  0  0  0
   10.4342   47.8083   54.1106 C   0  0  0  0  0  3  0  0  0  0  0  0
   10.0951   49.2098   54.1500 C   0  0  0  0  0  3  0  0  0  0  0  0
    4.7823   47.1441   53.4629 C   0  0  0  0  0  2  0  0  0  0  0  0
    3.6555   46.2065   53.2020 C   0  0  0  0  0  3  0  0  0  0  0  0
    3.6497   44.9787   54.0737 C   0  0  0  0  0  2  0  0  0  0  0  0
    2.4017   46.7718   53.2442 O   0  0  0  0  0  0  0  0  0  0  0  0
    2.1939   44.7504   54.4104 C   0  0  0  0  0  2  0  0  0  0  0  0
    1.5068   45.7319   53.4806 C   0  0  0  0  0  2  0  0  0  0  0  0
  1 11  1  0
  2  3  1  0
  2  1  1  0
  4  2  2  0
  5  7  1  0
  5  3  1  0
  6  5  2  0
  8 10  2  0
  8  6  1  0
  9  7  2  0
 10  9  1  0
 11 12  1  0
 12 13  2  0
 13 15  1  0
 14 12  1  0
 14 16  1  0
 16 15  2  0
 17  1  1  0
 18 17  1  0
 18 20  1  0
 19 21  1  0
 19 18  1  0
 21 22  1  0
 22 20  1  0
M  RAD  8   6   2   7   2   8   2  10   2  11   3  13   2  15   2  16   2
M  RAD  5  17   3  18   2  19   3  21   3  22   3
M  END
>  <REMARK>  (1) 
 SMILES O=C(Nc1cccnc1)N(Cc1cccs1)CC1CCCO1
 SMILES IDX 10 1 2 2 3 3 1 4 4 6 5 7 9 8 6 9 8 10 7 11 11 12 12 13 13 14
 SMILES IDX 16 15 14 16 15 17 17 18 18 19 19 20 22 21 20 22 21 23
 H PARENT 3 5

>  <TORSDO>  (1) 
F 6

$$$$
