/home/pchatterjee/Documents/git/vs_workflow/DiffDock/diffdock_run/pdbqt_scrubbed/Z166744674.pdbqt
     RDKit          3D

 22 24  0  0  1  0  0  0  0  0999 V2000
    6.6948   46.9930   53.4774 N   0  0  0  0  0  0  0  0  0  0  0  0
    7.3505   45.9691   52.7005 C   0  0  0  0  0  0  0  0  0  0  0  0
    7.7890   46.2168   51.3770 N   0  0  0  0  0  0  0  0  0  0  0  0
    7.5583   44.8159   53.1691 O   0  0  0  0  0  0  0  0  0  0  0  0
    8.0513   45.1643   50.4680 C   0  0  0  0  0  0  0  0  0  0  0  0
    7.0596   44.2796   50.1259 C   0  0  0  0  0  3  0  0  0  0  0  0
    9.2899   44.9868   49.8989 C   0  0  0  0  0  3  0  0  0  0  0  0
    7.2549   43.2404   49.2506 C   0  0  0  0  0  3  0  0  0  0  0  0
    9.4860   43.9738   49.0437 N   0  0  0  0  0  0  0  0  0  0  0  0
    8.5188   43.1130   48.7117 C   0  0  0  0  0  3  0  0  0  0  0  0
    7.2109   48.3249   53.4206 C   0  0  0  0  0  2  0  0  0  0  0  0
    8.3865   48.4942   54.3188 C   0  0  0  0  0  0  0  0  0  0  0  0
    8.6117   49.2125   55.4292 C   0  0  0  0  0  3  0  0  0  0  0  0
    9.9869   47.6644   54.0911 S   0  0  0  0  0  0  0  0  0  0  0  0
    9.7277   49.2222   56.0753 C   0  0  0  0  0  3  0  0  0  0  0  0
   10.8278   48.4191   55.6003 C   0  0  0  0  0  3  0  0  0  0  0  0
    5.5473   46.6047   54.2713 C   0  0  0  0  0  2  0  0  0  0  0  0
    4.3966   46.0752   53.4887 C   0  0  0  0  0  3  0  0  0  0  0  0
    3.4640   45.1887   54.2707 C   0  0  0  0  0  2  0  0  0  0  0  0
    3.6442   47.0258   52.8378 O   0  0  0  0  0  0  0  0  0  0  0  0
    2.0804   45.5656   53.7926 C   0  0  0  0  0  2  0  0  0  0  0  0
    2.3981   46.4513   52.6032 C   0  0  0  0  0  2  0  0  0  0  0  0
  1 11  1  0
  2  3  1  0
  2  1  1  0
  4  2  2  0
  5  7  1  0
  5  3  1  0
  6  5  2  0
  8 10  2  0
  8  6  1  0
  9  7  2  0
 10  9  1  0
 11 12  1  0
 12 13  2  0
 13 15  1  0
 14 12  1  0
 14 16  1  0
 16 15  2  0
 17  1  1  0
 18 17  1  0
 18 20  1  0
 19 21  1  0
 19 18  1  0
 21 22  1  0
 22 20  1  0
M  RAD  8   6   2   7   2   8   2  10   2  11   3  13   2  15   2  16   2
M  RAD  5  17   3  18   2  19   3  21   3  22   3
M  END
>  <REMARK>  (1) 
 SMILES O=C(Nc1cccnc1)N(Cc1cccs1)CC1CCCO1
 SMILES IDX 10 1 2 2 3 3 1 4 4 6 5 7 9 8 6 9 8 10 7 11 11 12 12 13 13 14
 SMILES IDX 16 15 14 16 15 17 17 18 18 19 19 20 22 21 20 22 21 23
 H PARENT 3 5

>  <TORSDO>  (1) 
F 6

$$$$
