/home/pchatterjee/Documents/git/vs_workflow/DiffDock/diffdock_run/pdbqt_scrubbed/Z166744674.pdbqt
     RDKit          3D

 22 24  0  0  1  0  0  0  0  0999 V2000
    4.6031   45.3387   52.5937 N   0  0  0  0  0  0  0  0  0  0  0  0
    6.0068   45.4362   52.2742 C   0  0  0  0  0  0  0  0  0  0  0  0
    6.5146   44.9685   51.0378 N   0  0  0  0  0  0  0  0  0  0  0  0
    6.8345   45.9408   53.0822 O   0  0  0  0  0  0  0  0  0  0  0  0
    7.8978   44.9970   50.7399 C   0  0  0  0  0  0  0  0  0  0  0  0
    8.7447   45.8076   51.4534 C   0  0  0  0  0  3  0  0  0  0  0  0
    8.4423   44.2268   49.7400 C   0  0  0  0  0  3  0  0  0  0  0  0
   10.0938   45.8771   51.2098 C   0  0  0  0  0  3  0  0  0  0  0  0
    9.7588   44.2908   49.4981 N   0  0  0  0  0  0  0  0  0  0  0  0
   10.5822   45.0810   50.1941 C   0  0  0  0  0  3  0  0  0  0  0  0
    4.1367   45.9469   53.8004 C   0  0  0  0  0  2  0  0  0  0  0  0
    4.0733   47.4294   53.6761 C   0  0  0  0  0  0  0  0  0  0  0  0
    4.7618   48.4386   54.2305 C   0  0  0  0  0  3  0  0  0  0  0  0
    2.9043   48.3267   52.6133 S   0  0  0  0  0  0  0  0  0  0  0  0
    4.5475   49.6864   53.9852 C   0  0  0  0  0  3  0  0  0  0  0  0
    3.5061   50.0571   53.0584 C   0  0  0  0  0  3  0  0  0  0  0  0
    3.7491   44.6262   51.6659 C   0  0  0  0  0  2  0  0  0  0  0  0
    2.3430   44.4479   52.1220 C   0  0  0  0  0  3  0  0  0  0  0  0
    1.4419   43.7750   51.1208 C   0  0  0  0  0  2  0  0  0  0  0  0
    2.1965   43.8095   53.3321 O   0  0  0  0  0  0  0  0  0  0  0  0
    0.5689   42.8551   51.9432 C   0  0  0  0  0  2  0  0  0  0  0  0
    0.9021   43.2976   53.3549 C   0  0  0  0  0  2  0  0  0  0  0  0
  1 11  1  0
  2  3  1  0
  2  1  1  0
  4  2  2  0
  5  7  1  0
  5  3  1  0
  6  5  2  0
  8 10  2  0
  8  6  1  0
  9  7  2  0
 10  9  1  0
 11 12  1  0
 12 13  2  0
 13 15  1  0
 14 12  1  0
 14 16  1  0
 16 15  2  0
 17  1  1  0
 18 17  1  0
 18 20  1  0
 19 21  1  0
 19 18  1  0
 21 22  1  0
 22 20  1  0
M  RAD  8   6   2   7   2   8   2  10   2  11   3  13   2  15   2  16   2
M  RAD  5  17   3  18   2  19   3  21   3  22   3
M  END
>  <REMARK>  (1) 
 SMILES O=C(Nc1cccnc1)N(Cc1cccs1)CC1CCCO1
 SMILES IDX 10 1 2 2 3 3 1 4 4 6 5 7 9 8 6 9 8 10 7 11 11 12 12 13 13 14
 SMILES IDX 16 15 14 16 15 17 17 18 18 19 19 20 22 21 20 22 21 23
 H PARENT 3 5

>  <TORSDO>  (1) 
F 6

$$$$
