/home/pchatterjee/Documents/git/vs_workflow/DiffDock/diffdock_run/pdbqt_scrubbed/Z166744674.pdbqt
     RDKit          3D

 22 24  0  0  1  0  0  0  0  0999 V2000
    6.0719   44.2634   50.4729 N   0  0  0  0  0  0  0  0  0  0  0  0
    7.1243   45.0077   51.1214 C   0  0  0  0  0  0  0  0  0  0  0  0
    6.8359   45.9927   52.0969 N   0  0  0  0  0  0  0  0  0  0  0  0
    8.3397   44.8102   50.8450 O   0  0  0  0  0  0  0  0  0  0  0  0
    7.8608   46.6873   52.7825 C   0  0  0  0  0  0  0  0  0  0  0  0
    9.1504   46.6605   52.3140 C   0  0  0  0  0  3  0  0  0  0  0  0
    7.6118   47.4060   53.9275 C   0  0  0  0  0  3  0  0  0  0  0  0
   10.1848   47.3142   52.9360 C   0  0  0  0  0  3  0  0  0  0  0  0
    8.6182   48.0460   54.5388 N   0  0  0  0  0  0  0  0  0  0  0  0
    9.8738   48.0189   54.0809 C   0  0  0  0  0  3  0  0  0  0  0  0
    4.7931   44.8844   50.3227 C   0  0  0  0  0  2  0  0  0  0  0  0
    4.0819   44.9932   51.6264 C   0  0  0  0  0  0  0  0  0  0  0  0
    4.3233   44.5213   52.8589 C   0  0  0  0  0  3  0  0  0  0  0  0
    2.5301   45.9031   51.8824 S   0  0  0  0  0  0  0  0  0  0  0  0
    3.5650   44.7332   53.8802 C   0  0  0  0  0  3  0  0  0  0  0  0
    2.3702   45.5258   53.7227 C   0  0  0  0  0  3  0  0  0  0  0  0
    6.3791   42.9252   50.0119 C   0  0  0  0  0  2  0  0  0  0  0  0
    5.4728   42.4068   48.9504 C   0  0  0  0  0  3  0  0  0  0  0  0
    5.9478   41.1419   48.2859 C   0  0  0  0  0  2  0  0  0  0  0  0
    4.1637   42.2271   49.3346 O   0  0  0  0  0  0  0  0  0  0  0  0
    4.6983   40.3134   48.0932 C   0  0  0  0  0  2  0  0  0  0  0  0
    3.6117   41.3121   48.4424 C   0  0  0  0  0  2  0  0  0  0  0  0
  1 11  1  0
  2  3  1  0
  2  1  1  0
  4  2  2  0
  5  7  1  0
  5  3  1  0
  6  5  2  0
  8 10  2  0
  8  6  1  0
  9  7  2  0
 10  9  1  0
 11 12  1  0
 12 13  2  0
 13 15  1  0
 14 12  1  0
 14 16  1  0
 16 15  2  0
 17  1  1  0
 18 17  1  0
 18 20  1  0
 19 21  1  0
 19 18  1  0
 21 22  1  0
 22 20  1  0
M  RAD  8   6   2   7   2   8   2  10   2  11   3  13   2  15   2  16   2
M  RAD  5  17   3  18   2  19   3  21   3  22   3
M  END
>  <REMARK>  (1) 
 SMILES O=C(Nc1cccnc1)N(Cc1cccs1)CC1CCCO1
 SMILES IDX 10 1 2 2 3 3 1 4 4 6 5 7 9 8 6 9 8 10 7 11 11 12 12 13 13 14
 SMILES IDX 16 15 14 16 15 17 17 18 18 19 19 20 22 21 20 22 21 23
 H PARENT 3 5

>  <TORSDO>  (1) 
F 6

$$$$
