/home/pchatterjee/Documents/git/vs_workflow/DiffDock/diffdock_run/pdbqt_scrubbed/Z166744674.pdbqt
     RDKit          3D

 22 24  0  0  1  0  0  0  0  0999 V2000
    4.2362   45.0773   51.7082 N   0  0  0  0  0  0  0  0  0  0  0  0
    5.6071   45.4249   51.4223 C   0  0  0  0  0  0  0  0  0  0  0  0
    6.3907   44.6554   50.5284 N   0  0  0  0  0  0  0  0  0  0  0  0
    6.1598   46.4258   51.9565 O   0  0  0  0  0  0  0  0  0  0  0  0
    7.8000   44.7740   50.4788 C   0  0  0  0  0  0  0  0  0  0  0  0
    8.4535   45.6399   51.3194 C   0  0  0  0  0  3  0  0  0  0  0  0
    8.5612   44.0391   49.6012 C   0  0  0  0  0  3  0  0  0  0  0  0
    9.8171   45.7972   51.3167 C   0  0  0  0  0  3  0  0  0  0  0  0
    9.8929   44.1889   49.5945 N   0  0  0  0  0  0  0  0  0  0  0  0
   10.5277   45.0329   50.4140 C   0  0  0  0  0  3  0  0  0  0  0  0
    3.3745   46.0882   52.2366 C   0  0  0  0  0  2  0  0  0  0  0  0
    3.6556   46.3485   53.6755 C   0  0  0  0  0  0  0  0  0  0  0  0
    3.6653   45.5789   54.7744 C   0  0  0  0  0  3  0  0  0  0  0  0
    4.1066   47.9692   54.3620 S   0  0  0  0  0  0  0  0  0  0  0  0
    3.9420   46.0064   55.9593 C   0  0  0  0  0  3  0  0  0  0  0  0
    4.2669   47.3986   56.1517 C   0  0  0  0  0  3  0  0  0  0  0  0
    3.8163   43.7173   51.4401 C   0  0  0  0  0  2  0  0  0  0  0  0
    2.3470   43.5373   51.2801 C   0  0  0  0  0  3  0  0  0  0  0  0
    1.7485   42.4720   52.1600 C   0  0  0  0  0  2  0  0  0  0  0  0
    1.5981   44.6832   51.4194 O   0  0  0  0  0  0  0  0  0  0  0  0
    0.4263   43.0451   52.6162 C   0  0  0  0  0  2  0  0  0  0  0  0
    0.3057   44.2748   51.7369 C   0  0  0  0  0  2  0  0  0  0  0  0
  1 11  1  0
  2  3  1  0
  2  1  1  0
  4  2  2  0
  5  7  1  0
  5  3  1  0
  6  5  2  0
  8 10  2  0
  8  6  1  0
  9  7  2  0
 10  9  1  0
 11 12  1  0
 12 13  2  0
 13 15  1  0
 14 12  1  0
 14 16  1  0
 16 15  2  0
 17  1  1  0
 18 17  1  0
 18 20  1  0
 19 21  1  0
 19 18  1  0
 21 22  1  0
 22 20  1  0
M  RAD  8   6   2   7   2   8   2  10   2  11   3  13   2  15   2  16   2
M  RAD  5  17   3  18   2  19   3  21   3  22   3
M  END
>  <REMARK>  (1) 
 SMILES O=C(Nc1cccnc1)N(Cc1cccs1)CC1CCCO1
 SMILES IDX 10 1 2 2 3 3 1 4 4 6 5 7 9 8 6 9 8 10 7 11 11 12 12 13 13 14
 SMILES IDX 16 15 14 16 15 17 17 18 18 19 19 20 22 21 20 22 21 23
 H PARENT 3 5

>  <TORSDO>  (1) 
F 6

$$$$
