/home/pchatterjee/Documents/git/vs_workflow/DiffDock/diffdock_run/pdbqt_scrubbed/Z166744674.pdbqt
     RDKit          3D

 22 24  0  0  1  0  0  0  0  0999 V2000
    4.1515   44.3615   51.8337 N   0  0  0  0  0  0  0  0  0  0  0  0
    5.5929   44.4189   51.8013 C   0  0  0  0  0  0  0  0  0  0  0  0
    6.2981   44.5285   50.5782 N   0  0  0  0  0  0  0  0  0  0  0  0
    6.2795   44.3738   52.8592 O   0  0  0  0  0  0  0  0  0  0  0  0
    7.7029   44.6947   50.5385 C   0  0  0  0  0  0  0  0  0  0  0  0
    8.3388   45.4548   51.4878 C   0  0  0  0  0  3  0  0  0  0  0  0
    8.4769   44.1115   49.5637 C   0  0  0  0  0  3  0  0  0  0  0  0
    9.6973   45.6515   51.5003 C   0  0  0  0  0  3  0  0  0  0  0  0
    9.8036   44.3003   49.5712 N   0  0  0  0  0  0  0  0  0  0  0  0
   10.4213   45.0411   50.4967 C   0  0  0  0  0  3  0  0  0  0  0  0
    3.4644   43.8734   50.6790 C   0  0  0  0  0  2  0  0  0  0  0  0
    4.1247   42.6604   50.1222 C   0  0  0  0  0  0  0  0  0  0  0  0
    4.2895   41.4054   50.5667 C   0  0  0  0  0  3  0  0  0  0  0  0
    4.9644   42.5898   48.5124 S   0  0  0  0  0  0  0  0  0  0  0  0
    4.9079   40.4789   49.9168 C   0  0  0  0  0  3  0  0  0  0  0  0
    5.4721   40.7775   48.6232 C   0  0  0  0  0  3  0  0  0  0  0  0
    3.4869   44.8048   53.0418 C   0  0  0  0  0  2  0  0  0  0  0  0
    3.6730   46.2464   53.3640 C   0  0  0  0  0  3  0  0  0  0  0  0
    3.2770   47.1899   52.2593 C   0  0  0  0  0  2  0  0  0  0  0  0
    3.0726   46.6684   54.5280 O   0  0  0  0  0  0  0  0  0  0  0  0
    2.6014   48.3456   52.9614 C   0  0  0  0  0  2  0  0  0  0  0  0
    2.9156   48.0470   54.4147 C   0  0  0  0  0  2  0  0  0  0  0  0
  1 11  1  0
  2  3  1  0
  2  1  1  0
  4  2  2  0
  5  7  1  0
  5  3  1  0
  6  5  2  0
  8 10  2  0
  8  6  1  0
  9  7  2  0
 10  9  1  0
 11 12  1  0
 12 13  2  0
 13 15  1  0
 14 12  1  0
 14 16  1  0
 16 15  2  0
 17  1  1  0
 18 17  1  0
 18 20  1  0
 19 21  1  0
 19 18  1  0
 21 22  1  0
 22 20  1  0
M  RAD  8   6   2   7   2   8   2  10   2  11   3  13   2  15   2  16   2
M  RAD  5  17   3  18   2  19   3  21   3  22   3
M  END
>  <REMARK>  (1) 
 SMILES O=C(Nc1cccnc1)N(Cc1cccs1)CC1CCCO1
 SMILES IDX 10 1 2 2 3 3 1 4 4 6 5 7 9 8 6 9 8 10 7 11 11 12 12 13 13 14
 SMILES IDX 16 15 14 16 15 17 17 18 18 19 19 20 22 21 20 22 21 23
 H PARENT 3 5

>  <TORSDO>  (1) 
F 6

$$$$
