/home/pchatterjee/Documents/git/vs_workflow/DiffDock/diffdock_run/pdbqt_scrubbed/Z166744674.pdbqt
     RDKit          3D

 22 24  0  0  1  0  0  0  0  0999 V2000
    4.4890   43.3706   51.6738 N   0  0  0  0  0  0  0  0  0  0  0  0
    5.7812   43.6343   51.0885 C   0  0  0  0  0  0  0  0  0  0  0  0
    6.5454   44.7638   51.4697 N   0  0  0  0  0  0  0  0  0  0  0  0
    6.2793   42.8704   50.2161 O   0  0  0  0  0  0  0  0  0  0  0  0
    7.8791   44.9451   51.0324 C   0  0  0  0  0  0  0  0  0  0  0  0
    8.6782   45.8948   51.6180 C   0  0  0  0  0  3  0  0  0  0  0  0
    8.4213   44.1903   50.0196 C   0  0  0  0  0  3  0  0  0  0  0  0
    9.9781   46.1158   51.2364 C   0  0  0  0  0  3  0  0  0  0  0  0
    9.6899   44.4020   49.6432 N   0  0  0  0  0  0  0  0  0  0  0  0
   10.4668   45.3275   50.2147 C   0  0  0  0  0  3  0  0  0  0  0  0
    4.0436   42.0147   51.7557 C   0  0  0  0  0  2  0  0  0  0  0  0
    3.2826   41.6150   50.5398 C   0  0  0  0  0  0  0  0  0  0  0  0
    3.0105   42.2196   49.3734 C   0  0  0  0  0  3  0  0  0  0  0  0
    2.4421   40.0183   50.3271 S   0  0  0  0  0  0  0  0  0  0  0  0
    2.3159   41.6902   48.4246 C   0  0  0  0  0  3  0  0  0  0  0  0
    1.7810   40.3615   48.5951 C   0  0  0  0  0  3  0  0  0  0  0  0
    3.7192   44.5034   52.1448 C   0  0  0  0  0  2  0  0  0  0  0  0
    2.5052   44.1502   52.9311 C   0  0  0  0  0  3  0  0  0  0  0  0
    1.4131   45.1861   52.8937 C   0  0  0  0  0  2  0  0  0  0  0  0
    1.9501   42.9268   52.6333 O   0  0  0  0  0  0  0  0  0  0  0  0
    0.1300   44.3922   52.8028 C   0  0  0  0  0  2  0  0  0  0  0  0
    0.6245   42.9809   53.0548 C   0  0  0  0  0  2  0  0  0  0  0  0
  1 11  1  0
  2  3  1  0
  2  1  1  0
  4  2  2  0
  5  7  1  0
  5  3  1  0
  6  5  2  0
  8 10  2  0
  8  6  1  0
  9  7  2  0
 10  9  1  0
 11 12  1  0
 12 13  2  0
 13 15  1  0
 14 12  1  0
 14 16  1  0
 16 15  2  0
 17  1  1  0
 18 17  1  0
 18 20  1  0
 19 21  1  0
 19 18  1  0
 21 22  1  0
 22 20  1  0
M  RAD  8   6   2   7   2   8   2  10   2  11   3  13   2  15   2  16   2
M  RAD  5  17   3  18   2  19   3  21   3  22   3
M  END
>  <REMARK>  (1) 
 SMILES O=C(Nc1cccnc1)N(Cc1cccs1)CC1CCCO1
 SMILES IDX 10 1 2 2 3 3 1 4 4 6 5 7 9 8 6 9 8 10 7 11 11 12 12 13 13 14
 SMILES IDX 16 15 14 16 15 17 17 18 18 19 19 20 22 21 20 22 21 23
 H PARENT 3 5

>  <TORSDO>  (1) 
F 6

$$$$
