/home/pchatterjee/Documents/git/vs_workflow/DiffDock/diffdock_run/pdbqt_scrubbed/Z1762067520.pdbqt
     RDKit          3D

 26 29  0  0  1  0  0  0  0  0999 V2000
    7.8042   47.2127   51.8507 C   0  0  0  0  0  3  0  0  0  0  0  0
    9.1221   47.0571   51.1777 C   0  0  0  0  0  2  0  0  0  0  0  0
    9.9834   45.9573   51.7165 C   0  0  0  0  0  2  0  0  0  0  0  0
    9.1318   44.7399   51.9742 C   0  0  0  0  0  2  0  0  0  0  0  0
    7.8743   44.9107   51.2781 N   0  0  0  0  0  0  0  0  0  0  0  0
    6.9550   45.9966   51.5551 C   0  0  0  0  0  2  0  0  0  0  0  0
    7.9733   47.4167   53.2736 N   0  0  0  0  0  0  0  0  0  0  0  0
    6.8197   47.1501   54.0882 C   0  0  0  0  0  0  0  0  0  0  0  0
    4.5686   46.5956   55.6890 C   0  0  0  0  0  3  0  0  0  0  0  0
    5.5325   45.6348   55.4803 C   0  0  0  0  0  3  0  0  0  0  0  0
    4.7373   47.8265   55.0958 C   0  0  0  0  0  3  0  0  0  0  0  0
    6.6197   45.9284   54.6969 C   0  0  0  0  0  3  0  0  0  0  0  0
    5.8415   48.1087   54.3063 C   0  0  0  0  0  3  0  0  0  0  0  0
    7.4892   43.9849   50.2682 C   0  0  0  0  0  0  0  0  0  0  0  0
    8.3212   43.6146   49.2635 N   0  0  0  0  0  0  0  0  0  0  0  0
    6.2325   43.4731   50.3419 N   0  0  0  0  0  0  0  0  0  0  0  0
    7.9474   42.7456   48.3185 C   0  0  0  0  0  3  0  0  0  0  0  0
    5.8158   42.5861   49.3993 C   0  0  0  0  0  0  0  0  0  0  0  0
    6.6768   42.2192   48.3811 C   0  0  0  0  0  3  0  0  0  0  0  0
    4.4910   42.0255   49.4461 N   0  0  0  0  0  0  0  0  0  0  0  0
    3.6137   42.2067   50.5863 C   0  0  0  0  0  3  0  0  0  0  0  0
    2.2535   42.5549   50.0859 C   0  0  0  0  0  2  0  0  0  0  0  0
    4.2550   43.2370   51.4649 C   0  0  0  0  0  2  0  0  0  0  0  0
    1.6002   43.7248   50.7340 C   0  0  0  0  0  2  0  0  0  0  0  0
    3.3446   43.8759   52.3103 O   0  0  0  0  0  0  0  0  0  0  0  0
    2.5200   44.6505   51.4689 C   0  0  0  0  0  2  0  0  0  0  0  0
  1  7  1  0
  1  2  1  0
  3  2  1  0
  4  3  1  0
  5  4  1  0
  6  5  1  0
  6  1  1  0
  8 13  2  0
  8  7  1  0
  9 11  2  0
 10  9  1  0
 10 12  2  0
 11 13  1  0
 12  8  1  0
 14 15  2  0
 14  5  1  0
 16 14  1  0
 17 15  1  0
 18 19  1  0
 18 16  2  0
 19 17  2  0
 20 18  1  0
 21 20  1  0
 21 22  1  0
 23 21  1  0
 24 22  1  0
 25 23  1  0
 25 26  1  0
 26 24  1  0
M  RAD  8   1   2   2   3   3   3   4   3   6   3   9   2  10   2  11   2
M  RAD  8  12   2  13   2  17   2  19   2  21   2  22   3  23   3  24   3
M  RAD  1  26   3
M  END
>  <REMARK>  (1) 
 SMILES c1ccc(NC2CCCN(c3nccc(NC4CCCOC4)n3)C2)cc1
 SMILES IDX 6 1 7 2 8 3 9 4 10 5 24 6 5 7 4 9 1 10 2 11 26 12 3 13 25 14
 SMILES IDX 11 15 12 16 23 17 13 18 15 19 14 20 16 21 17 23 18 24 22 25
 SMILES IDX 19 26 21 27 20 28
 H PARENT 5 8 16 22

>  <TORSDO>  (1) 
F 5

$$$$
