/home/pchatterjee/Documents/git/vs_workflow/DiffDock/diffdock_run/pdbqt_scrubbed/Z1762067520.pdbqt
     RDKit          3D

 26 29  0  0  1  0  0  0  0  0999 V2000
   13.8072   62.2642   82.6487 C   0  0  0  0  0  3  0  0  0  0  0  0
   13.2456   61.2792   81.6851 C   0  0  0  0  0  2  0  0  0  0  0  0
   12.3925   60.2108   82.2954 C   0  0  0  0  0  2  0  0  0  0  0  0
   11.4936   60.8270   83.3374 C   0  0  0  0  0  2  0  0  0  0  0  0
   11.4850   62.2606   83.1382 N   0  0  0  0  0  0  0  0  0  0  0  0
   12.6758   63.0819   83.2309 C   0  0  0  0  0  2  0  0  0  0  0  0
   14.5734   61.5972   83.6795 N   0  0  0  0  0  0  0  0  0  0  0  0
   14.2796   61.9854   85.0317 C   0  0  0  0  0  0  0  0  0  0  0  0
   13.7016   62.7785   87.6726 C   0  0  0  0  0  3  0  0  0  0  0  0
   13.7099   63.7014   86.6508 C   0  0  0  0  0  3  0  0  0  0  0  0
   13.9824   61.4659   87.3665 C   0  0  0  0  0  3  0  0  0  0  0  0
   13.9941   63.2911   85.3730 C   0  0  0  0  0  3  0  0  0  0  0  0
   14.2681   61.0660   86.0700 C   0  0  0  0  0  3  0  0  0  0  0  0
   10.2654   62.9293   82.8373 C   0  0  0  0  0  0  0  0  0  0  0  0
    9.0585   62.3168   82.9210 N   0  0  0  0  0  0  0  0  0  0  0  0
   10.3492   64.2299   82.4523 N   0  0  0  0  0  0  0  0  0  0  0  0
    7.9192   62.9546   82.6332 C   0  0  0  0  0  3  0  0  0  0  0  0
    9.2122   64.9124   82.1516 C   0  0  0  0  0  0  0  0  0  0  0  0
    7.9895   64.2728   82.2419 C   0  0  0  0  0  3  0  0  0  0  0  0
    9.2645   66.2904   81.7393 N   0  0  0  0  0  0  0  0  0  0  0  0
   10.4441   67.1116   81.9310 C   0  0  0  0  0  3  0  0  0  0  0  0
   10.2306   68.4149   81.2401 C   0  0  0  0  0  2  0  0  0  0  0  0
   11.6116   66.3112   81.4399 C   0  0  0  0  0  2  0  0  0  0  0  0
   11.3419   68.8788   80.3652 C   0  0  0  0  0  2  0  0  0  0  0  0
   12.7088   67.1034   81.0933 O   0  0  0  0  0  0  0  0  0  0  0  0
   12.3150   67.8207   79.9451 C   0  0  0  0  0  2  0  0  0  0  0  0
  1  7  1  0
  1  2  1  0
  3  2  1  0
  4  3  1  0
  5  4  1  0
  6  5  1  0
  6  1  1  0
  8 13  2  0
  8  7  1  0
  9 11  2  0
 10  9  1  0
 10 12  2  0
 11 13  1  0
 12  8  1  0
 14 15  2  0
 14  5  1  0
 16 14  1  0
 17 15  1  0
 18 19  1  0
 18 16  2  0
 19 17  2  0
 20 18  1  0
 21 20  1  0
 21 22  1  0
 23 21  1  0
 24 22  1  0
 25 23  1  0
 25 26  1  0
 26 24  1  0
M  RAD  8   1   2   2   3   3   3   4   3   6   3   9   2  10   2  11   2
M  RAD  8  12   2  13   2  17   2  19   2  21   2  22   3  23   3  24   3
M  RAD  1  26   3
M  END
>  <REMARK>  (1) 
 SMILES c1ccc(NC2CCCN(c3nccc(NC4CCCOC4)n3)C2)cc1
 SMILES IDX 6 1 7 2 8 3 9 4 10 5 24 6 5 7 4 9 1 10 2 11 26 12 3 13 25 14
 SMILES IDX 11 15 12 16 23 17 13 18 15 19 14 20 16 21 17 23 18 24 22 25
 SMILES IDX 19 26 21 27 20 28
 H PARENT 5 8 16 22

>  <TORSDO>  (1) 
F 5

$$$$
