/home/pchatterjee/Documents/git/vs_workflow/DiffDock/diffdock_run/pdbqt_scrubbed/Z1762067520.pdbqt
     RDKit          3D

 26 29  0  0  1  0  0  0  0  0999 V2000
    9.3033   46.7661   51.8236 C   0  0  0  0  0  3  0  0  0  0  0  0
    9.5122   45.5870   52.7069 C   0  0  0  0  0  2  0  0  0  0  0  0
    8.2704   45.0425   53.3419 C   0  0  0  0  0  2  0  0  0  0  0  0
    7.1596   45.0203   52.3225 C   0  0  0  0  0  2  0  0  0  0  0  0
    7.7471   45.1706   51.0083 N   0  0  0  0  0  0  0  0  0  0  0  0
    8.5111   46.3359   50.6091 C   0  0  0  0  0  2  0  0  0  0  0  0
    8.6464   47.8376   52.5413 N   0  0  0  0  0  0  0  0  0  0  0  0
    9.1756   48.1390   53.8430 C   0  0  0  0  0  0  0  0  0  0  0  0
   10.1870   48.7509   56.4004 C   0  0  0  0  0  3  0  0  0  0  0  0
    8.9845   49.2735   55.9802 C   0  0  0  0  0  3  0  0  0  0  0  0
   10.8750   47.9263   55.5390 C   0  0  0  0  0  3  0  0  0  0  0  0
    8.5125   48.9611   54.7305 C   0  0  0  0  0  3  0  0  0  0  0  0
   10.3855   47.6195   54.2786 C   0  0  0  0  0  3  0  0  0  0  0  0
    7.5848   44.1448   50.0353 C   0  0  0  0  0  0  0  0  0  0  0  0
    8.5964   43.7388   49.2288 N   0  0  0  0  0  0  0  0  0  0  0  0
    6.3562   43.5727   49.9355 N   0  0  0  0  0  0  0  0  0  0  0  0
    8.4313   42.7755   48.3162 C   0  0  0  0  0  3  0  0  0  0  0  0
    6.1493   42.5894   49.0195 C   0  0  0  0  0  0  0  0  0  0  0  0
    7.1916   42.1872   48.2044 C   0  0  0  0  0  3  0  0  0  0  0  0
    4.8604   41.9629   48.8860 N   0  0  0  0  0  0  0  0  0  0  0  0
    4.0212   41.6669   50.0309 C   0  0  0  0  0  3  0  0  0  0  0  0
    2.7638   41.0316   49.5441 C   0  0  0  0  0  2  0  0  0  0  0  0
    3.8403   42.9533   50.7774 C   0  0  0  0  0  2  0  0  0  0  0  0
    1.4971   41.5898   50.0912 C   0  0  0  0  0  2  0  0  0  0  0  0
    2.6994   42.9602   51.5836 O   0  0  0  0  0  0  0  0  0  0  0  0
    1.6039   42.9558   50.6960 C   0  0  0  0  0  2  0  0  0  0  0  0
  1  7  1  0
  1  2  1  0
  3  2  1  0
  4  3  1  0
  5  4  1  0
  6  5  1  0
  6  1  1  0
  8 13  2  0
  8  7  1  0
  9 11  2  0
 10  9  1  0
 10 12  2  0
 11 13  1  0
 12  8  1  0
 14 15  2  0
 14  5  1  0
 16 14  1  0
 17 15  1  0
 18 19  1  0
 18 16  2  0
 19 17  2  0
 20 18  1  0
 21 20  1  0
 21 22  1  0
 23 21  1  0
 24 22  1  0
 25 23  1  0
 25 26  1  0
 26 24  1  0
M  RAD  8   1   2   2   3   3   3   4   3   6   3   9   2  10   2  11   2
M  RAD  8  12   2  13   2  17   2  19   2  21   2  22   3  23   3  24   3
M  RAD  1  26   3
M  END
>  <REMARK>  (1) 
 SMILES c1ccc(NC2CCCN(c3nccc(NC4CCCOC4)n3)C2)cc1
 SMILES IDX 6 1 7 2 8 3 9 4 10 5 24 6 5 7 4 9 1 10 2 11 26 12 3 13 25 14
 SMILES IDX 11 15 12 16 23 17 13 18 15 19 14 20 16 21 17 23 18 24 22 25
 SMILES IDX 19 26 21 27 20 28
 H PARENT 5 8 16 22

>  <TORSDO>  (1) 
F 5

$$$$
