/home/pchatterjee/Documents/git/vs_workflow/DiffDock/diffdock_run/pdbqt_scrubbed/Z1762067520.pdbqt
     RDKit          3D

 26 29  0  0  1  0  0  0  0  0999 V2000
    7.7645   47.2477   51.7393 C   0  0  0  0  0  3  0  0  0  0  0  0
    9.0676   47.1545   51.0270 C   0  0  0  0  0  2  0  0  0  0  0  0
    9.9985   46.1015   51.5431 C   0  0  0  0  0  2  0  0  0  0  0  0
    9.2168   44.8446   51.8307 C   0  0  0  0  0  2  0  0  0  0  0  0
    7.9318   44.9492   51.1726 N   0  0  0  0  0  0  0  0  0  0  0  0
    6.9684   45.9894   51.4738 C   0  0  0  0  0  2  0  0  0  0  0  0
    7.9661   47.4668   53.1556 N   0  0  0  0  0  0  0  0  0  0  0  0
    6.8646   47.1153   54.0091 C   0  0  0  0  0  0  0  0  0  0  0  0
    4.6921   46.4567   55.6777 C   0  0  0  0  0  3  0  0  0  0  0  0
    4.7412   47.6770   55.0419 C   0  0  0  0  0  3  0  0  0  0  0  0
    5.7295   45.5747   55.4746 C   0  0  0  0  0  3  0  0  0  0  0  0
    5.8094   47.9748   54.2343 C   0  0  0  0  0  3  0  0  0  0  0  0
    6.8029   45.8898   54.6555 C   0  0  0  0  0  3  0  0  0  0  0  0
    7.5630   44.0005   50.1781 C   0  0  0  0  0  0  0  0  0  0  0  0
    8.4151   43.5985   49.2029 N   0  0  0  0  0  0  0  0  0  0  0  0
    6.3010   43.4997   50.2355 N   0  0  0  0  0  0  0  0  0  0  0  0
    8.0565   42.7081   48.2720 C   0  0  0  0  0  3  0  0  0  0  0  0
    5.8994   42.5918   49.3065 C   0  0  0  0  0  0  0  0  0  0  0  0
    6.7807   42.1926   48.3184 C   0  0  0  0  0  3  0  0  0  0  0  0
    4.5695   42.0421   49.3369 N   0  0  0  0  0  0  0  0  0  0  0  0
    3.6720   42.2483   50.4569 C   0  0  0  0  0  3  0  0  0  0  0  0
    2.2693   42.1325   49.9666 C   0  0  0  0  0  2  0  0  0  0  0  0
    4.0315   43.5719   51.0600 C   0  0  0  0  0  2  0  0  0  0  0  0
    1.3411   43.2188   50.3836 C   0  0  0  0  0  2  0  0  0  0  0  0
    2.9876   44.1372   51.7965 O   0  0  0  0  0  0  0  0  0  0  0  0
    1.9968   44.4805   50.8540 C   0  0  0  0  0  2  0  0  0  0  0  0
  1  7  1  0
  1  2  1  0
  3  2  1  0
  4  3  1  0
  5  4  1  0
  6  5  1  0
  6  1  1  0
  8 13  2  0
  8  7  1  0
  9 11  2  0
 10  9  1  0
 10 12  2  0
 11 13  1  0
 12  8  1  0
 14 15  2  0
 14  5  1  0
 16 14  1  0
 17 15  1  0
 18 19  1  0
 18 16  2  0
 19 17  2  0
 20 18  1  0
 21 20  1  0
 21 22  1  0
 23 21  1  0
 24 22  1  0
 25 23  1  0
 25 26  1  0
 26 24  1  0
M  RAD  8   1   2   2   3   3   3   4   3   6   3   9   2  10   2  11   2
M  RAD  8  12   2  13   2  17   2  19   2  21   2  22   3  23   3  24   3
M  RAD  1  26   3
M  END
>  <REMARK>  (1) 
 SMILES c1ccc(NC2CCCN(c3nccc(NC4CCCOC4)n3)C2)cc1
 SMILES IDX 6 1 7 2 8 3 9 4 10 5 24 6 5 7 4 9 1 10 2 11 26 12 3 13 25 14
 SMILES IDX 11 15 12 16 23 17 13 18 15 19 14 20 16 21 17 23 18 24 22 25
 SMILES IDX 19 26 21 27 20 28
 H PARENT 5 8 16 22

>  <TORSDO>  (1) 
F 5

$$$$
