/home/pchatterjee/Documents/git/vs_workflow/DiffDock/diffdock_run/pdbqt_scrubbed/Z1762067520.pdbqt
     RDKit          3D

 26 29  0  0  1  0  0  0  0  0999 V2000
    7.5591   47.2933   51.7881 C   0  0  0  0  0  3  0  0  0  0  0  0
    8.8989   47.2654   51.1415 C   0  0  0  0  0  2  0  0  0  0  0  0
    9.8102   46.1768   51.6175 C   0  0  0  0  0  2  0  0  0  0  0  0
    9.0252   44.8970   51.7570 C   0  0  0  0  0  2  0  0  0  0  0  0
    7.7763   45.0509   51.0419 N   0  0  0  0  0  0  0  0  0  0  0  0
    6.7892   46.0582   51.3764 C   0  0  0  0  0  2  0  0  0  0  0  0
    7.6832   47.3940   53.2265 N   0  0  0  0  0  0  0  0  0  0  0  0
    6.5088   47.0583   53.9838 C   0  0  0  0  0  0  0  0  0  0  0  0
    4.2211   46.3713   55.4777 C   0  0  0  0  0  3  0  0  0  0  0  0
    5.3346   45.5617   55.4912 C   0  0  0  0  0  3  0  0  0  0  0  0
    4.2594   47.5184   54.7174 C   0  0  0  0  0  3  0  0  0  0  0  0
    6.4367   45.9172   54.7557 C   0  0  0  0  0  3  0  0  0  0  0  0
    5.3805   47.8648   53.9788 C   0  0  0  0  0  3  0  0  0  0  0  0
    7.4691   44.1870   49.9534 C   0  0  0  0  0  0  0  0  0  0  0  0
    8.2927   44.0380   48.8865 N   0  0  0  0  0  0  0  0  0  0  0  0
    6.2973   43.5019   50.0163 N   0  0  0  0  0  0  0  0  0  0  0  0
    7.9923   43.2252   47.8682 C   0  0  0  0  0  3  0  0  0  0  0  0
    5.9570   42.6652   48.9999 C   0  0  0  0  0  0  0  0  0  0  0  0
    6.8080   42.5249   47.9190 C   0  0  0  0  0  3  0  0  0  0  0  0
    4.7229   41.9253   49.0334 N   0  0  0  0  0  0  0  0  0  0  0  0
    3.8472   41.9322   50.1890 C   0  0  0  0  0  3  0  0  0  0  0  0
    2.5553   41.2941   49.8076 C   0  0  0  0  0  2  0  0  0  0  0  0
    3.7470   43.3556   50.6461 C   0  0  0  0  0  2  0  0  0  0  0  0
    1.3234   42.0376   50.1884 C   0  0  0  0  0  2  0  0  0  0  0  0
    2.5973   43.6071   51.3987 O   0  0  0  0  0  0  0  0  0  0  0  0
    1.5181   43.4898   50.4990 C   0  0  0  0  0  2  0  0  0  0  0  0
  1  7  1  0
  1  2  1  0
  3  2  1  0
  4  3  1  0
  5  4  1  0
  6  5  1  0
  6  1  1  0
  8 13  2  0
  8  7  1  0
  9 11  2  0
 10  9  1  0
 10 12  2  0
 11 13  1  0
 12  8  1  0
 14 15  2  0
 14  5  1  0
 16 14  1  0
 17 15  1  0
 18 19  1  0
 18 16  2  0
 19 17  2  0
 20 18  1  0
 21 20  1  0
 21 22  1  0
 23 21  1  0
 24 22  1  0
 25 23  1  0
 25 26  1  0
 26 24  1  0
M  RAD  8   1   2   2   3   3   3   4   3   6   3   9   2  10   2  11   2
M  RAD  8  12   2  13   2  17   2  19   2  21   2  22   3  23   3  24   3
M  RAD  1  26   3
M  END
>  <REMARK>  (1) 
 SMILES c1ccc(NC2CCCN(c3nccc(NC4CCCOC4)n3)C2)cc1
 SMILES IDX 6 1 7 2 8 3 9 4 10 5 24 6 5 7 4 9 1 10 2 11 26 12 3 13 25 14
 SMILES IDX 11 15 12 16 23 17 13 18 15 19 14 20 16 21 17 23 18 24 22 25
 SMILES IDX 19 26 21 27 20 28
 H PARENT 5 8 16 22

>  <TORSDO>  (1) 
F 5

$$$$
