/home/pchatterjee/Documents/git/vs_workflow/DiffDock/diffdock_run/pdbqt_scrubbed/Z1762067520.pdbqt
     RDKit          3D

 26 29  0  0  1  0  0  0  0  0999 V2000
    7.6418   47.2885   51.6162 C   0  0  0  0  0  3  0  0  0  0  0  0
    8.9269   47.2036   50.8710 C   0  0  0  0  0  2  0  0  0  0  0  0
    9.8826   46.1652   51.3712 C   0  0  0  0  0  2  0  0  0  0  0  0
    9.1228   44.9023   51.6891 C   0  0  0  0  0  2  0  0  0  0  0  0
    7.8201   44.9873   51.0639 N   0  0  0  0  0  0  0  0  0  0  0  0
    6.8532   46.0193   51.3816 C   0  0  0  0  0  2  0  0  0  0  0  0
    7.8776   47.5215   53.0250 N   0  0  0  0  0  0  0  0  0  0  0  0
    6.7832   47.2149   53.9046 C   0  0  0  0  0  0  0  0  0  0  0  0
    4.6511   46.5833   55.6346 C   0  0  0  0  0  3  0  0  0  0  0  0
    5.6911   45.6993   55.4542 C   0  0  0  0  0  3  0  0  0  0  0  0
    4.6847   47.7766   54.9487 C   0  0  0  0  0  3  0  0  0  0  0  0
    6.7182   46.0292   54.6066 C   0  0  0  0  0  3  0  0  0  0  0  0
    5.7295   48.0962   54.0951 C   0  0  0  0  0  3  0  0  0  0  0  0
    7.4363   44.0263   50.0869 C   0  0  0  0  0  0  0  0  0  0  0  0
    8.2572   43.6462   49.0768 N   0  0  0  0  0  0  0  0  0  0  0  0
    6.1925   43.4904   50.1984 N   0  0  0  0  0  0  0  0  0  0  0  0
    7.8846   42.7440   48.1629 C   0  0  0  0  0  3  0  0  0  0  0  0
    5.7775   42.5695   49.2883 C   0  0  0  0  0  0  0  0  0  0  0  0
    6.6270   42.1930   48.2640 C   0  0  0  0  0  3  0  0  0  0  0  0
    4.4661   41.9827   49.3757 N   0  0  0  0  0  0  0  0  0  0  0  0
    3.5193   42.3537   50.4093 C   0  0  0  0  0  3  0  0  0  0  0  0
    2.3784   43.0695   49.7710 C   0  0  0  0  0  2  0  0  0  0  0  0
    4.2811   43.1449   51.4284 C   0  0  0  0  0  2  0  0  0  0  0  0
    1.9706   44.3492   50.4126 C   0  0  0  0  0  2  0  0  0  0  0  0
    3.4623   43.9754   52.1975 O   0  0  0  0  0  0  0  0  0  0  0  0
    2.9909   44.9700   51.3163 C   0  0  0  0  0  2  0  0  0  0  0  0
  1  7  1  0
  1  2  1  0
  3  2  1  0
  4  3  1  0
  5  4  1  0
  6  5  1  0
  6  1  1  0
  8 13  2  0
  8  7  1  0
  9 11  2  0
 10  9  1  0
 10 12  2  0
 11 13  1  0
 12  8  1  0
 14 15  2  0
 14  5  1  0
 16 14  1  0
 17 15  1  0
 18 19  1  0
 18 16  2  0
 19 17  2  0
 20 18  1  0
 21 20  1  0
 21 22  1  0
 23 21  1  0
 24 22  1  0
 25 23  1  0
 25 26  1  0
 26 24  1  0
M  RAD  8   1   2   2   3   3   3   4   3   6   3   9   2  10   2  11   2
M  RAD  8  12   2  13   2  17   2  19   2  21   2  22   3  23   3  24   3
M  RAD  1  26   3
M  END
>  <REMARK>  (1) 
 SMILES c1ccc(NC2CCCN(c3nccc(NC4CCCOC4)n3)C2)cc1
 SMILES IDX 6 1 7 2 8 3 9 4 10 5 24 6 5 7 4 9 1 10 2 11 26 12 3 13 25 14
 SMILES IDX 11 15 12 16 23 17 13 18 15 19 14 20 16 21 17 23 18 24 22 25
 SMILES IDX 19 26 21 27 20 28
 H PARENT 5 8 16 22

>  <TORSDO>  (1) 
F 5

$$$$
