/home/pchatterjee/Documents/git/vs_workflow/DiffDock/diffdock_run/pdbqt_scrubbed/Z1762067520.pdbqt
     RDKit          3D

 26 29  0  0  1  0  0  0  0  0999 V2000
    7.5981   47.2455   51.7765 C   0  0  0  0  0  3  0  0  0  0  0  0
    8.9617   47.2056   51.1823 C   0  0  0  0  0  2  0  0  0  0  0  0
    9.8520   46.1236   51.7100 C   0  0  0  0  0  2  0  0  0  0  0  0
    9.0599   44.8472   51.8397 C   0  0  0  0  0  2  0  0  0  0  0  0
    7.8395   44.9913   51.0748 N   0  0  0  0  0  0  0  0  0  0  0  0
    6.8422   46.0050   51.3552 C   0  0  0  0  0  2  0  0  0  0  0  0
    7.6672   47.3690   53.2169 N   0  0  0  0  0  0  0  0  0  0  0  0
    6.4652   47.0431   53.9340 C   0  0  0  0  0  0  0  0  0  0  0  0
    4.0943   46.4320   55.3279 C   0  0  0  0  0  3  0  0  0  0  0  0
    4.1539   47.5269   54.4952 C   0  0  0  0  0  3  0  0  0  0  0  0
    5.2204   45.6507   55.4576 C   0  0  0  0  0  3  0  0  0  0  0  0
    5.3196   47.8041   53.8270 C   0  0  0  0  0  3  0  0  0  0  0  0
    6.3918   45.9434   54.7760 C   0  0  0  0  0  3  0  0  0  0  0  0
    7.5727   44.1106   49.9892 C   0  0  0  0  0  0  0  0  0  0  0  0
    8.4176   43.9733   48.9376 N   0  0  0  0  0  0  0  0  0  0  0  0
    6.4175   43.3965   50.0387 N   0  0  0  0  0  0  0  0  0  0  0  0
    8.1550   43.1444   47.9218 C   0  0  0  0  0  3  0  0  0  0  0  0
    6.1156   42.5428   49.0244 C   0  0  0  0  0  0  0  0  0  0  0  0
    6.9881   42.4148   47.9591 C   0  0  0  0  0  3  0  0  0  0  0  0
    4.9002   41.7721   49.0440 N   0  0  0  0  0  0  0  0  0  0  0  0
    4.0001   41.7747   50.1808 C   0  0  0  0  0  3  0  0  0  0  0  0
    2.7432   41.0750   49.7907 C   0  0  0  0  0  2  0  0  0  0  0  0
    3.8335   43.2047   50.5961 C   0  0  0  0  0  2  0  0  0  0  0  0
    1.4747   41.7782   50.1254 C   0  0  0  0  0  2  0  0  0  0  0  0
    2.6587   43.4297   51.3177 O   0  0  0  0  0  0  0  0  0  0  0  0
    1.6047   43.2448   50.3996 C   0  0  0  0  0  2  0  0  0  0  0  0
  1  7  1  0
  1  2  1  0
  3  2  1  0
  4  3  1  0
  5  4  1  0
  6  5  1  0
  6  1  1  0
  8 13  2  0
  8  7  1  0
  9 11  2  0
 10  9  1  0
 10 12  2  0
 11 13  1  0
 12  8  1  0
 14 15  2  0
 14  5  1  0
 16 14  1  0
 17 15  1  0
 18 19  1  0
 18 16  2  0
 19 17  2  0
 20 18  1  0
 21 20  1  0
 21 22  1  0
 23 21  1  0
 24 22  1  0
 25 23  1  0
 25 26  1  0
 26 24  1  0
M  RAD  8   1   2   2   3   3   3   4   3   6   3   9   2  10   2  11   2
M  RAD  8  12   2  13   2  17   2  19   2  21   2  22   3  23   3  24   3
M  RAD  1  26   3
M  END
>  <REMARK>  (1) 
 SMILES c1ccc(NC2CCCN(c3nccc(NC4CCCOC4)n3)C2)cc1
 SMILES IDX 6 1 7 2 8 3 9 4 10 5 24 6 5 7 4 9 1 10 2 11 26 12 3 13 25 14
 SMILES IDX 11 15 12 16 23 17 13 18 15 19 14 20 16 21 17 23 18 24 22 25
 SMILES IDX 19 26 21 27 20 28
 H PARENT 5 8 16 22

>  <TORSDO>  (1) 
F 5

$$$$
