/home/pchatterjee/Documents/git/vs_workflow/DiffDock/diffdock_run/pdbqt_scrubbed/Z1762067520.pdbqt
     RDKit          3D

 26 29  0  0  1  0  0  0  0  0999 V2000
   11.0197   67.7153   82.7012 C   0  0  0  0  0  3  0  0  0  0  0  0
    9.5664   67.9918   82.8616 C   0  0  0  0  0  2  0  0  0  0  0  0
    8.7070   67.5513   81.7174 C   0  0  0  0  0  2  0  0  0  0  0  0
    9.1578   66.1896   81.2526 C   0  0  0  0  0  2  0  0  0  0  0  0
    9.9983   65.6146   82.2813 N   0  0  0  0  0  0  0  0  0  0  0  0
   11.2401   66.2191   82.7211 C   0  0  0  0  0  2  0  0  0  0  0  0
   11.5276   68.3168   81.4867 N   0  0  0  0  0  0  0  0  0  0  0  0
   12.9570   68.4311   81.3921 C   0  0  0  0  0  0  0  0  0  0  0  0
   15.7625   68.6330   81.2317 C   0  0  0  0  0  3  0  0  0  0  0  0
   15.1736   67.7504   82.1091 C   0  0  0  0  0  3  0  0  0  0  0  0
   14.9445   69.4083   80.4410 C   0  0  0  0  0  3  0  0  0  0  0  0
   13.8055   67.6699   82.1691 C   0  0  0  0  0  3  0  0  0  0  0  0
   13.5629   69.3161   80.5128 C   0  0  0  0  0  3  0  0  0  0  0  0
    9.6183   64.3964   82.9113 C   0  0  0  0  0  0  0  0  0  0  0  0
    8.3546   63.9085   82.8517 N   0  0  0  0  0  0  0  0  0  0  0  0
   10.5824   63.7227   83.5920 N   0  0  0  0  0  0  0  0  0  0  0  0
    8.0086   62.7638   83.4499 C   0  0  0  0  0  3  0  0  0  0  0  0
   10.2692   62.5545   84.2133 C   0  0  0  0  0  0  0  0  0  0  0  0
    8.9755   62.0708   84.1430 C   0  0  0  0  0  3  0  0  0  0  0  0
   11.2652   61.8158   84.9441 N   0  0  0  0  0  0  0  0  0  0  0  0
   12.6533   62.2316   84.9971 C   0  0  0  0  0  3  0  0  0  0  0  0
   13.3637   61.3823   85.9949 C   0  0  0  0  0  2  0  0  0  0  0  0
   12.6529   63.7005   85.2923 C   0  0  0  0  0  2  0  0  0  0  0  0
   14.2069   62.1065   86.9849 C   0  0  0  0  0  2  0  0  0  0  0  0
   13.8518   64.1438   85.8561 O   0  0  0  0  0  0  0  0  0  0  0  0
   13.9070   63.5656   87.1408 C   0  0  0  0  0  2  0  0  0  0  0  0
  1  7  1  0
  1  2  1  0
  3  2  1  0
  4  3  1  0
  5  4  1  0
  6  5  1  0
  6  1  1  0
  8 13  2  0
  8  7  1  0
  9 11  2  0
 10  9  1  0
 10 12  2  0
 11 13  1  0
 12  8  1  0
 14 15  2  0
 14  5  1  0
 16 14  1  0
 17 15  1  0
 18 19  1  0
 18 16  2  0
 19 17  2  0
 20 18  1  0
 21 20  1  0
 21 22  1  0
 23 21  1  0
 24 22  1  0
 25 23  1  0
 25 26  1  0
 26 24  1  0
M  RAD  8   1   2   2   3   3   3   4   3   6   3   9   2  10   2  11   2
M  RAD  8  12   2  13   2  17   2  19   2  21   2  22   3  23   3  24   3
M  RAD  1  26   3
M  END
>  <REMARK>  (1) 
 SMILES c1ccc(NC2CCCN(c3nccc(NC4CCCOC4)n3)C2)cc1
 SMILES IDX 6 1 7 2 8 3 9 4 10 5 24 6 5 7 4 9 1 10 2 11 26 12 3 13 25 14
 SMILES IDX 11 15 12 16 23 17 13 18 15 19 14 20 16 21 17 23 18 24 22 25
 SMILES IDX 19 26 21 27 20 28
 H PARENT 5 8 16 22

>  <TORSDO>  (1) 
F 5

$$$$
