/home/pchatterjee/Documents/git/vs_workflow/DiffDock/diffdock_run/pdbqt_scrubbed/Z1762067520.pdbqt
     RDKit          3D

 26 29  0  0  1  0  0  0  0  0999 V2000
    7.8124   47.1840   51.9815 C   0  0  0  0  0  3  0  0  0  0  0  0
    9.1400   47.0447   51.3241 C   0  0  0  0  0  2  0  0  0  0  0  0
    9.9883   45.9236   51.8394 C   0  0  0  0  0  2  0  0  0  0  0  0
    9.1278   44.7024   52.0432 C   0  0  0  0  0  2  0  0  0  0  0  0
    7.8820   44.9019   51.3339 N   0  0  0  0  0  0  0  0  0  0  0  0
    6.9629   45.9822   51.6326 C   0  0  0  0  0  2  0  0  0  0  0  0
    7.9601   47.3398   53.4128 N   0  0  0  0  0  0  0  0  0  0  0  0
    6.7958   47.0423   54.2009 C   0  0  0  0  0  0  0  0  0  0  0  0
    4.5026   46.4908   55.7419 C   0  0  0  0  0  3  0  0  0  0  0  0
    4.6697   47.7240   55.1529 C   0  0  0  0  0  3  0  0  0  0  0  0
    5.4832   45.5424   55.5563 C   0  0  0  0  0  3  0  0  0  0  0  0
    5.7947   47.9689   54.4070 C   0  0  0  0  0  3  0  0  0  0  0  0
    6.6152   45.8045   54.7998 C   0  0  0  0  0  3  0  0  0  0  0  0
    7.5089   44.0119   50.2879 C   0  0  0  0  0  0  0  0  0  0  0  0
    8.3361   43.7129   49.2559 N   0  0  0  0  0  0  0  0  0  0  0  0
    6.2691   43.4597   50.3554 N   0  0  0  0  0  0  0  0  0  0  0  0
    7.9735   42.8770   48.2772 C   0  0  0  0  0  3  0  0  0  0  0  0
    5.8643   42.6045   49.3789 C   0  0  0  0  0  0  0  0  0  0  0  0
    6.7200   42.3104   48.3331 C   0  0  0  0  0  3  0  0  0  0  0  0
    4.5574   42.0028   49.4184 N   0  0  0  0  0  0  0  0  0  0  0  0
    3.6850   42.1215   50.5705 C   0  0  0  0  0  3  0  0  0  0  0  0
    2.2722   42.0199   50.1066 C   0  0  0  0  0  2  0  0  0  0  0  0
    4.0433   43.4064   51.2527 C   0  0  0  0  0  2  0  0  0  0  0  0
    1.3417   43.0633   50.6174 C   0  0  0  0  0  2  0  0  0  0  0  0
    3.0111   43.9070   52.0499 O   0  0  0  0  0  0  0  0  0  0  0  0
    1.9937   44.2993   51.1562 C   0  0  0  0  0  2  0  0  0  0  0  0
  1  7  1  0
  1  2  1  0
  3  2  1  0
  4  3  1  0
  5  4  1  0
  6  5  1  0
  6  1  1  0
  8 13  2  0
  8  7  1  0
  9 11  2  0
 10  9  1  0
 10 12  2  0
 11 13  1  0
 12  8  1  0
 14 15  2  0
 14  5  1  0
 16 14  1  0
 17 15  1  0
 18 19  1  0
 18 16  2  0
 19 17  2  0
 20 18  1  0
 21 20  1  0
 21 22  1  0
 23 21  1  0
 24 22  1  0
 25 23  1  0
 25 26  1  0
 26 24  1  0
M  RAD  8   1   2   2   3   3   3   4   3   6   3   9   2  10   2  11   2
M  RAD  8  12   2  13   2  17   2  19   2  21   2  22   3  23   3  24   3
M  RAD  1  26   3
M  END
>  <REMARK>  (1) 
 SMILES c1ccc(NC2CCCN(c3nccc(NC4CCCOC4)n3)C2)cc1
 SMILES IDX 6 1 7 2 8 3 9 4 10 5 24 6 5 7 4 9 1 10 2 11 26 12 3 13 25 14
 SMILES IDX 11 15 12 16 23 17 13 18 15 19 14 20 16 21 17 23 18 24 22 25
 SMILES IDX 19 26 21 27 20 28
 H PARENT 5 8 16 22

>  <TORSDO>  (1) 
F 5

$$$$
