/home/pchatterjee/Documents/git/vs_workflow/DiffDock/diffdock_run/pdbqt_scrubbed/Z1762067520.pdbqt
     RDKit          3D

 26 29  0  0  1  0  0  0  0  0999 V2000
    7.8307   47.2192   51.8319 C   0  0  0  0  0  3  0  0  0  0  0  0
    9.1888   47.0368   51.2521 C   0  0  0  0  0  2  0  0  0  0  0  0
    9.9693   45.8891   51.8138 C   0  0  0  0  0  2  0  0  0  0  0  0
    9.0595   44.6963   51.9657 C   0  0  0  0  0  2  0  0  0  0  0  0
    7.8638   44.9358   51.1858 N   0  0  0  0  0  0  0  0  0  0  0  0
    6.9644   46.0454   51.4326 C   0  0  0  0  0  2  0  0  0  0  0  0
    7.9003   47.3706   53.2696 N   0  0  0  0  0  0  0  0  0  0  0  0
    6.6689   47.1707   53.9831 C   0  0  0  0  0  0  0  0  0  0  0  0
    4.2451   46.8097   55.3732 C   0  0  0  0  0  3  0  0  0  0  0  0
    4.4791   47.9661   54.6634 C   0  0  0  0  0  3  0  0  0  0  0  0
    5.2247   45.8424   55.3829 C   0  0  0  0  0  3  0  0  0  0  0  0
    5.6670   48.1188   53.9944 C   0  0  0  0  0  3  0  0  0  0  0  0
    6.4207   46.0109   54.7020 C   0  0  0  0  0  3  0  0  0  0  0  0
    7.5234   44.0580   50.1187 C   0  0  0  0  0  0  0  0  0  0  0  0
    8.3848   43.7644   49.1136 N   0  0  0  0  0  0  0  0  0  0  0  0
    6.2790   43.5121   50.1370 N   0  0  0  0  0  0  0  0  0  0  0  0
    8.0528   42.9399   48.1146 C   0  0  0  0  0  3  0  0  0  0  0  0
    5.9046   42.6685   49.1385 C   0  0  0  0  0  0  0  0  0  0  0  0
    6.7952   42.3797   48.1207 C   0  0  0  0  0  3  0  0  0  0  0  0
    4.5940   42.0737   49.1260 N   0  0  0  0  0  0  0  0  0  0  0  0
    3.3930   42.8410   49.3935 C   0  0  0  0  0  3  0  0  0  0  0  0
    3.7016   43.8513   50.4449 C   0  0  0  0  0  2  0  0  0  0  0  0
    2.3215   41.8556   49.7482 C   0  0  0  0  0  2  0  0  0  0  0  0
    2.7359   43.9323   51.5747 C   0  0  0  0  0  2  0  0  0  0  0  0
    1.2855   42.4218   50.4951 O   0  0  0  0  0  0  0  0  0  0  0  0
    1.8473   42.7393   51.7488 C   0  0  0  0  0  2  0  0  0  0  0  0
  1  7  1  0
  1  2  1  0
  3  2  1  0
  4  3  1  0
  5  4  1  0
  6  5  1  0
  6  1  1  0
  8 13  2  0
  8  7  1  0
  9 11  2  0
 10  9  1  0
 10 12  2  0
 11 13  1  0
 12  8  1  0
 14 15  2  0
 14  5  1  0
 16 14  1  0
 17 15  1  0
 18 19  1  0
 18 16  2  0
 19 17  2  0
 20 18  1  0
 21 20  1  0
 21 22  1  0
 23 21  1  0
 24 22  1  0
 25 23  1  0
 25 26  1  0
 26 24  1  0
M  RAD  8   1   2   2   3   3   3   4   3   6   3   9   2  10   2  11   2
M  RAD  8  12   2  13   2  17   2  19   2  21   2  22   3  23   3  24   3
M  RAD  1  26   3
M  END
>  <REMARK>  (1) 
 SMILES c1ccc(NC2CCCN(c3nccc(NC4CCCOC4)n3)C2)cc1
 SMILES IDX 6 1 7 2 8 3 9 4 10 5 24 6 5 7 4 9 1 10 2 11 26 12 3 13 25 14
 SMILES IDX 11 15 12 16 23 17 13 18 15 19 14 20 16 21 17 23 18 24 22 25
 SMILES IDX 19 26 21 27 20 28
 H PARENT 5 8 16 22

>  <TORSDO>  (1) 
F 5

$$$$
