/home/pchatterjee/Documents/git/vs_workflow/DiffDock/diffdock_run/pdbqt_scrubbed/Z16226232.pdbqt
     RDKit          3D

 23 26  0  0  0  0  0  0  0  0999 V2000
    4.9360   43.5922   49.8042 C   0  0  0  0  0  2  0  0  0  0  0  0
    4.9460   42.5359   48.7384 C   0  0  0  0  0  0  0  0  0  0  0  0
    4.1513   41.3670   48.8141 N   0  0  0  0  0  0  0  0  0  0  0  0
    5.7265   42.7753   47.7601 O   0  0  0  0  0  0  0  0  0  0  0  0
    3.7513   40.7714   47.5351 C   0  0  0  0  0  3  0  0  0  0  0  0
    2.6190   41.5702   46.9208 C   0  0  0  0  0  2  0  0  0  0  0  0
    4.9187   40.8958   46.5796 C   0  0  0  0  0  2  0  0  0  0  0  0
    2.1394   40.8049   45.7076 C   0  0  0  0  0  2  0  0  0  0  0  0
    4.5250   40.0881   45.3381 C   0  0  0  0  0  2  0  0  0  0  0  0
    3.2859   40.6606   44.7317 C   0  0  0  0  0  2  0  0  0  0  0  0
    6.2319   43.1067   51.0091 S   0  0  0  0  0  0  0  0  0  0  0  0
    7.7411   43.9680   50.6155 C   0  0  0  0  0  0  0  0  0  0  0  0
    8.5611   43.5806   49.6098 N   0  0  0  0  0  0  0  0  0  0  0  0
    8.2901   45.0512   51.1852 N   0  0  0  0  0  0  0  0  0  0  0  0
    9.5977   44.4014   49.5518 N   0  0  0  0  0  0  0  0  0  0  0  0
    8.1227   45.9491   52.1488 C   0  0  0  0  0  0  0  0  0  0  0  0
    9.4255   45.3107   50.5297 C   0  0  0  0  0  0  0  0  0  0  0  0
    7.1389   46.1219   53.0853 C   0  0  0  0  0  3  0  0  0  0  0  0
    9.2141   46.7971   52.0731 C   0  0  0  0  0  0  0  0  0  0  0  0
   10.0277   46.3926   51.0565 N   0  0  0  0  0  0  0  0  0  0  0  0
    7.2221   47.1762   53.9964 C   0  0  0  0  0  3  0  0  0  0  0  0
    9.3116   47.8433   52.9654 C   0  0  0  0  0  3  0  0  0  0  0  0
    8.3126   48.0139   53.9118 C   0  0  0  0  0  3  0  0  0  0  0  0
  2  1  1  0
  3  2  1  0
  4  2  2  0
  5  6  1  0
  5  3  1  0
  7  5  1  0
  8  6  1  0
  9  7  1  0
  9 10  1  0
 10  8  1  0
 11  1  1  0
 12 11  1  0
 12 13  2  0
 14 17  1  0
 14 12  1  0
 15 13  1  0
 16 14  1  0
 17 15  2  0
 18 16  2  0
 19 16  1  0
 19 20  1  0
 20 17  1  0
 21 18  1  0
 22 19  2  0
 23 21  2  0
 23 22  1  0
M  RAD  8   1   3   5   2   6   3   7   3   8   3   9   3  10   3  18   2
M  RAD  3  21   2  22   2  23   2
M  END
>  <REMARK>  (1) 
 SMILES O=C(CSc1nnc2[nH]c3ccccc3n12)NC1CCCCC1
 SMILES IDX 3 1 2 2 17 3 1 4 18 6 19 7 23 8 20 9 22 10 21 11 4 12 5 13
 SMILES IDX 6 14 16 15 7 16 15 17 8 18 14 19 10 20 9 21 13 22 11 23
 SMILES IDX 12 24
 H PARENT 17 5 9 25

>  <TORSDO>  (1) 
F 4

$$$$
