/home/pchatterjee/Documents/git/vs_workflow/DiffDock/diffdock_run/pdbqt_scrubbed/Z16226232.pdbqt
     RDKit          3D

 23 26  0  0  0  0  0  0  0  0999 V2000
    6.2270   42.8231   48.5982 C   0  0  0  0  0  2  0  0  0  0  0  0
    5.1464   41.8026   48.8053 C   0  0  0  0  0  0  0  0  0  0  0  0
    4.9564   40.7038   47.9335 N   0  0  0  0  0  0  0  0  0  0  0  0
    4.4141   42.0042   49.8284 O   0  0  0  0  0  0  0  0  0  0  0  0
    3.5736   40.2485   47.7566 C   0  0  0  0  0  3  0  0  0  0  0  0
    3.5024   39.2214   46.6441 C   0  0  0  0  0  2  0  0  0  0  0  0
    3.1570   39.5272   49.0204 C   0  0  0  0  0  2  0  0  0  0  0  0
    2.0386   38.9329   46.3958 C   0  0  0  0  0  2  0  0  0  0  0  0
    1.6575   39.2519   48.8644 C   0  0  0  0  0  2  0  0  0  0  0  0
    1.4210   38.3922   47.6661 C   0  0  0  0  0  2  0  0  0  0  0  0
    6.3338   43.7712   50.1656 S   0  0  0  0  0  0  0  0  0  0  0  0
    8.0081   44.3392   50.3863 C   0  0  0  0  0  0  0  0  0  0  0  0
    9.0463   43.8449   49.6712 N   0  0  0  0  0  0  0  0  0  0  0  0
    8.5012   45.2685   51.2185 N   0  0  0  0  0  0  0  0  0  0  0  0
   10.1618   44.4502   50.0468 N   0  0  0  0  0  0  0  0  0  0  0  0
    8.1660   46.1381   52.1642 C   0  0  0  0  0  0  0  0  0  0  0  0
    9.8191   45.3312   51.0055 C   0  0  0  0  0  0  0  0  0  0  0  0
    6.9641   46.4570   52.7373 C   0  0  0  0  0  3  0  0  0  0  0  0
    9.3426   46.7601   52.5442 C   0  0  0  0  0  0  0  0  0  0  0  0
   10.3760   46.2508   51.8148 N   0  0  0  0  0  0  0  0  0  0  0  0
    6.9047   47.4334   53.7331 C   0  0  0  0  0  3  0  0  0  0  0  0
    9.3016   47.7266   53.5262 C   0  0  0  0  0  3  0  0  0  0  0  0
    8.0819   48.0459   54.1034 C   0  0  0  0  0  3  0  0  0  0  0  0
  2  1  1  0
  3  2  1  0
  4  2  2  0
  5  6  1  0
  5  3  1  0
  7  5  1  0
  8  6  1  0
  9  7  1  0
  9 10  1  0
 10  8  1  0
 11  1  1  0
 12 11  1  0
 12 13  2  0
 14 17  1  0
 14 12  1  0
 15 13  1  0
 16 14  1  0
 17 15  2  0
 18 16  2  0
 19 16  1  0
 19 20  1  0
 20 17  1  0
 21 18  1  0
 22 19  2  0
 23 21  2  0
 23 22  1  0
M  RAD  8   1   3   5   2   6   3   7   3   8   3   9   3  10   3  18   2
M  RAD  3  21   2  22   2  23   2
M  END
>  <REMARK>  (1) 
 SMILES O=C(CSc1nnc2[nH]c3ccccc3n12)NC1CCCCC1
 SMILES IDX 3 1 2 2 17 3 1 4 18 6 19 7 23 8 20 9 22 10 21 11 4 12 5 13
 SMILES IDX 6 14 16 15 7 16 15 17 8 18 14 19 10 20 9 21 13 22 11 23
 SMILES IDX 12 24
 H PARENT 17 5 9 25

>  <TORSDO>  (1) 
F 4

$$$$
