/home/pchatterjee/Documents/git/vs_workflow/DiffDock/diffdock_run/pdbqt_scrubbed/Z16226232.pdbqt
     RDKit          3D

 23 26  0  0  0  0  0  0  0  0999 V2000
    5.4957   42.6954   50.8059 C   0  0  0  0  0  2  0  0  0  0  0  0
    4.7763   41.8870   49.7662 C   0  0  0  0  0  0  0  0  0  0  0  0
    5.3660   40.7732   49.1219 N   0  0  0  0  0  0  0  0  0  0  0  0
    3.5926   42.2832   49.5100 O   0  0  0  0  0  0  0  0  0  0  0  0
    4.4748   39.9604   48.2877 C   0  0  0  0  0  3  0  0  0  0  0  0
    3.0507   40.0606   48.7970 C   0  0  0  0  0  2  0  0  0  0  0  0
    4.4658   40.5592   46.8975 C   0  0  0  0  0  2  0  0  0  0  0  0
    2.2245   39.0666   48.0116 C   0  0  0  0  0  2  0  0  0  0  0  0
    3.6886   39.5677   46.0250 C   0  0  0  0  0  2  0  0  0  0  0  0
    2.2954   39.4195   46.5426 C   0  0  0  0  0  2  0  0  0  0  0  0
    5.9742   44.2647   49.9840 S   0  0  0  0  0  0  0  0  0  0  0  0
    7.7021   44.5749   50.2886 C   0  0  0  0  0  0  0  0  0  0  0  0
    8.6877   43.9361   49.6145 N   0  0  0  0  0  0  0  0  0  0  0  0
    8.2883   45.4142   51.1551 N   0  0  0  0  0  0  0  0  0  0  0  0
    9.8619   44.3655   50.0488 N   0  0  0  0  0  0  0  0  0  0  0  0
    8.0422   46.3174   52.0967 C   0  0  0  0  0  0  0  0  0  0  0  0
    9.6094   45.2810   51.0032 C   0  0  0  0  0  0  0  0  0  0  0  0
    6.8755   46.8082   52.6189 C   0  0  0  0  0  3  0  0  0  0  0  0
    9.2790   46.7542   52.5384 C   0  0  0  0  0  0  0  0  0  0  0  0
   10.2583   46.1015   51.8497 N   0  0  0  0  0  0  0  0  0  0  0  0
    6.9152   47.7755   53.6246 C   0  0  0  0  0  3  0  0  0  0  0  0
    9.3362   47.7091   53.5309 C   0  0  0  0  0  3  0  0  0  0  0  0
    8.1517   48.2028   54.0564 C   0  0  0  0  0  3  0  0  0  0  0  0
  2  1  1  0
  3  2  1  0
  4  2  2  0
  5  6  1  0
  5  3  1  0
  7  5  1  0
  8  6  1  0
  9  7  1  0
  9 10  1  0
 10  8  1  0
 11  1  1  0
 12 11  1  0
 12 13  2  0
 14 17  1  0
 14 12  1  0
 15 13  1  0
 16 14  1  0
 17 15  2  0
 18 16  2  0
 19 16  1  0
 19 20  1  0
 20 17  1  0
 21 18  1  0
 22 19  2  0
 23 21  2  0
 23 22  1  0
M  RAD  8   1   3   5   2   6   3   7   3   8   3   9   3  10   3  18   2
M  RAD  3  21   2  22   2  23   2
M  END
>  <REMARK>  (1) 
 SMILES O=C(CSc1nnc2[nH]c3ccccc3n12)NC1CCCCC1
 SMILES IDX 3 1 2 2 17 3 1 4 18 6 19 7 23 8 20 9 22 10 21 11 4 12 5 13
 SMILES IDX 6 14 16 15 7 16 15 17 8 18 14 19 10 20 9 21 13 22 11 23
 SMILES IDX 12 24
 H PARENT 17 5 9 25

>  <TORSDO>  (1) 
F 4

$$$$
