/home/pchatterjee/Documents/git/vs_workflow/DiffDock/diffdock_run/pdbqt_scrubbed/Z16226232.pdbqt
     RDKit          3D

 23 26  0  0  0  0  0  0  0  0999 V2000
    7.8677   47.4023   52.5256 C   0  0  0  0  0  2  0  0  0  0  0  0
    7.2737   47.3083   53.9004 C   0  0  0  0  0  0  0  0  0  0  0  0
    6.1274   48.0422   54.2890 N   0  0  0  0  0  0  0  0  0  0  0  0
    7.8835   46.5153   54.6897 O   0  0  0  0  0  0  0  0  0  0  0  0
    4.8389   47.3577   54.1408 C   0  0  0  0  0  3  0  0  0  0  0  0
    4.5511   47.1023   52.6747 C   0  0  0  0  0  2  0  0  0  0  0  0
    4.9599   45.9948   54.7879 C   0  0  0  0  0  2  0  0  0  0  0  0
    3.1407   46.5640   52.5836 C   0  0  0  0  0  2  0  0  0  0  0  0
    3.5443   45.4077   54.7839 C   0  0  0  0  0  2  0  0  0  0  0  0
    3.0511   45.2811   53.3798 C   0  0  0  0  0  2  0  0  0  0  0  0
    9.2441   46.1895   52.4857 S   0  0  0  0  0  0  0  0  0  0  0  0
    9.0117   45.0945   51.0995 C   0  0  0  0  0  0  0  0  0  0  0  0
   10.0059   44.7987   50.2289 N   0  0  0  0  0  0  0  0  0  0  0  0
    7.9185   44.4272   50.7010 N   0  0  0  0  0  0  0  0  0  0  0  0
    9.5458   43.9666   49.3082 N   0  0  0  0  0  0  0  0  0  0  0  0
    6.6427   44.2014   50.9911 C   0  0  0  0  0  0  0  0  0  0  0  0
    8.2523   43.7393   49.6048 C   0  0  0  0  0  0  0  0  0  0  0  0
    5.8323   44.6586   51.9956 C   0  0  0  0  0  3  0  0  0  0  0  0
    6.1793   43.3312   50.0196 C   0  0  0  0  0  0  0  0  0  0  0  0
    7.1921   43.0446   49.1530 N   0  0  0  0  0  0  0  0  0  0  0  0
    4.4999   44.2466   52.0574 C   0  0  0  0  0  3  0  0  0  0  0  0
    4.8661   42.9145   50.0660 C   0  0  0  0  0  3  0  0  0  0  0  0
    4.0495   43.3804   51.0854 C   0  0  0  0  0  3  0  0  0  0  0  0
  2  1  1  0
  3  2  1  0
  4  2  2  0
  5  6  1  0
  5  3  1  0
  7  5  1  0
  8  6  1  0
  9  7  1  0
  9 10  1  0
 10  8  1  0
 11  1  1  0
 12 11  1  0
 12 13  2  0
 14 17  1  0
 14 12  1  0
 15 13  1  0
 16 14  1  0
 17 15  2  0
 18 16  2  0
 19 16  1  0
 19 20  1  0
 20 17  1  0
 21 18  1  0
 22 19  2  0
 23 21  2  0
 23 22  1  0
M  RAD  8   1   3   5   2   6   3   7   3   8   3   9   3  10   3  18   2
M  RAD  3  21   2  22   2  23   2
M  END
>  <REMARK>  (1) 
 SMILES O=C(CSc1nnc2[nH]c3ccccc3n12)NC1CCCCC1
 SMILES IDX 3 1 2 2 17 3 1 4 18 6 19 7 23 8 20 9 22 10 21 11 4 12 5 13
 SMILES IDX 6 14 16 15 7 16 15 17 8 18 14 19 10 20 9 21 13 22 11 23
 SMILES IDX 12 24
 H PARENT 17 5 9 25

>  <TORSDO>  (1) 
F 4

$$$$
