/home/pchatterjee/Documents/git/vs_workflow/DiffDock/diffdock_run/pdbqt_scrubbed/Z16226232.pdbqt
     RDKit          3D

 23 26  0  0  0  0  0  0  0  0999 V2000
    7.4879   47.5463   52.1928 C   0  0  0  0  0  2  0  0  0  0  0  0
    7.0222   47.7728   53.6012 C   0  0  0  0  0  0  0  0  0  0  0  0
    6.4895   46.7369   54.4054 N   0  0  0  0  0  0  0  0  0  0  0  0
    7.1448   48.9717   54.0153 O   0  0  0  0  0  0  0  0  0  0  0  0
    5.0603   46.4549   54.2359 C   0  0  0  0  0  3  0  0  0  0  0  0
    4.4593   47.4062   53.2204 C   0  0  0  0  0  2  0  0  0  0  0  0
    4.9277   45.0690   53.6419 C   0  0  0  0  0  2  0  0  0  0  0  0
    2.9636   47.1819   53.2290 C   0  0  0  0  0  2  0  0  0  0  0  0
    3.4297   44.7473   53.6727 C   0  0  0  0  0  2  0  0  0  0  0  0
    2.6791   45.7449   52.8526 C   0  0  0  0  0  2  0  0  0  0  0  0
    8.9461   46.4392   52.3145 S   0  0  0  0  0  0  0  0  0  0  0  0
    8.8934   45.2623   50.9778 C   0  0  0  0  0  0  0  0  0  0  0  0
    9.9694   44.9916   50.2015 N   0  0  0  0  0  0  0  0  0  0  0  0
    7.8798   44.5026   50.5367 N   0  0  0  0  0  0  0  0  0  0  0  0
    9.6370   44.0846   49.2967 N   0  0  0  0  0  0  0  0  0  0  0  0
    6.6024   44.2051   50.7430 C   0  0  0  0  0  0  0  0  0  0  0  0
    8.3416   43.7847   49.5083 C   0  0  0  0  0  0  0  0  0  0  0  0
    5.6884   44.6560   51.6574 C   0  0  0  0  0  3  0  0  0  0  0  0
    6.2730   43.2574   49.7896 C   0  0  0  0  0  0  0  0  0  0  0  0
    7.3667   42.9973   49.0180 N   0  0  0  0  0  0  0  0  0  0  0  0
    4.3845   44.1575   51.6427 C   0  0  0  0  0  3  0  0  0  0  0  0
    4.9898   42.7548   49.7611 C   0  0  0  0  0  3  0  0  0  0  0  0
    4.0679   43.2147   50.6894 C   0  0  0  0  0  3  0  0  0  0  0  0
  2  1  1  0
  3  2  1  0
  4  2  2  0
  5  6  1  0
  5  3  1  0
  7  5  1  0
  8  6  1  0
  9  7  1  0
  9 10  1  0
 10  8  1  0
 11  1  1  0
 12 11  1  0
 12 13  2  0
 14 17  1  0
 14 12  1  0
 15 13  1  0
 16 14  1  0
 17 15  2  0
 18 16  2  0
 19 16  1  0
 19 20  1  0
 20 17  1  0
 21 18  1  0
 22 19  2  0
 23 21  2  0
 23 22  1  0
M  RAD  8   1   3   5   2   6   3   7   3   8   3   9   3  10   3  18   2
M  RAD  3  21   2  22   2  23   2
M  END
>  <REMARK>  (1) 
 SMILES O=C(CSc1nnc2[nH]c3ccccc3n12)NC1CCCCC1
 SMILES IDX 3 1 2 2 17 3 1 4 18 6 19 7 23 8 20 9 22 10 21 11 4 12 5 13
 SMILES IDX 6 14 16 15 7 16 15 17 8 18 14 19 10 20 9 21 13 22 11 23
 SMILES IDX 12 24
 H PARENT 17 5 9 25

>  <TORSDO>  (1) 
F 4

$$$$
