/home/pchatterjee/Documents/git/vs_workflow/DiffDock/diffdock_run/pdbqt_scrubbed/Z16226232.pdbqt
     RDKit          3D

 23 26  0  0  0  0  0  0  0  0999 V2000
    5.9533   42.0400   50.1840 C   0  0  0  0  0  2  0  0  0  0  0  0
    4.9725   41.6998   49.1005 C   0  0  0  0  0  0  0  0  0  0  0  0
    5.3752   41.2857   47.8082 N   0  0  0  0  0  0  0  0  0  0  0  0
    3.7486   41.8131   49.4366 O   0  0  0  0  0  0  0  0  0  0  0  0
    4.3016   40.8925   46.8898 C   0  0  0  0  0  3  0  0  0  0  0  0
    4.8790   40.1452   45.7042 C   0  0  0  0  0  2  0  0  0  0  0  0
    3.4098   39.9063   47.6130 C   0  0  0  0  0  2  0  0  0  0  0  0
    3.7516   39.9313   44.7190 C   0  0  0  0  0  2  0  0  0  0  0  0
    2.2056   39.6844   46.6914 C   0  0  0  0  0  2  0  0  0  0  0  0
    2.6624   39.1208   45.3858 C   0  0  0  0  0  2  0  0  0  0  0  0
    6.0786   43.8706   50.1957 S   0  0  0  0  0  0  0  0  0  0  0  0
    7.7903   44.3332   50.3711 C   0  0  0  0  0  0  0  0  0  0  0  0
    8.7782   43.7643   49.6403 N   0  0  0  0  0  0  0  0  0  0  0  0
    8.3605   45.2398   51.1786 N   0  0  0  0  0  0  0  0  0  0  0  0
    9.9383   44.3018   49.9824 N   0  0  0  0  0  0  0  0  0  0  0  0
    8.1033   46.1412   52.1189 C   0  0  0  0  0  0  0  0  0  0  0  0
    9.6745   45.2153   50.9356 C   0  0  0  0  0  0  0  0  0  0  0  0
    6.9376   46.5438   52.7138 C   0  0  0  0  0  3  0  0  0  0  0  0
    9.3255   46.6916   52.4637 C   0  0  0  0  0  0  0  0  0  0  0  0
   10.3073   46.1078   51.7191 N   0  0  0  0  0  0  0  0  0  0  0  0
    6.9634   47.5348   53.6965 C   0  0  0  0  0  3  0  0  0  0  0  0
    9.3687   47.6714   53.4323 C   0  0  0  0  0  3  0  0  0  0  0  0
    8.1854   48.0755   54.0317 C   0  0  0  0  0  3  0  0  0  0  0  0
  2  1  1  0
  3  2  1  0
  4  2  2  0
  5  6  1  0
  5  3  1  0
  7  5  1  0
  8  6  1  0
  9  7  1  0
  9 10  1  0
 10  8  1  0
 11  1  1  0
 12 11  1  0
 12 13  2  0
 14 17  1  0
 14 12  1  0
 15 13  1  0
 16 14  1  0
 17 15  2  0
 18 16  2  0
 19 16  1  0
 19 20  1  0
 20 17  1  0
 21 18  1  0
 22 19  2  0
 23 21  2  0
 23 22  1  0
M  RAD  8   1   3   5   2   6   3   7   3   8   3   9   3  10   3  18   2
M  RAD  3  21   2  22   2  23   2
M  END
>  <REMARK>  (1) 
 SMILES O=C(CSc1nnc2[nH]c3ccccc3n12)NC1CCCCC1
 SMILES IDX 3 1 2 2 17 3 1 4 18 6 19 7 23 8 20 9 22 10 21 11 4 12 5 13
 SMILES IDX 6 14 16 15 7 16 15 17 8 18 14 19 10 20 9 21 13 22 11 23
 SMILES IDX 12 24
 H PARENT 17 5 9 25

>  <TORSDO>  (1) 
F 4

$$$$
