/home/pchatterjee/Documents/git/vs_workflow/DiffDock/diffdock_run/pdbqt_scrubbed/Z16226232.pdbqt
     RDKit          3D

 23 26  0  0  0  0  0  0  0  0999 V2000
    6.1513   42.1549   48.9443 C   0  0  0  0  0  2  0  0  0  0  0  0
    4.7100   41.8230   48.6911 C   0  0  0  0  0  0  0  0  0  0  0  0
    4.3031   40.6346   48.0386 N   0  0  0  0  0  0  0  0  0  0  0  0
    3.8819   42.6960   49.1106 O   0  0  0  0  0  0  0  0  0  0  0  0
    3.4408   40.8027   46.8644 C   0  0  0  0  0  3  0  0  0  0  0  0
    2.4550   41.9297   47.1000 C   0  0  0  0  0  2  0  0  0  0  0  0
    4.3121   41.2430   45.7076 C   0  0  0  0  0  2  0  0  0  0  0  0
    1.4890   41.9287   45.9363 C   0  0  0  0  0  2  0  0  0  0  0  0
    3.4068   41.2093   44.4715 C   0  0  0  0  0  2  0  0  0  0  0  0
    2.2616   42.1504   44.6551 C   0  0  0  0  0  2  0  0  0  0  0  0
    6.1491   43.4864   50.2069 S   0  0  0  0  0  0  0  0  0  0  0  0
    7.7755   44.2093   50.2896 C   0  0  0  0  0  0  0  0  0  0  0  0
    8.7933   43.8087   49.4913 N   0  0  0  0  0  0  0  0  0  0  0  0
    8.2461   45.1864   51.0789 N   0  0  0  0  0  0  0  0  0  0  0  0
    9.8744   44.5178   49.7743 N   0  0  0  0  0  0  0  0  0  0  0  0
    7.9098   46.0277   52.0495 C   0  0  0  0  0  0  0  0  0  0  0  0
    9.5306   45.3700   50.7584 C   0  0  0  0  0  0  0  0  0  0  0  0
    6.7344   46.2374   52.7196 C   0  0  0  0  0  3  0  0  0  0  0  0
    9.0504   46.7592   52.3318 C   0  0  0  0  0  0  0  0  0  0  0  0
   10.0636   46.3431   51.5198 N   0  0  0  0  0  0  0  0  0  0  0  0
    6.6658   47.2111   53.7175 C   0  0  0  0  0  3  0  0  0  0  0  0
    8.9999   47.7247   53.3144 C   0  0  0  0  0  3  0  0  0  0  0  0
    7.8070   47.9332   53.9901 C   0  0  0  0  0  3  0  0  0  0  0  0
  2  1  1  0
  3  2  1  0
  4  2  2  0
  5  6  1  0
  5  3  1  0
  7  5  1  0
  8  6  1  0
  9  7  1  0
  9 10  1  0
 10  8  1  0
 11  1  1  0
 12 11  1  0
 12 13  2  0
 14 17  1  0
 14 12  1  0
 15 13  1  0
 16 14  1  0
 17 15  2  0
 18 16  2  0
 19 16  1  0
 19 20  1  0
 20 17  1  0
 21 18  1  0
 22 19  2  0
 23 21  2  0
 23 22  1  0
M  RAD  8   1   3   5   2   6   3   7   3   8   3   9   3  10   3  18   2
M  RAD  3  21   2  22   2  23   2
M  END
>  <REMARK>  (1) 
 SMILES O=C(CSc1nnc2[nH]c3ccccc3n12)NC1CCCCC1
 SMILES IDX 3 1 2 2 17 3 1 4 18 6 19 7 23 8 20 9 22 10 21 11 4 12 5 13
 SMILES IDX 6 14 16 15 7 16 15 17 8 18 14 19 10 20 9 21 13 22 11 23
 SMILES IDX 12 24
 H PARENT 17 5 9 25

>  <TORSDO>  (1) 
F 4

$$$$
