/home/pchatterjee/Documents/git/vs_workflow/DiffDock/diffdock_run/pdbqt_scrubbed/Z16226232.pdbqt
     RDKit          3D

 23 26  0  0  0  0  0  0  0  0999 V2000
    5.7654   42.8104   48.8495 C   0  0  0  0  0  2  0  0  0  0  0  0
    4.8123   41.7090   49.2104 C   0  0  0  0  0  0  0  0  0  0  0  0
    5.1154   40.3408   49.0110 N   0  0  0  0  0  0  0  0  0  0  0  0
    3.7088   42.1037   49.7107 O   0  0  0  0  0  0  0  0  0  0  0  0
    4.1383   39.5666   48.2385 C   0  0  0  0  0  3  0  0  0  0  0  0
    2.7409   39.8130   48.7715 C   0  0  0  0  0  2  0  0  0  0  0  0
    4.1449   40.0940   46.8198 C   0  0  0  0  0  2  0  0  0  0  0  0
    1.8146   38.8552   48.0559 C   0  0  0  0  0  2  0  0  0  0  0  0
    3.2654   39.1302   46.0160 C   0  0  0  0  0  2  0  0  0  0  0  0
    1.8781   39.1273   46.5694 C   0  0  0  0  0  2  0  0  0  0  0  0
    6.0796   43.7360   50.4025 S   0  0  0  0  0  0  0  0  0  0  0  0
    7.7769   44.2773   50.4212 C   0  0  0  0  0  0  0  0  0  0  0  0
    8.7293   43.7191   49.6369 N   0  0  0  0  0  0  0  0  0  0  0  0
    8.3670   45.2414   51.1434 N   0  0  0  0  0  0  0  0  0  0  0  0
    9.8871   44.3193   49.8630 N   0  0  0  0  0  0  0  0  0  0  0  0
    8.1437   46.1713   52.0644 C   0  0  0  0  0  0  0  0  0  0  0  0
    9.6577   45.2616   50.7969 C   0  0  0  0  0  0  0  0  0  0  0  0
    7.0112   46.5500   52.7343 C   0  0  0  0  0  3  0  0  0  0  0  0
    9.3629   46.7871   52.2876 C   0  0  0  0  0  0  0  0  0  0  0  0
   10.3088   46.2132   51.4907 N   0  0  0  0  0  0  0  0  0  0  0  0
    7.0689   47.5832   53.6712 C   0  0  0  0  0  3  0  0  0  0  0  0
    9.4375   47.8091   53.2096 C   0  0  0  0  0  3  0  0  0  0  0  0
    8.2877   48.1889   53.8853 C   0  0  0  0  0  3  0  0  0  0  0  0
  2  1  1  0
  3  2  1  0
  4  2  2  0
  5  6  1  0
  5  3  1  0
  7  5  1  0
  8  6  1  0
  9  7  1  0
  9 10  1  0
 10  8  1  0
 11  1  1  0
 12 11  1  0
 12 13  2  0
 14 17  1  0
 14 12  1  0
 15 13  1  0
 16 14  1  0
 17 15  2  0
 18 16  2  0
 19 16  1  0
 19 20  1  0
 20 17  1  0
 21 18  1  0
 22 19  2  0
 23 21  2  0
 23 22  1  0
M  RAD  8   1   3   5   2   6   3   7   3   8   3   9   3  10   3  18   2
M  RAD  3  21   2  22   2  23   2
M  END
>  <REMARK>  (1) 
 SMILES O=C(CSc1nnc2[nH]c3ccccc3n12)NC1CCCCC1
 SMILES IDX 3 1 2 2 17 3 1 4 18 6 19 7 23 8 20 9 22 10 21 11 4 12 5 13
 SMILES IDX 6 14 16 15 7 16 15 17 8 18 14 19 10 20 9 21 13 22 11 23
 SMILES IDX 12 24
 H PARENT 17 5 9 25

>  <TORSDO>  (1) 
F 4

$$$$
