/home/pchatterjee/Documents/git/vs_workflow/DiffDock/diffdock_run/pdbqt_scrubbed/Z1514091612.pdbqt
     RDKit          3D

 25 28  0  0  1  0  0  0  0  0999 V2000
    5.6918   46.2789   51.7285 C   0  0  0  0  0  2  0  0  0  0  0  0
    4.6141   46.3130   52.7231 C   0  0  0  0  0  0  0  0  0  0  0  0
    4.9694   46.2420   54.0646 C   0  0  0  0  0  0  0  0  0  0  0  0
    3.9941   46.2703   55.0335 C   0  0  0  0  0  3  0  0  0  0  0  0
    2.6479   46.3676   54.7455 C   0  0  0  0  0  3  0  0  0  0  0  0
    3.2637   46.4121   52.3904 C   0  0  0  0  0  3  0  0  0  0  0  0
    2.3278   46.4364   53.3998 C   0  0  0  0  0  3  0  0  0  0  0  0
    6.3249   46.1421   54.4090 O   0  0  0  0  0  0  0  0  0  0  0  0
    6.9613   47.3023   54.9171 C   0  0  0  0  0  1  0  0  0  0  0  0
    5.7295   45.0639   50.9352 N   0  0  0  0  0  0  0  0  0  0  0  0
    4.5806   44.2248   50.7480 C   0  0  0  0  0  2  0  0  0  0  0  0
    4.7862   43.1012   49.7976 C   0  0  0  0  0  3  0  0  0  0  0  0
    5.2802   41.8245   50.3865 C   0  0  0  0  0  2  0  0  0  0  0  0
    3.6871   42.7211   49.0654 O   0  0  0  0  0  0  0  0  0  0  0  0
    3.9917   41.0719   50.6757 C   0  0  0  0  0  2  0  0  0  0  0  0
    2.9691   41.9548   49.9843 C   0  0  0  0  0  2  0  0  0  0  0  0
    7.0098   44.7519   50.3415 C   0  0  0  0  0  0  0  0  0  0  0  0
    7.0825   43.9066   49.2965 N   0  0  0  0  0  0  0  0  0  0  0  0
    8.1666   45.3109   50.8325 C   0  0  0  0  0  0  0  0  0  0  0  0
    8.2455   43.5685   48.6904 C   0  0  0  0  0  3  0  0  0  0  0  0
    8.4447   46.1882   51.8583 C   0  0  0  0  0  3  0  0  0  0  0  0
    9.3459   44.9495   50.1951 C   0  0  0  0  0  0  0  0  0  0  0  0
    9.3769   44.1010   49.1531 N   0  0  0  0  0  0  0  0  0  0  0  0
    9.8176   46.3584   51.8383 C   0  0  0  0  0  3  0  0  0  0  0  0
   10.3380   45.6057   50.8322 N   0  0  0  0  0  0  0  0  0  0  0  0
  1  2  1  0
  2  6  1  0
  2  3  2  0
  3  4  1  0
  4  5  2  0
  6  7  2  0
  7  5  1  0
  8  3  1  0
  9  8  1  0
 10  1  1  0
 11 10  1  0
 12 14  1  0
 12 11  1  0
 13 12  1  0
 15 13  1  0
 15 16  1  0
 16 14  1  0
 17 10  1  0
 18 17  2  0
 19 21  1  0
 19 17  1  0
 20 18  1  0
 22 19  2  0
 23 22  1  0
 23 20  2  0
 24 21  2  0
 25 22  1  0
 25 24  1  0
M  RAD  8   1   3   4   2   5   2   6   2   7   2   9   2  11   3  12   2
M  RAD  6  13   3  15   3  16   3  20   2  21   2  24   2
M  END
>  <REMARK>  (1) 
 SMILES COc1ccccc1CN(CC1CCCO1)c1ncnc2[nH]ccc12
 SMILES IDX 9 1 8 2 3 3 4 4 5 5 7 6 6 7 2 8 1 9 10 10 11 11 12 12 13 13
 SMILES IDX 16 14 14 15 15 16 17 17 18 18 25 19 19 20 24 21 21 22 20 23
 SMILES IDX 23 24 22 25
 H PARENT 22 26

>  <TORSDO>  (1) 
F 6

$$$$
