/home/pchatterjee/Documents/git/vs_workflow/DiffDock/diffdock_run/pdbqt_scrubbed/Z1514091612.pdbqt
     RDKit          3D

 25 28  0  0  1  0  0  0  0  0999 V2000
    6.4539   45.1916   53.3909 C   0  0  0  0  0  2  0  0  0  0  0  0
    6.6440   46.5474   53.9176 C   0  0  0  0  0  0  0  0  0  0  0  0
    5.5413   47.1872   54.4703 C   0  0  0  0  0  0  0  0  0  0  0  0
    5.6706   48.4590   54.9770 C   0  0  0  0  0  3  0  0  0  0  0  0
    6.8615   49.1563   54.9691 C   0  0  0  0  0  3  0  0  0  0  0  0
    7.8660   47.2183   53.8907 C   0  0  0  0  0  3  0  0  0  0  0  0
    7.9404   48.4906   54.4115 C   0  0  0  0  0  3  0  0  0  0  0  0
    4.3082   46.5206   54.5019 O   0  0  0  0  0  0  0  0  0  0  0  0
    3.9120   45.9288   55.7276 C   0  0  0  0  0  1  0  0  0  0  0  0
    6.1519   45.1429   51.9718 N   0  0  0  0  0  0  0  0  0  0  0  0
    4.8591   45.4717   51.4431 C   0  0  0  0  0  2  0  0  0  0  0  0
    4.0094   44.2970   51.1175 C   0  0  0  0  0  3  0  0  0  0  0  0
    3.8498   43.2821   52.1970 C   0  0  0  0  0  2  0  0  0  0  0  0
    2.7191   44.5732   50.7335 O   0  0  0  0  0  0  0  0  0  0  0  0
    2.5837   43.7425   52.9009 C   0  0  0  0  0  2  0  0  0  0  0  0
    2.0931   44.8235   51.9552 C   0  0  0  0  0  2  0  0  0  0  0  0
    7.2470   44.7384   51.1197 C   0  0  0  0  0  0  0  0  0  0  0  0
    7.0581   43.7952   50.1780 N   0  0  0  0  0  0  0  0  0  0  0  0
    8.4913   45.3077   51.2572 C   0  0  0  0  0  0  0  0  0  0  0  0
    8.0362   43.3669   49.3449 C   0  0  0  0  0  3  0  0  0  0  0  0
    9.0159   46.2706   52.0921 C   0  0  0  0  0  3  0  0  0  0  0  0
    9.4776   44.8527   50.3923 C   0  0  0  0  0  0  0  0  0  0  0  0
    9.2490   43.9079   49.4640 N   0  0  0  0  0  0  0  0  0  0  0  0
   10.3432   46.3979   51.7230 C   0  0  0  0  0  3  0  0  0  0  0  0
   10.5985   45.5376   50.7011 N   0  0  0  0  0  0  0  0  0  0  0  0
  1  2  1  0
  2  6  1  0
  2  3  2  0
  3  4  1  0
  4  5  2  0
  6  7  2  0
  7  5  1  0
  8  3  1  0
  9  8  1  0
 10  1  1  0
 11 10  1  0
 12 14  1  0
 12 11  1  0
 13 12  1  0
 15 13  1  0
 15 16  1  0
 16 14  1  0
 17 10  1  0
 18 17  2  0
 19 21  1  0
 19 17  1  0
 20 18  1  0
 22 19  2  0
 23 22  1  0
 23 20  2  0
 24 21  2  0
 25 22  1  0
 25 24  1  0
M  RAD  8   1   3   4   2   5   2   6   2   7   2   9   2  11   3  12   2
M  RAD  6  13   3  15   3  16   3  20   2  21   2  24   2
M  END
>  <REMARK>  (1) 
 SMILES COc1ccccc1CN(CC1CCCO1)c1ncnc2[nH]ccc12
 SMILES IDX 9 1 8 2 3 3 4 4 5 5 7 6 6 7 2 8 1 9 10 10 11 11 12 12 13 13
 SMILES IDX 16 14 14 15 15 16 17 17 18 18 25 19 19 20 24 21 21 22 20 23
 SMILES IDX 23 24 22 25
 H PARENT 22 26

>  <TORSDO>  (1) 
F 6

$$$$
