/home/pchatterjee/Documents/git/vs_workflow/DiffDock/diffdock_run/pdbqt_scrubbed/Z1514091612.pdbqt
     RDKit          3D

 25 28  0  0  1  0  0  0  0  0999 V2000
    4.7897   44.3684   50.9498 C   0  0  0  0  0  2  0  0  0  0  0  0
    3.8362   43.7358   51.8677 C   0  0  0  0  0  0  0  0  0  0  0  0
    2.5614   43.4610   51.3877 C   0  0  0  0  0  0  0  0  0  0  0  0
    1.6330   42.8686   52.2111 C   0  0  0  0  0  3  0  0  0  0  0  0
    1.8986   42.5216   53.5202 C   0  0  0  0  0  3  0  0  0  0  0  0
    4.1444   43.4004   53.1855 C   0  0  0  0  0  3  0  0  0  0  0  0
    3.1776   42.8089   53.9671 C   0  0  0  0  0  3  0  0  0  0  0  0
    2.2421   43.7946   50.0639 O   0  0  0  0  0  0  0  0  0  0  0  0
    2.0080   42.7313   49.1561 C   0  0  0  0  0  1  0  0  0  0  0  0
    6.0159   44.8171   51.5840 N   0  0  0  0  0  0  0  0  0  0  0  0
    6.0317   45.4872   52.8528 C   0  0  0  0  0  2  0  0  0  0  0  0
    5.5249   46.8836   52.8187 C   0  0  0  0  0  3  0  0  0  0  0  0
    4.1982   47.0854   52.1705 C   0  0  0  0  0  2  0  0  0  0  0  0
    5.3937   47.5081   54.0358 O   0  0  0  0  0  0  0  0  0  0  0  0
    3.2368   46.9841   53.3435 C   0  0  0  0  0  2  0  0  0  0  0  0
    4.1989   46.9716   54.5172 C   0  0  0  0  0  2  0  0  0  0  0  0
    7.2294   44.5429   50.8483 C   0  0  0  0  0  0  0  0  0  0  0  0
    7.2237   43.6450   49.8455 N   0  0  0  0  0  0  0  0  0  0  0  0
    8.4015   45.1914   51.1599 C   0  0  0  0  0  0  0  0  0  0  0  0
    8.3209   43.3375   49.1137 C   0  0  0  0  0  3  0  0  0  0  0  0
    8.7504   46.1393   52.0975 C   0  0  0  0  0  3  0  0  0  0  0  0
    9.5126   44.8597   50.3962 C   0  0  0  0  0  0  0  0  0  0  0  0
    9.4661   43.9565   49.4018 N   0  0  0  0  0  0  0  0  0  0  0  0
   10.0970   46.3831   51.8946 C   0  0  0  0  0  3  0  0  0  0  0  0
   10.5338   45.6044   50.8688 N   0  0  0  0  0  0  0  0  0  0  0  0
  1  2  1  0
  2  6  1  0
  2  3  2  0
  3  4  1  0
  4  5  2  0
  6  7  2  0
  7  5  1  0
  8  3  1  0
  9  8  1  0
 10  1  1  0
 11 10  1  0
 12 14  1  0
 12 11  1  0
 13 12  1  0
 15 13  1  0
 15 16  1  0
 16 14  1  0
 17 10  1  0
 18 17  2  0
 19 21  1  0
 19 17  1  0
 20 18  1  0
 22 19  2  0
 23 22  1  0
 23 20  2  0
 24 21  2  0
 25 22  1  0
 25 24  1  0
M  RAD  8   1   3   4   2   5   2   6   2   7   2   9   2  11   3  12   2
M  RAD  6  13   3  15   3  16   3  20   2  21   2  24   2
M  END
>  <REMARK>  (1) 
 SMILES COc1ccccc1CN(CC1CCCO1)c1ncnc2[nH]ccc12
 SMILES IDX 9 1 8 2 3 3 4 4 5 5 7 6 6 7 2 8 1 9 10 10 11 11 12 12 13 13
 SMILES IDX 16 14 14 15 15 16 17 17 18 18 25 19 19 20 24 21 21 22 20 23
 SMILES IDX 23 24 22 25
 H PARENT 22 26

>  <TORSDO>  (1) 
F 6

$$$$
