/home/pchatterjee/Documents/git/vs_workflow/DiffDock/diffdock_run/pdbqt_scrubbed/Z1514091612.pdbqt
     RDKit          3D

 25 28  0  0  1  0  0  0  0  0999 V2000
    4.7348   45.4444   51.1462 C   0  0  0  0  0  2  0  0  0  0  0  0
    3.8119   44.3075   51.2334 C   0  0  0  0  0  0  0  0  0  0  0  0
    2.6829   44.4505   52.0307 C   0  0  0  0  0  0  0  0  0  0  0  0
    1.7886   43.4120   52.1436 C   0  0  0  0  0  3  0  0  0  0  0  0
    1.9498   42.2044   51.4953 C   0  0  0  0  0  3  0  0  0  0  0  0
    4.0112   43.1022   50.5613 C   0  0  0  0  0  3  0  0  0  0  0  0
    3.0847   42.0946   50.7091 C   0  0  0  0  0  3  0  0  0  0  0  0
    2.4738   45.6589   52.7104 O   0  0  0  0  0  0  0  0  0  0  0  0
    1.5508   46.5772   52.1500 C   0  0  0  0  0  1  0  0  0  0  0  0
    5.9987   45.2369   51.8293 N   0  0  0  0  0  0  0  0  0  0  0  0
    6.1313   45.3196   53.2557 C   0  0  0  0  0  2  0  0  0  0  0  0
    5.4226   46.4695   53.8749 C   0  0  0  0  0  3  0  0  0  0  0  0
    5.7993   46.7942   55.2797 C   0  0  0  0  0  2  0  0  0  0  0  0
    5.5345   47.6718   53.2189 O   0  0  0  0  0  0  0  0  0  0  0  0
    6.8942   47.8328   55.0981 C   0  0  0  0  0  2  0  0  0  0  0  0
    6.8027   48.1049   53.6078 C   0  0  0  0  0  2  0  0  0  0  0  0
    7.1237   44.9392   50.9721 C   0  0  0  0  0  0  0  0  0  0  0  0
    7.0112   44.0062   50.0084 N   0  0  0  0  0  0  0  0  0  0  0  0
    8.3194   45.6009   51.1273 C   0  0  0  0  0  0  0  0  0  0  0  0
    8.0214   43.6752   49.1693 C   0  0  0  0  0  3  0  0  0  0  0  0
    8.7654   46.5823   51.9859 C   0  0  0  0  0  3  0  0  0  0  0  0
    9.3399   45.2446   50.2558 C   0  0  0  0  0  0  0  0  0  0  0  0
    9.1879   44.3066   49.3053 N   0  0  0  0  0  0  0  0  0  0  0  0
   10.0792   46.8216   51.6247 C   0  0  0  0  0  3  0  0  0  0  0  0
   10.4031   46.0079   50.5844 N   0  0  0  0  0  0  0  0  0  0  0  0
  1  2  1  0
  2  6  1  0
  2  3  2  0
  3  4  1  0
  4  5  2  0
  6  7  2  0
  7  5  1  0
  8  3  1  0
  9  8  1  0
 10  1  1  0
 11 10  1  0
 12 14  1  0
 12 11  1  0
 13 12  1  0
 15 13  1  0
 15 16  1  0
 16 14  1  0
 17 10  1  0
 18 17  2  0
 19 21  1  0
 19 17  1  0
 20 18  1  0
 22 19  2  0
 23 22  1  0
 23 20  2  0
 24 21  2  0
 25 22  1  0
 25 24  1  0
M  RAD  8   1   3   4   2   5   2   6   2   7   2   9   2  11   3  12   2
M  RAD  6  13   3  15   3  16   3  20   2  21   2  24   2
M  END
>  <REMARK>  (1) 
 SMILES COc1ccccc1CN(CC1CCCO1)c1ncnc2[nH]ccc12
 SMILES IDX 9 1 8 2 3 3 4 4 5 5 7 6 6 7 2 8 1 9 10 10 11 11 12 12 13 13
 SMILES IDX 16 14 14 15 15 16 17 17 18 18 25 19 19 20 24 21 21 22 20 23
 SMILES IDX 23 24 22 25
 H PARENT 22 26

>  <TORSDO>  (1) 
F 6

$$$$
