/home/pchatterjee/Documents/git/vs_workflow/DiffDock/diffdock_run/pdbqt_scrubbed/Z1514091612.pdbqt
     RDKit          3D

 25 28  0  0  1  0  0  0  0  0999 V2000
    6.9859   45.8890   53.4840 C   0  0  0  0  0  2  0  0  0  0  0  0
    6.7996   47.3050   53.8191 C   0  0  0  0  0  0  0  0  0  0  0  0
    7.7067   47.8867   54.6964 C   0  0  0  0  0  0  0  0  0  0  0  0
    7.5730   49.2114   55.0404 C   0  0  0  0  0  3  0  0  0  0  0  0
    6.5652   50.0188   54.5535 C   0  0  0  0  0  3  0  0  0  0  0  0
    5.7665   48.0873   53.3048 C   0  0  0  0  0  3  0  0  0  0  0  0
    5.6785   49.4085   53.6820 C   0  0  0  0  0  3  0  0  0  0  0  0
    8.7491   47.1080   55.2189 O   0  0  0  0  0  0  0  0  0  0  0  0
   10.0375   47.6950   55.2874 C   0  0  0  0  0  1  0  0  0  0  0  0
    6.4273   45.5042   52.2006 N   0  0  0  0  0  0  0  0  0  0  0  0
    5.0278   45.6103   51.9015 C   0  0  0  0  0  2  0  0  0  0  0  0
    4.3056   44.3123   51.8637 C   0  0  0  0  0  3  0  0  0  0  0  0
    4.0091   43.6866   53.1834 C   0  0  0  0  0  2  0  0  0  0  0  0
    3.0903   44.3161   51.2221 O   0  0  0  0  0  0  0  0  0  0  0  0
    2.6189   44.2155   53.4967 C   0  0  0  0  0  2  0  0  0  0  0  0
    2.2494   44.8793   52.1828 C   0  0  0  0  0  2  0  0  0  0  0  0
    7.3801   45.0033   51.2361 C   0  0  0  0  0  0  0  0  0  0  0  0
    6.9805   44.1594   50.2665 N   0  0  0  0  0  0  0  0  0  0  0  0
    8.7018   45.3791   51.2942 C   0  0  0  0  0  0  0  0  0  0  0  0
    7.8160   43.6504   49.3300 C   0  0  0  0  0  3  0  0  0  0  0  0
    9.4269   46.2014   52.1293 C   0  0  0  0  0  3  0  0  0  0  0  0
    9.5388   44.8446   50.3239 C   0  0  0  0  0  0  0  0  0  0  0  0
    9.1010   44.0039   49.3709 N   0  0  0  0  0  0  0  0  0  0  0  0
   10.7251   46.1614   51.6529 C   0  0  0  0  0  3  0  0  0  0  0  0
   10.7694   45.3412   50.5691 N   0  0  0  0  0  0  0  0  0  0  0  0
  1  2  1  0
  2  6  1  0
  2  3  2  0
  3  4  1  0
  4  5  2  0
  6  7  2  0
  7  5  1  0
  8  3  1  0
  9  8  1  0
 10  1  1  0
 11 10  1  0
 12 14  1  0
 12 11  1  0
 13 12  1  0
 15 13  1  0
 15 16  1  0
 16 14  1  0
 17 10  1  0
 18 17  2  0
 19 21  1  0
 19 17  1  0
 20 18  1  0
 22 19  2  0
 23 22  1  0
 23 20  2  0
 24 21  2  0
 25 22  1  0
 25 24  1  0
M  RAD  8   1   3   4   2   5   2   6   2   7   2   9   2  11   3  12   2
M  RAD  6  13   3  15   3  16   3  20   2  21   2  24   2
M  END
>  <REMARK>  (1) 
 SMILES COc1ccccc1CN(CC1CCCO1)c1ncnc2[nH]ccc12
 SMILES IDX 9 1 8 2 3 3 4 4 5 5 7 6 6 7 2 8 1 9 10 10 11 11 12 12 13 13
 SMILES IDX 16 14 14 15 15 16 17 17 18 18 25 19 19 20 24 21 21 22 20 23
 SMILES IDX 23 24 22 25
 H PARENT 22 26

>  <TORSDO>  (1) 
F 6

$$$$
