/home/pchatterjee/Documents/git/vs_workflow/DiffDock/diffdock_run/pdbqt_scrubbed/Z1514091612.pdbqt
     RDKit          3D

 25 28  0  0  1  0  0  0  0  0999 V2000
    4.6916   45.2357   50.8513 C   0  0  0  0  0  2  0  0  0  0  0  0
    3.7344   44.1285   50.9505 C   0  0  0  0  0  0  0  0  0  0  0  0
    2.6354   44.2962   51.7842 C   0  0  0  0  0  0  0  0  0  0  0  0
    1.7110   43.2860   51.9097 C   0  0  0  0  0  3  0  0  0  0  0  0
    1.8122   42.0838   51.2394 C   0  0  0  0  0  3  0  0  0  0  0  0
    3.8731   42.9278   50.2554 C   0  0  0  0  0  3  0  0  0  0  0  0
    2.9185   41.9490   50.4173 C   0  0  0  0  0  3  0  0  0  0  0  0
    2.4874   45.5002   52.4873 O   0  0  0  0  0  0  0  0  0  0  0  0
    1.4289   46.3607   52.1018 C   0  0  0  0  0  1  0  0  0  0  0  0
    5.8948   45.0532   51.6425 N   0  0  0  0  0  0  0  0  0  0  0  0
    5.8982   45.1262   53.0756 C   0  0  0  0  0  2  0  0  0  0  0  0
    6.4960   46.3693   53.6280 C   0  0  0  0  0  3  0  0  0  0  0  0
    5.9732   47.6512   53.0764 C   0  0  0  0  0  2  0  0  0  0  0  0
    6.3977   46.5334   54.9889 O   0  0  0  0  0  0  0  0  0  0  0  0
    4.8586   48.0010   54.0489 C   0  0  0  0  0  2  0  0  0  0  0  0
    5.0812   46.9704   55.1406 C   0  0  0  0  0  2  0  0  0  0  0  0
    7.0986   44.7911   50.8867 C   0  0  0  0  0  0  0  0  0  0  0  0
    7.0839   43.8971   49.8805 N   0  0  0  0  0  0  0  0  0  0  0  0
    8.2705   45.4475   51.1824 C   0  0  0  0  0  0  0  0  0  0  0  0
    8.1718   43.6009   49.1304 C   0  0  0  0  0  3  0  0  0  0  0  0
    8.6268   46.3945   52.1182 C   0  0  0  0  0  3  0  0  0  0  0  0
    9.3718   45.1273   50.4000 C   0  0  0  0  0  0  0  0  0  0  0  0
    9.3167   44.2277   49.4029 N   0  0  0  0  0  0  0  0  0  0  0  0
    9.9681   46.6495   51.8951 C   0  0  0  0  0  3  0  0  0  0  0  0
   10.3947   45.8781   50.8594 N   0  0  0  0  0  0  0  0  0  0  0  0
  1  2  1  0
  2  6  1  0
  2  3  2  0
  3  4  1  0
  4  5  2  0
  6  7  2  0
  7  5  1  0
  8  3  1  0
  9  8  1  0
 10  1  1  0
 11 10  1  0
 12 14  1  0
 12 11  1  0
 13 12  1  0
 15 13  1  0
 15 16  1  0
 16 14  1  0
 17 10  1  0
 18 17  2  0
 19 21  1  0
 19 17  1  0
 20 18  1  0
 22 19  2  0
 23 22  1  0
 23 20  2  0
 24 21  2  0
 25 22  1  0
 25 24  1  0
M  RAD  8   1   3   4   2   5   2   6   2   7   2   9   2  11   3  12   2
M  RAD  6  13   3  15   3  16   3  20   2  21   2  24   2
M  END
>  <REMARK>  (1) 
 SMILES COc1ccccc1CN(CC1CCCO1)c1ncnc2[nH]ccc12
 SMILES IDX 9 1 8 2 3 3 4 4 5 5 7 6 6 7 2 8 1 9 10 10 11 11 12 12 13 13
 SMILES IDX 16 14 14 15 15 16 17 17 18 18 25 19 19 20 24 21 21 22 20 23
 SMILES IDX 23 24 22 25
 H PARENT 22 26

>  <TORSDO>  (1) 
F 6

$$$$
