/home/pchatterjee/Documents/git/vs_workflow/DiffDock/diffdock_run/pdbqt_scrubbed/Z1514091612.pdbqt
     RDKit          3D

 25 28  0  0  1  0  0  0  0  0999 V2000
    6.1797   45.1529   52.8253 C   0  0  0  0  0  2  0  0  0  0  0  0
    5.2383   46.2618   53.0152 C   0  0  0  0  0  0  0  0  0  0  0  0
    5.6590   47.3437   53.7791 C   0  0  0  0  0  0  0  0  0  0  0  0
    4.8115   48.4069   53.9850 C   0  0  0  0  0  3  0  0  0  0  0  0
    3.5346   48.4650   53.4647 C   0  0  0  0  0  3  0  0  0  0  0  0
    3.9546   46.2821   52.4716 C   0  0  0  0  0  3  0  0  0  0  0  0
    3.1467   47.3714   52.7087 C   0  0  0  0  0  3  0  0  0  0  0  0
    6.9483   47.3324   54.3299 O   0  0  0  0  0  0  0  0  0  0  0  0
    7.6762   48.5487   54.3245 C   0  0  0  0  0  1  0  0  0  0  0  0
    6.0482   44.4744   51.5488 N   0  0  0  0  0  0  0  0  0  0  0  0
    4.8041   43.9295   51.0856 C   0  0  0  0  0  2  0  0  0  0  0  0
    4.9430   42.7633   50.1752 C   0  0  0  0  0  3  0  0  0  0  0  0
    5.0732   41.4308   50.8296 C   0  0  0  0  0  2  0  0  0  0  0  0
    3.9292   42.5841   49.2649 O   0  0  0  0  0  0  0  0  0  0  0  0
    3.6328   40.9491   50.8912 C   0  0  0  0  0  2  0  0  0  0  0  0
    2.9322   41.9949   50.0434 C   0  0  0  0  0  2  0  0  0  0  0  0
    7.2615   44.3827   50.7688 C   0  0  0  0  0  0  0  0  0  0  0  0
    7.2991   43.6132   49.6650 N   0  0  0  0  0  0  0  0  0  0  0  0
    8.3895   45.0763   51.1404 C   0  0  0  0  0  0  0  0  0  0  0  0
    8.3991   43.4794   48.8864 C   0  0  0  0  0  3  0  0  0  0  0  0
    8.6888   45.9292   52.1807 C   0  0  0  0  0  3  0  0  0  0  0  0
    9.5043   44.9235   50.3270 C   0  0  0  0  0  0  0  0  0  0  0  0
    9.5019   44.1446   49.2315 N   0  0  0  0  0  0  0  0  0  0  0  0
   10.0089   46.2969   51.9903 C   0  0  0  0  0  3  0  0  0  0  0  0
   10.4784   45.6817   50.8720 N   0  0  0  0  0  0  0  0  0  0  0  0
  1  2  1  0
  2  6  1  0
  2  3  2  0
  3  4  1  0
  4  5  2  0
  6  7  2  0
  7  5  1  0
  8  3  1  0
  9  8  1  0
 10  1  1  0
 11 10  1  0
 12 14  1  0
 12 11  1  0
 13 12  1  0
 15 13  1  0
 15 16  1  0
 16 14  1  0
 17 10  1  0
 18 17  2  0
 19 21  1  0
 19 17  1  0
 20 18  1  0
 22 19  2  0
 23 22  1  0
 23 20  2  0
 24 21  2  0
 25 22  1  0
 25 24  1  0
M  RAD  8   1   3   4   2   5   2   6   2   7   2   9   2  11   3  12   2
M  RAD  6  13   3  15   3  16   3  20   2  21   2  24   2
M  END
>  <REMARK>  (1) 
 SMILES COc1ccccc1CN(CC1CCCO1)c1ncnc2[nH]ccc12
 SMILES IDX 9 1 8 2 3 3 4 4 5 5 7 6 6 7 2 8 1 9 10 10 11 11 12 12 13 13
 SMILES IDX 16 14 14 15 15 16 17 17 18 18 25 19 19 20 24 21 21 22 20 23
 SMILES IDX 23 24 22 25
 H PARENT 22 26

>  <TORSDO>  (1) 
F 6

$$$$
