/home/pchatterjee/Documents/git/vs_workflow/DiffDock/diffdock_run/pdbqt_scrubbed/Z1514091612.pdbqt
     RDKit          3D

 25 28  0  0  1  0  0  0  0  0999 V2000
    6.6584   47.2069   51.9779 C   0  0  0  0  0  2  0  0  0  0  0  0
    6.2832   47.6966   53.3088 C   0  0  0  0  0  0  0  0  0  0  0  0
    7.3063   48.0484   54.1808 C   0  0  0  0  0  0  0  0  0  0  0  0
    7.0037   48.5127   55.4393 C   0  0  0  0  0  3  0  0  0  0  0  0
    5.7105   48.6540   55.9000 C   0  0  0  0  0  3  0  0  0  0  0  0
    4.9623   47.8248   53.7366 C   0  0  0  0  0  3  0  0  0  0  0  0
    4.7149   48.2949   55.0068 C   0  0  0  0  0  3  0  0  0  0  0  0
    8.6377   47.9229   53.7596 O   0  0  0  0  0  0  0  0  0  0  0  0
    9.6556   48.1815   54.7117 C   0  0  0  0  0  1  0  0  0  0  0  0
    6.4360   45.7856   51.7837 N   0  0  0  0  0  0  0  0  0  0  0  0
    5.3347   45.0851   52.3800 C   0  0  0  0  0  2  0  0  0  0  0  0
    4.3985   44.4658   51.4064 C   0  0  0  0  0  3  0  0  0  0  0  0
    4.0452   43.0388   51.6512 C   0  0  0  0  0  2  0  0  0  0  0  0
    3.1803   45.0853   51.2624 O   0  0  0  0  0  0  0  0  0  0  0  0
    2.7790   43.1487   52.4849 C   0  0  0  0  0  2  0  0  0  0  0  0
    2.4835   44.6339   52.3840 C   0  0  0  0  0  2  0  0  0  0  0  0
    7.4038   45.1169   50.9440 C   0  0  0  0  0  0  0  0  0  0  0  0
    6.9994   44.2043   50.0410 N   0  0  0  0  0  0  0  0  0  0  0  0
    8.7449   45.4012   51.0543 C   0  0  0  0  0  0  0  0  0  0  0  0
    7.8481   43.5390   49.2217 C   0  0  0  0  0  3  0  0  0  0  0  0
    9.4798   46.2547   51.8486 C   0  0  0  0  0  3  0  0  0  0  0  0
    9.5953   44.7069   50.2042 C   0  0  0  0  0  0  0  0  0  0  0  0
    9.1519   43.8020   49.3147 N   0  0  0  0  0  0  0  0  0  0  0  0
   10.7976   46.0709   51.4697 C   0  0  0  0  0  3  0  0  0  0  0  0
   10.8437   45.1377   50.4815 N   0  0  0  0  0  0  0  0  0  0  0  0
  1  2  1  0
  2  6  1  0
  2  3  2  0
  3  4  1  0
  4  5  2  0
  6  7  2  0
  7  5  1  0
  8  3  1  0
  9  8  1  0
 10  1  1  0
 11 10  1  0
 12 14  1  0
 12 11  1  0
 13 12  1  0
 15 13  1  0
 15 16  1  0
 16 14  1  0
 17 10  1  0
 18 17  2  0
 19 21  1  0
 19 17  1  0
 20 18  1  0
 22 19  2  0
 23 22  1  0
 23 20  2  0
 24 21  2  0
 25 22  1  0
 25 24  1  0
M  RAD  8   1   3   4   2   5   2   6   2   7   2   9   2  11   3  12   2
M  RAD  6  13   3  15   3  16   3  20   2  21   2  24   2
M  END
>  <REMARK>  (1) 
 SMILES COc1ccccc1CN(CC1CCCO1)c1ncnc2[nH]ccc12
 SMILES IDX 9 1 8 2 3 3 4 4 5 5 7 6 6 7 2 8 1 9 10 10 11 11 12 12 13 13
 SMILES IDX 16 14 14 15 15 16 17 17 18 18 25 19 19 20 24 21 21 22 20 23
 SMILES IDX 23 24 22 25
 H PARENT 22 26

>  <TORSDO>  (1) 
F 6

$$$$
