/home/pchatterjee/Documents/git/vs_workflow/DiffDock/diffdock_run/pdbqt_scrubbed/Z1514091612.pdbqt
     RDKit          3D

 25 28  0  0  1  0  0  0  0  0999 V2000
    5.8067   46.4671   51.6388 C   0  0  0  0  0  2  0  0  0  0  0  0
    5.0950   46.3778   52.9185 C   0  0  0  0  0  0  0  0  0  0  0  0
    5.8202   46.6149   54.0798 C   0  0  0  0  0  0  0  0  0  0  0  0
    5.1963   46.5426   55.3031 C   0  0  0  0  0  3  0  0  0  0  0  0
    3.8577   46.2406   55.4501 C   0  0  0  0  0  3  0  0  0  0  0  0
    3.7394   46.0693   53.0243 C   0  0  0  0  0  3  0  0  0  0  0  0
    3.1642   46.0099   54.2738 C   0  0  0  0  0  3  0  0  0  0  0  0
    7.1840   46.9258   53.9835 O   0  0  0  0  0  0  0  0  0  0  0  0
    7.6742   47.9885   54.7834 C   0  0  0  0  0  1  0  0  0  0  0  0
    5.8016   45.2362   50.8694 N   0  0  0  0  0  0  0  0  0  0  0  0
    4.6220   44.4390   50.6908 C   0  0  0  0  0  2  0  0  0  0  0  0
    4.8352   43.1868   49.9198 C   0  0  0  0  0  3  0  0  0  0  0  0
    5.1934   41.9784   50.7150 C   0  0  0  0  0  2  0  0  0  0  0  0
    3.7807   42.7685   49.1442 O   0  0  0  0  0  0  0  0  0  0  0  0
    3.8388   41.3412   50.9787 C   0  0  0  0  0  2  0  0  0  0  0  0
    2.9385   42.1738   50.0845 C   0  0  0  0  0  2  0  0  0  0  0  0
    7.0723   44.8632   50.2903 C   0  0  0  0  0  0  0  0  0  0  0  0
    7.1224   43.9558   49.2973 N   0  0  0  0  0  0  0  0  0  0  0  0
    8.2426   45.4265   50.7425 C   0  0  0  0  0  0  0  0  0  0  0  0
    8.2751   43.5583   48.7079 C   0  0  0  0  0  3  0  0  0  0  0  0
    8.5439   46.3575   51.7130 C   0  0  0  0  0  3  0  0  0  0  0  0
    9.4111   45.0036   50.1231 C   0  0  0  0  0  0  0  0  0  0  0  0
    9.4195   44.0940   49.1335 N   0  0  0  0  0  0  0  0  0  0  0  0
    9.9198   46.4979   51.6774 C   0  0  0  0  0  3  0  0  0  0  0  0
   10.4196   45.6761   50.7160 N   0  0  0  0  0  0  0  0  0  0  0  0
  1  2  1  0
  2  6  1  0
  2  3  2  0
  3  4  1  0
  4  5  2  0
  6  7  2  0
  7  5  1  0
  8  3  1  0
  9  8  1  0
 10  1  1  0
 11 10  1  0
 12 14  1  0
 12 11  1  0
 13 12  1  0
 15 13  1  0
 15 16  1  0
 16 14  1  0
 17 10  1  0
 18 17  2  0
 19 21  1  0
 19 17  1  0
 20 18  1  0
 22 19  2  0
 23 22  1  0
 23 20  2  0
 24 21  2  0
 25 22  1  0
 25 24  1  0
M  RAD  8   1   3   4   2   5   2   6   2   7   2   9   2  11   3  12   2
M  RAD  6  13   3  15   3  16   3  20   2  21   2  24   2
M  END
>  <REMARK>  (1) 
 SMILES COc1ccccc1CN(CC1CCCO1)c1ncnc2[nH]ccc12
 SMILES IDX 9 1 8 2 3 3 4 4 5 5 7 6 6 7 2 8 1 9 10 10 11 11 12 12 13 13
 SMILES IDX 16 14 14 15 15 16 17 17 18 18 25 19 19 20 24 21 21 22 20 23
 SMILES IDX 23 24 22 25
 H PARENT 22 26

>  <TORSDO>  (1) 
F 6

$$$$
