/home/pchatterjee/Documents/git/vs_workflow/DiffDock/diffdock_run/pdbqt_scrubbed/Z1514091612.pdbqt
     RDKit          3D

 25 28  0  0  1  0  0  0  0  0999 V2000
    6.2250   45.5885   52.5666 C   0  0  0  0  0  2  0  0  0  0  0  0
    5.0636   46.3882   52.9712 C   0  0  0  0  0  0  0  0  0  0  0  0
    5.2293   47.2847   54.0199 C   0  0  0  0  0  0  0  0  0  0  0  0
    4.1694   48.0563   54.4348 C   0  0  0  0  0  3  0  0  0  0  0  0
    2.9179   47.9917   53.8566 C   0  0  0  0  0  3  0  0  0  0  0  0
    3.8140   46.2929   52.3602 C   0  0  0  0  0  3  0  0  0  0  0  0
    2.7865   47.0887   52.8147 C   0  0  0  0  0  3  0  0  0  0  0  0
    6.4823   47.3876   54.6406 O   0  0  0  0  0  0  0  0  0  0  0  0
    7.2286   48.5730   54.4227 C   0  0  0  0  0  1  0  0  0  0  0  0
    6.0334   44.8443   51.3351 N   0  0  0  0  0  0  0  0  0  0  0  0
    4.7450   44.3885   50.8977 C   0  0  0  0  0  2  0  0  0  0  0  0
    4.7160   42.9781   50.4309 C   0  0  0  0  0  3  0  0  0  0  0  0
    4.4947   41.9431   51.4801 C   0  0  0  0  0  2  0  0  0  0  0  0
    3.7782   42.6788   49.4719 O   0  0  0  0  0  0  0  0  0  0  0  0
    2.9854   41.7649   51.4574 C   0  0  0  0  0  2  0  0  0  0  0  0
    2.6089   42.5669   50.2252 C   0  0  0  0  0  2  0  0  0  0  0  0
    7.2345   44.5903   50.5723 C   0  0  0  0  0  0  0  0  0  0  0  0
    7.1835   43.8261   49.4653 N   0  0  0  0  0  0  0  0  0  0  0  0
    8.4407   45.1226   50.9636 C   0  0  0  0  0  0  0  0  0  0  0  0
    8.2666   43.5459   48.7021 C   0  0  0  0  0  3  0  0  0  0  0  0
    8.8378   45.9237   52.0124 C   0  0  0  0  0  3  0  0  0  0  0  0
    9.5364   44.8216   50.1657 C   0  0  0  0  0  0  0  0  0  0  0  0
    9.4444   44.0536   49.0665 N   0  0  0  0  0  0  0  0  0  0  0  0
   10.1984   46.1086   51.8430 C   0  0  0  0  0  3  0  0  0  0  0  0
   10.5965   45.4384   50.7286 N   0  0  0  0  0  0  0  0  0  0  0  0
  1  2  1  0
  2  6  1  0
  2  3  2  0
  3  4  1  0
  4  5  2  0
  6  7  2  0
  7  5  1  0
  8  3  1  0
  9  8  1  0
 10  1  1  0
 11 10  1  0
 12 14  1  0
 12 11  1  0
 13 12  1  0
 15 13  1  0
 15 16  1  0
 16 14  1  0
 17 10  1  0
 18 17  2  0
 19 21  1  0
 19 17  1  0
 20 18  1  0
 22 19  2  0
 23 22  1  0
 23 20  2  0
 24 21  2  0
 25 22  1  0
 25 24  1  0
M  RAD  8   1   3   4   2   5   2   6   2   7   2   9   2  11   3  12   2
M  RAD  6  13   3  15   3  16   3  20   2  21   2  24   2
M  END
>  <REMARK>  (1) 
 SMILES COc1ccccc1CN(CC1CCCO1)c1ncnc2[nH]ccc12
 SMILES IDX 9 1 8 2 3 3 4 4 5 5 7 6 6 7 2 8 1 9 10 10 11 11 12 12 13 13
 SMILES IDX 16 14 14 15 15 16 17 17 18 18 25 19 19 20 24 21 21 22 20 23
 SMILES IDX 23 24 22 25
 H PARENT 22 26

>  <TORSDO>  (1) 
F 6

$$$$
