/home/pchatterjee/Documents/git/vs_workflow/DiffDock/diffdock_run/pdbqt_scrubbed/Z1193314231.pdbqt
     RDKit          3D

 26 30  0  0  1  0  0  0  0  0999 V2000
    3.5904   45.8674   51.4991 C   0  0  0  0  0  3  0  0  0  0  0  0
    4.1985   46.5748   52.6629 C   0  0  0  0  0  2  0  0  0  0  0  0
    5.0877   45.7512   53.5314 C   0  0  0  0  0  2  0  0  0  0  0  0
    5.5746   44.4809   52.8654 C   0  0  0  0  0  2  0  0  0  0  0  0
    5.7213   44.8083   51.4571 N   0  0  0  0  0  0  0  0  0  0  0  0
    4.5944   45.1614   50.6109 C   0  0  0  0  0  2  0  0  0  0  0  0
    2.6374   44.8352   51.9892 C   0  0  0  0  0  0  0  0  0  0  0  0
    1.1007   43.2316   51.9993 C   0  0  0  0  0  0  0  0  0  0  0  0
    1.4558   43.5006   53.3048 C   0  0  0  0  0  3  0  0  0  0  0  0
    1.8271   44.0494   51.2236 N   0  0  0  0  0  0  0  0  0  0  0  0
    2.3848   44.4728   53.2639 N   0  0  0  0  0  0  0  0  0  0  0  0
    0.1290   42.2565   51.5027 C   0  0  0  0  0  0  0  0  0  0  0  0
   -1.6875   40.4372   50.5319 C   0  0  0  0  0  3  0  0  0  0  0  0
   -0.9982   41.2263   49.6422 C   0  0  0  0  0  3  0  0  0  0  0  0
   -1.4998   40.5259   51.8962 C   0  0  0  0  0  3  0  0  0  0  0  0
   -0.0883   42.1367   50.1409 C   0  0  0  0  0  3  0  0  0  0  0  0
   -0.5862   41.4411   52.3819 C   0  0  0  0  0  3  0  0  0  0  0  0
    7.0074   44.8024   50.8083 C   0  0  0  0  0  0  0  0  0  0  0  0
    7.2106   43.9964   49.7604 N   0  0  0  0  0  0  0  0  0  0  0  0
    8.0038   45.6318   51.2854 C   0  0  0  0  0  0  0  0  0  0  0  0
    8.4131   43.9785   49.1393 C   0  0  0  0  0  3  0  0  0  0  0  0
    8.0989   46.5509   52.3174 C   0  0  0  0  0  3  0  0  0  0  0  0
    9.2280   45.5864   50.6213 C   0  0  0  0  0  0  0  0  0  0  0  0
    9.4190   44.7675   49.5641 N   0  0  0  0  0  0  0  0  0  0  0  0
    9.3804   47.0523   52.2669 C   0  0  0  0  0  3  0  0  0  0  0  0
   10.0366   46.4647   51.2494 N   0  0  0  0  0  0  0  0  0  0  0  0
  1  7  1  0
  1  2  1  0
  1  6  1  0
  2  3  1  0
  3  4  1  0
  5 18  1  0
  5  4  1  0
  6  5  1  0
  7 11  1  0
  8 10  1  0
  8  9  2  0
  9 11  1  0
 10  7  2  0
 12  8  1  0
 13 14  2  0
 13 15  1  0
 14 16  1  0
 15 17  2  0
 16 12  2  0
 17 12  1  0
 18 20  2  0
 19 21  2  0
 19 18  1  0
 20 23  1  0
 20 22  1  0
 21 24  1  0
 22 25  2  0
 23 26  1  0
 24 23  2  0
 26 25  1  0
M  RAD  8   1   2   2   3   3   3   4   3   6   3   9   2  13   2  14   2
M  RAD  6  15   2  16   2  17   2  21   2  22   2  25   2
M  END
>  <REMARK>  (1) 
 SMILES c1ccc(-c2c[nH]c(C3CCCN(c4ncnc5[nH]ccc45)C3)n2)cc1
 SMILES IDX 9 1 10 2 11 3 12 4 13 5 23 6 8 7 5 8 6 9 24 10 7 11 4 13
 SMILES IDX 1 14 2 15 26 16 3 17 25 18 14 19 15 20 22 21 16 22 21 23
 SMILES IDX 18 24 17 25 20 26 19 27
 H PARENT 7 12 19 28

>  <TORSDO>  (1) 
F 3

$$$$
