/home/pchatterjee/Documents/git/vs_workflow/DiffDock/diffdock_run/pdbqt_scrubbed/Z1193314231.pdbqt
     RDKit          3D

 26 30  0  0  1  0  0  0  0  0999 V2000
    3.7473   46.0573   51.6347 C   0  0  0  0  0  3  0  0  0  0  0  0
    4.3999   46.6845   52.8202 C   0  0  0  0  0  2  0  0  0  0  0  0
    5.1996   45.7675   53.6823 C   0  0  0  0  0  2  0  0  0  0  0  0
    5.5801   44.4719   52.9961 C   0  0  0  0  0  2  0  0  0  0  0  0
    5.7752   44.8123   51.5968 N   0  0  0  0  0  0  0  0  0  0  0  0
    4.6964   45.2815   50.7444 C   0  0  0  0  0  2  0  0  0  0  0  0
    2.6989   45.1054   52.0917 C   0  0  0  0  0  0  0  0  0  0  0  0
    1.2385   43.4321   52.0935 C   0  0  0  0  0  0  0  0  0  0  0  0
    1.1905   44.0514   53.3252 C   0  0  0  0  0  3  0  0  0  0  0  0
    2.1560   44.0860   51.3663 N   0  0  0  0  0  0  0  0  0  0  0  0
    2.0837   45.0568   53.2913 N   0  0  0  0  0  0  0  0  0  0  0  0
    0.4632   42.2845   51.6208 C   0  0  0  0  0  0  0  0  0  0  0  0
   -1.0132   40.1289   50.7689 C   0  0  0  0  0  3  0  0  0  0  0  0
   -1.2512   40.6431   52.0212 C   0  0  0  0  0  3  0  0  0  0  0  0
   -0.0587   40.6568   49.9234 C   0  0  0  0  0  3  0  0  0  0  0  0
   -0.5038   41.7259   52.4388 C   0  0  0  0  0  3  0  0  0  0  0  0
    0.6822   41.7403   50.3538 C   0  0  0  0  0  3  0  0  0  0  0  0
    7.0645   44.7035   50.9637 C   0  0  0  0  0  0  0  0  0  0  0  0
    7.2435   43.8064   49.9880 N   0  0  0  0  0  0  0  0  0  0  0  0
    8.0891   45.5310   51.3808 C   0  0  0  0  0  0  0  0  0  0  0  0
    8.4487   43.6912   49.3826 C   0  0  0  0  0  3  0  0  0  0  0  0
    8.2127   46.5281   52.3343 C   0  0  0  0  0  3  0  0  0  0  0  0
    9.3152   45.3841   50.7350 C   0  0  0  0  0  0  0  0  0  0  0  0
    9.4815   44.4737   49.7510 N   0  0  0  0  0  0  0  0  0  0  0  0
    9.5131   46.9743   52.2555 C   0  0  0  0  0  3  0  0  0  0  0  0
   10.1529   46.2800   51.2967 N   0  0  0  0  0  0  0  0  0  0  0  0
  1  7  1  0
  1  2  1  0
  1  6  1  0
  2  3  1  0
  3  4  1  0
  5 18  1  0
  5  4  1  0
  6  5  1  0
  7 11  1  0
  8 10  1  0
  8  9  2  0
  9 11  1  0
 10  7  2  0
 12  8  1  0
 13 14  2  0
 13 15  1  0
 14 16  1  0
 15 17  2  0
 16 12  2  0
 17 12  1  0
 18 20  2  0
 19 21  2  0
 19 18  1  0
 20 23  1  0
 20 22  1  0
 21 24  1  0
 22 25  2  0
 23 26  1  0
 24 23  2  0
 26 25  1  0
M  RAD  8   1   2   2   3   3   3   4   3   6   3   9   2  13   2  14   2
M  RAD  6  15   2  16   2  17   2  21   2  22   2  25   2
M  END
>  <REMARK>  (1) 
 SMILES c1ccc(-c2c[nH]c(C3CCCN(c4ncnc5[nH]ccc45)C3)n2)cc1
 SMILES IDX 9 1 10 2 11 3 12 4 13 5 23 6 8 7 5 8 6 9 24 10 7 11 4 13
 SMILES IDX 1 14 2 15 26 16 3 17 25 18 14 19 15 20 22 21 16 22 21 23
 SMILES IDX 18 24 17 25 20 26 19 27
 H PARENT 7 12 19 28

>  <TORSDO>  (1) 
F 3

$$$$
