/home/pchatterjee/Documents/git/vs_workflow/DiffDock/diffdock_run/pdbqt_scrubbed/Z1193314231.pdbqt
     RDKit          3D

 26 30  0  0  1  0  0  0  0  0999 V2000
    6.0441   47.7120   53.1523 C   0  0  0  0  0  3  0  0  0  0  0  0
    7.2472   48.1038   53.9422 C   0  0  0  0  0  2  0  0  0  0  0  0
    8.0101   46.9829   54.5625 C   0  0  0  0  0  2  0  0  0  0  0  0
    7.7106   45.6331   53.9441 C   0  0  0  0  0  2  0  0  0  0  0  0
    7.4528   45.8949   52.5380 N   0  0  0  0  0  0  0  0  0  0  0  0
    6.3183   46.6779   52.0795 C   0  0  0  0  0  2  0  0  0  0  0  0
    5.0186   47.1362   54.0637 C   0  0  0  0  0  0  0  0  0  0  0  0
    3.1096   46.2689   54.7961 C   0  0  0  0  0  0  0  0  0  0  0  0
    3.9792   46.3670   55.8626 C   0  0  0  0  0  3  0  0  0  0  0  0
    3.7594   46.7392   53.7216 N   0  0  0  0  0  0  0  0  0  0  0  0
    5.1218   46.8941   55.3868 N   0  0  0  0  0  0  0  0  0  0  0  0
    1.7377   45.7598   54.7842 C   0  0  0  0  0  0  0  0  0  0  0  0
   -0.8415   44.8131   54.7219 C   0  0  0  0  0  3  0  0  0  0  0  0
   -0.2925   45.3199   53.5682 C   0  0  0  0  0  3  0  0  0  0  0  0
   -0.1433   44.7626   55.9113 C   0  0  0  0  0  3  0  0  0  0  0  0
    1.0037   45.7927   53.6110 C   0  0  0  0  0  3  0  0  0  0  0  0
    1.1529   45.2391   55.9401 C   0  0  0  0  0  3  0  0  0  0  0  0
    8.3166   45.3879   51.5027 C   0  0  0  0  0  0  0  0  0  0  0  0
    9.5982   45.7694   51.4714 N   0  0  0  0  0  0  0  0  0  0  0  0
    7.7993   44.5168   50.5635 C   0  0  0  0  0  0  0  0  0  0  0  0
   10.4234   45.3024   50.5053 C   0  0  0  0  0  3  0  0  0  0  0  0
    6.5551   43.9520   50.3359 C   0  0  0  0  0  3  0  0  0  0  0  0
    8.6779   44.0570   49.5845 C   0  0  0  0  0  0  0  0  0  0  0  0
    9.9699   44.4508   49.5652 N   0  0  0  0  0  0  0  0  0  0  0  0
    6.6941   43.1559   49.2209 C   0  0  0  0  0  3  0  0  0  0  0  0
    7.9661   43.2325   48.7888 N   0  0  0  0  0  0  0  0  0  0  0  0
  1  7  1  0
  1  2  1  0
  1  6  1  0
  2  3  1  0
  3  4  1  0
  5 18  1  0
  5  4  1  0
  6  5  1  0
  7 11  1  0
  8 10  1  0
  8  9  2  0
  9 11  1  0
 10  7  2  0
 12  8  1  0
 13 14  2  0
 13 15  1  0
 14 16  1  0
 15 17  2  0
 16 12  2  0
 17 12  1  0
 18 20  2  0
 19 21  2  0
 19 18  1  0
 20 23  1  0
 20 22  1  0
 21 24  1  0
 22 25  2  0
 23 26  1  0
 24 23  2  0
 26 25  1  0
M  RAD  8   1   2   2   3   3   3   4   3   6   3   9   2  13   2  14   2
M  RAD  6  15   2  16   2  17   2  21   2  22   2  25   2
M  END
>  <REMARK>  (1) 
 SMILES c1ccc(-c2c[nH]c(C3CCCN(c4ncnc5[nH]ccc45)C3)n2)cc1
 SMILES IDX 9 1 10 2 11 3 12 4 13 5 23 6 8 7 5 8 6 9 24 10 7 11 4 13
 SMILES IDX 1 14 2 15 26 16 3 17 25 18 14 19 15 20 22 21 16 22 21 23
 SMILES IDX 18 24 17 25 20 26 19 27
 H PARENT 7 12 19 28

>  <TORSDO>  (1) 
F 3

$$$$
