/home/pchatterjee/Documents/git/vs_workflow/DiffDock/diffdock_run/pdbqt_scrubbed/Z1193314231.pdbqt
     RDKit          3D

 26 30  0  0  1  0  0  0  0  0999 V2000
    4.3225   46.9551   52.8221 C   0  0  0  0  0  3  0  0  0  0  0  0
    5.3270   47.2926   53.8718 C   0  0  0  0  0  2  0  0  0  0  0  0
    6.0376   46.1349   54.4869 C   0  0  0  0  0  2  0  0  0  0  0  0
    5.9536   44.8672   53.6624 C   0  0  0  0  0  2  0  0  0  0  0  0
    5.9445   45.3016   52.2756 N   0  0  0  0  0  0  0  0  0  0  0  0
    4.8633   46.0863   51.7049 C   0  0  0  0  0  2  0  0  0  0  0  0
    3.1880   46.2173   53.4406 C   0  0  0  0  0  0  0  0  0  0  0  0
    1.2172   45.2249   53.6939 C   0  0  0  0  0  0  0  0  0  0  0  0
    1.9100   45.1238   54.8825 C   0  0  0  0  0  3  0  0  0  0  0  0
    2.0088   45.8888   52.8391 N   0  0  0  0  0  0  0  0  0  0  0  0
    3.0951   45.7326   54.6961 N   0  0  0  0  0  0  0  0  0  0  0  0
   -0.1203   44.7244   53.3745 C   0  0  0  0  0  0  0  0  0  0  0  0
   -2.6269   43.7965   52.7359 C   0  0  0  0  0  3  0  0  0  0  0  0
   -1.8630   44.3759   51.7511 C   0  0  0  0  0  3  0  0  0  0  0  0
   -2.1800   43.6639   54.0348 C   0  0  0  0  0  3  0  0  0  0  0  0
   -0.6054   44.8385   52.0831 C   0  0  0  0  0  3  0  0  0  0  0  0
   -0.9197   44.1310   54.3534 C   0  0  0  0  0  3  0  0  0  0  0  0
    7.0193   44.9765   51.3733 C   0  0  0  0  0  0  0  0  0  0  0  0
    6.8112   44.0850   50.3981 N   0  0  0  0  0  0  0  0  0  0  0  0
    8.2437   45.5950   51.5370 C   0  0  0  0  0  0  0  0  0  0  0  0
    7.8104   43.7681   49.5417 C   0  0  0  0  0  3  0  0  0  0  0  0
    8.7549   46.5306   52.4214 C   0  0  0  0  0  3  0  0  0  0  0  0
    9.2481   45.2441   50.6372 C   0  0  0  0  0  0  0  0  0  0  0  0
    9.0236   44.3421   49.6570 N   0  0  0  0  0  0  0  0  0  0  0  0
   10.0640   46.7361   52.0472 C   0  0  0  0  0  3  0  0  0  0  0  0
   10.3379   45.9603   50.9823 N   0  0  0  0  0  0  0  0  0  0  0  0
  1  7  1  0
  1  2  1  0
  1  6  1  0
  2  3  1  0
  3  4  1  0
  5 18  1  0
  5  4  1  0
  6  5  1  0
  7 11  1  0
  8 10  1  0
  8  9  2  0
  9 11  1  0
 10  7  2  0
 12  8  1  0
 13 14  2  0
 13 15  1  0
 14 16  1  0
 15 17  2  0
 16 12  2  0
 17 12  1  0
 18 20  2  0
 19 21  2  0
 19 18  1  0
 20 23  1  0
 20 22  1  0
 21 24  1  0
 22 25  2  0
 23 26  1  0
 24 23  2  0
 26 25  1  0
M  RAD  8   1   2   2   3   3   3   4   3   6   3   9   2  13   2  14   2
M  RAD  6  15   2  16   2  17   2  21   2  22   2  25   2
M  END
>  <REMARK>  (1) 
 SMILES c1ccc(-c2c[nH]c(C3CCCN(c4ncnc5[nH]ccc45)C3)n2)cc1
 SMILES IDX 9 1 10 2 11 3 12 4 13 5 23 6 8 7 5 8 6 9 24 10 7 11 4 13
 SMILES IDX 1 14 2 15 26 16 3 17 25 18 14 19 15 20 22 21 16 22 21 23
 SMILES IDX 18 24 17 25 20 26 19 27
 H PARENT 7 12 19 28

>  <TORSDO>  (1) 
F 3

$$$$
