/home/pchatterjee/Documents/git/vs_workflow/DiffDock/diffdock_run/pdbqt_scrubbed/Z1193314231.pdbqt
     RDKit          3D

 26 30  0  0  1  0  0  0  0  0999 V2000
    3.5295   45.5941   51.2962 C   0  0  0  0  0  3  0  0  0  0  0  0
    4.0606   46.2869   52.5056 C   0  0  0  0  0  2  0  0  0  0  0  0
    4.8660   45.4445   53.4356 C   0  0  0  0  0  2  0  0  0  0  0  0
    5.3785   44.1671   52.8032 C   0  0  0  0  0  2  0  0  0  0  0  0
    5.6375   44.4955   51.4114 N   0  0  0  0  0  0  0  0  0  0  0  0
    4.5847   44.8718   50.4837 C   0  0  0  0  0  2  0  0  0  0  0  0
    2.5231   44.5786   51.7085 C   0  0  0  0  0  0  0  0  0  0  0  0
    1.0482   42.9213   51.6051 C   0  0  0  0  0  0  0  0  0  0  0  0
    1.1415   43.3380   52.9168 C   0  0  0  0  0  3  0  0  0  0  0  0
    1.8913   43.6847   50.8949 N   0  0  0  0  0  0  0  0  0  0  0  0
    2.0398   44.3391   52.9450 N   0  0  0  0  0  0  0  0  0  0  0  0
    0.2107   41.8602   51.0445 C   0  0  0  0  0  0  0  0  0  0  0  0
   -1.3403   39.8691   49.9572 C   0  0  0  0  0  3  0  0  0  0  0  0
   -0.3199   40.4010   49.2054 C   0  0  0  0  0  3  0  0  0  0  0  0
   -1.6140   40.2995   51.2395 C   0  0  0  0  0  3  0  0  0  0  0  0
    0.4528   41.4005   49.7615 C   0  0  0  0  0  3  0  0  0  0  0  0
   -0.8330   41.3005   51.7840 C   0  0  0  0  0  3  0  0  0  0  0  0
    6.9687   44.4671   50.8619 C   0  0  0  0  0  0  0  0  0  0  0  0
    7.2248   43.6945   49.8005 N   0  0  0  0  0  0  0  0  0  0  0  0
    7.9527   45.2411   51.4460 C   0  0  0  0  0  0  0  0  0  0  0  0
    8.4703   43.6562   49.2718 C   0  0  0  0  0  3  0  0  0  0  0  0
    7.9989   46.1164   52.5185 C   0  0  0  0  0  3  0  0  0  0  0  0
    9.2222   45.1762   50.8749 C   0  0  0  0  0  0  0  0  0  0  0  0
    9.4663   44.3914   49.8029 N   0  0  0  0  0  0  0  0  0  0  0  0
    9.2966   46.5722   52.5852 C   0  0  0  0  0  3  0  0  0  0  0  0
   10.0090   46.0001   51.5973 N   0  0  0  0  0  0  0  0  0  0  0  0
  1  7  1  0
  1  2  1  0
  1  6  1  0
  2  3  1  0
  3  4  1  0
  5 18  1  0
  5  4  1  0
  6  5  1  0
  7 11  1  0
  8 10  1  0
  8  9  2  0
  9 11  1  0
 10  7  2  0
 12  8  1  0
 13 14  2  0
 13 15  1  0
 14 16  1  0
 15 17  2  0
 16 12  2  0
 17 12  1  0
 18 20  2  0
 19 21  2  0
 19 18  1  0
 20 23  1  0
 20 22  1  0
 21 24  1  0
 22 25  2  0
 23 26  1  0
 24 23  2  0
 26 25  1  0
M  RAD  8   1   2   2   3   3   3   4   3   6   3   9   2  13   2  14   2
M  RAD  6  15   2  16   2  17   2  21   2  22   2  25   2
M  END
>  <REMARK>  (1) 
 SMILES c1ccc(-c2c[nH]c(C3CCCN(c4ncnc5[nH]ccc45)C3)n2)cc1
 SMILES IDX 9 1 10 2 11 3 12 4 13 5 23 6 8 7 5 8 6 9 24 10 7 11 4 13
 SMILES IDX 1 14 2 15 26 16 3 17 25 18 14 19 15 20 22 21 16 22 21 23
 SMILES IDX 18 24 17 25 20 26 19 27
 H PARENT 7 12 19 28

>  <TORSDO>  (1) 
F 3

$$$$
