/home/pchatterjee/Documents/git/vs_workflow/DiffDock/diffdock_run/pdbqt_scrubbed/Z1193314231.pdbqt
     RDKit          3D

 26 30  0  0  1  0  0  0  0  0999 V2000
    3.5566   45.7649   51.4157 C   0  0  0  0  0  3  0  0  0  0  0  0
    4.1308   46.4513   52.6090 C   0  0  0  0  0  2  0  0  0  0  0  0
    4.9783   45.6068   53.4989 C   0  0  0  0  0  2  0  0  0  0  0  0
    5.4736   44.3384   52.8357 C   0  0  0  0  0  2  0  0  0  0  0  0
    5.6748   44.6801   51.4375 N   0  0  0  0  0  0  0  0  0  0  0  0
    4.5834   45.0568   50.5557 C   0  0  0  0  0  2  0  0  0  0  0  0
    2.5743   44.7389   51.8590 C   0  0  0  0  0  0  0  0  0  0  0  0
    1.1456   43.0392   51.8081 C   0  0  0  0  0  0  0  0  0  0  0  0
    1.2156   43.5087   53.1033 C   0  0  0  0  0  3  0  0  0  0  0  0
    1.9742   43.7974   51.0756 N   0  0  0  0  0  0  0  0  0  0  0  0
    2.0862   44.5342   53.0999 N   0  0  0  0  0  0  0  0  0  0  0  0
    0.3421   41.9348   51.2824 C   0  0  0  0  0  0  0  0  0  0  0  0
   -1.1438   39.8610   50.2611 C   0  0  0  0  0  3  0  0  0  0  0  0
   -0.1107   40.3697   49.5107 C   0  0  0  0  0  3  0  0  0  0  0  0
   -1.4618   40.3546   51.5099 C   0  0  0  0  0  3  0  0  0  0  0  0
    0.6291   41.4114   50.0334 C   0  0  0  0  0  3  0  0  0  0  0  0
   -0.7134   41.3971   52.0212 C   0  0  0  0  0  3  0  0  0  0  0  0
    6.9832   44.6656   50.8352 C   0  0  0  0  0  0  0  0  0  0  0  0
    7.2341   43.8200   49.8298 N   0  0  0  0  0  0  0  0  0  0  0  0
    7.9512   45.5284   51.3118 C   0  0  0  0  0  0  0  0  0  0  0  0
    8.4583   43.7935   49.2528 C   0  0  0  0  0  3  0  0  0  0  0  0
    7.9975   46.4907   52.3071 C   0  0  0  0  0  3  0  0  0  0  0  0
    9.1989   45.4731   50.6937 C   0  0  0  0  0  0  0  0  0  0  0  0
    9.4381   44.6138   49.6792 N   0  0  0  0  0  0  0  0  0  0  0  0
    9.2735   47.0079   52.2807 C   0  0  0  0  0  3  0  0  0  0  0  0
    9.9731   46.3882   51.3126 N   0  0  0  0  0  0  0  0  0  0  0  0
  1  7  1  0
  1  2  1  0
  1  6  1  0
  2  3  1  0
  3  4  1  0
  5 18  1  0
  5  4  1  0
  6  5  1  0
  7 11  1  0
  8 10  1  0
  8  9  2  0
  9 11  1  0
 10  7  2  0
 12  8  1  0
 13 14  2  0
 13 15  1  0
 14 16  1  0
 15 17  2  0
 16 12  2  0
 17 12  1  0
 18 20  2  0
 19 21  2  0
 19 18  1  0
 20 23  1  0
 20 22  1  0
 21 24  1  0
 22 25  2  0
 23 26  1  0
 24 23  2  0
 26 25  1  0
M  RAD  8   1   2   2   3   3   3   4   3   6   3   9   2  13   2  14   2
M  RAD  6  15   2  16   2  17   2  21   2  22   2  25   2
M  END
>  <REMARK>  (1) 
 SMILES c1ccc(-c2c[nH]c(C3CCCN(c4ncnc5[nH]ccc45)C3)n2)cc1
 SMILES IDX 9 1 10 2 11 3 12 4 13 5 23 6 8 7 5 8 6 9 24 10 7 11 4 13
 SMILES IDX 1 14 2 15 26 16 3 17 25 18 14 19 15 20 22 21 16 22 21 23
 SMILES IDX 18 24 17 25 20 26 19 27
 H PARENT 7 12 19 28

>  <TORSDO>  (1) 
F 3

$$$$
