/home/pchatterjee/Documents/git/vs_workflow/DiffDock/diffdock_run/pdbqt_scrubbed/Z1193314231.pdbqt
     RDKit          3D

 26 30  0  0  1  0  0  0  0  0999 V2000
    3.8793   46.7577   52.1455 C   0  0  0  0  0  3  0  0  0  0  0  0
    4.7292   47.3813   53.2007 C   0  0  0  0  0  2  0  0  0  0  0  0
    5.5139   46.4359   54.0456 C   0  0  0  0  0  2  0  0  0  0  0  0
    5.6656   45.0599   53.4311 C   0  0  0  0  0  2  0  0  0  0  0  0
    5.7367   45.2774   51.9960 N   0  0  0  0  0  0  0  0  0  0  0  0
    4.6274   45.8138   51.2264 C   0  0  0  0  0  2  0  0  0  0  0  0
    2.7896   45.9729   52.7864 C   0  0  0  0  0  0  0  0  0  0  0  0
    1.0000   44.6818   53.0382 C   0  0  0  0  0  0  0  0  0  0  0  0
    1.4683   45.0235   54.2900 C   0  0  0  0  0  3  0  0  0  0  0  0
    1.8136   45.2665   52.1470 N   0  0  0  0  0  0  0  0  0  0  0  0
    2.5487   45.8028   54.1028 N   0  0  0  0  0  0  0  0  0  0  0  0
   -0.1527   43.8487   52.6938 C   0  0  0  0  0  0  0  0  0  0  0  0
   -2.3278   42.2827   52.0867 C   0  0  0  0  0  3  0  0  0  0  0  0
   -2.1007   42.6231   53.3988 C   0  0  0  0  0  3  0  0  0  0  0  0
   -1.5021   42.6994   51.0624 C   0  0  0  0  0  3  0  0  0  0  0  0
   -1.0052   43.4101   53.6923 C   0  0  0  0  0  3  0  0  0  0  0  0
   -0.4094   43.4865   51.3700 C   0  0  0  0  0  3  0  0  0  0  0  0
    6.9250   44.9707   51.2417 C   0  0  0  0  0  0  0  0  0  0  0  0
    6.8481   44.1206   50.2119 N   0  0  0  0  0  0  0  0  0  0  0  0
    8.1199   45.5637   51.6009 C   0  0  0  0  0  0  0  0  0  0  0  0
    7.9551   43.8215   49.4927 C   0  0  0  0  0  3  0  0  0  0  0  0
    8.5101   46.4567   52.5852 C   0  0  0  0  0  3  0  0  0  0  0  0
    9.2380   45.2322   50.8380 C   0  0  0  0  0  0  0  0  0  0  0  0
    9.1454   44.3720   49.8006 N   0  0  0  0  0  0  0  0  0  0  0  0
    9.8610   46.6563   52.4076 C   0  0  0  0  0  3  0  0  0  0  0  0
   10.2751   45.9178   51.3617 N   0  0  0  0  0  0  0  0  0  0  0  0
  1  7  1  0
  1  2  1  0
  1  6  1  0
  2  3  1  0
  3  4  1  0
  5 18  1  0
  5  4  1  0
  6  5  1  0
  7 11  1  0
  8 10  1  0
  8  9  2  0
  9 11  1  0
 10  7  2  0
 12  8  1  0
 13 14  2  0
 13 15  1  0
 14 16  1  0
 15 17  2  0
 16 12  2  0
 17 12  1  0
 18 20  2  0
 19 21  2  0
 19 18  1  0
 20 23  1  0
 20 22  1  0
 21 24  1  0
 22 25  2  0
 23 26  1  0
 24 23  2  0
 26 25  1  0
M  RAD  8   1   2   2   3   3   3   4   3   6   3   9   2  13   2  14   2
M  RAD  6  15   2  16   2  17   2  21   2  22   2  25   2
M  END
>  <REMARK>  (1) 
 SMILES c1ccc(-c2c[nH]c(C3CCCN(c4ncnc5[nH]ccc45)C3)n2)cc1
 SMILES IDX 9 1 10 2 11 3 12 4 13 5 23 6 8 7 5 8 6 9 24 10 7 11 4 13
 SMILES IDX 1 14 2 15 26 16 3 17 25 18 14 19 15 20 22 21 16 22 21 23
 SMILES IDX 18 24 17 25 20 26 19 27
 H PARENT 7 12 19 28

>  <TORSDO>  (1) 
F 3

$$$$
