/home/pchatterjee/Documents/git/vs_workflow/DiffDock/diffdock_run/pdbqt_scrubbed/Z1193314231.pdbqt
     RDKit          3D

 26 30  0  0  1  0  0  0  0  0999 V2000
   14.6593   63.3941   83.5538 C   0  0  0  0  0  3  0  0  0  0  0  0
   14.7948   63.4087   82.0684 C   0  0  0  0  0  2  0  0  0  0  0  0
   13.7202   62.7049   81.3113 C   0  0  0  0  0  2  0  0  0  0  0  0
   12.4614   62.4749   82.1217 C   0  0  0  0  0  2  0  0  0  0  0  0
   12.3532   63.6195   83.0106 N   0  0  0  0  0  0  0  0  0  0  0  0
   13.3215   63.8957   84.0578 C   0  0  0  0  0  2  0  0  0  0  0  0
   14.8212   62.0016   84.0526 C   0  0  0  0  0  0  0  0  0  0  0  0
   14.7487   60.2269   85.3860 C   0  0  0  0  0  0  0  0  0  0  0  0
   15.3246   59.8486   84.1909 C   0  0  0  0  0  3  0  0  0  0  0  0
   14.4534   61.5305   85.2786 N   0  0  0  0  0  0  0  0  0  0  0  0
   15.3535   60.9426   83.4085 N   0  0  0  0  0  0  0  0  0  0  0  0
   14.4878   59.4077   86.5703 C   0  0  0  0  0  0  0  0  0  0  0  0
   13.9749   57.8996   88.8096 C   0  0  0  0  0  3  0  0  0  0  0  0
   13.4242   59.1554   88.7147 C   0  0  0  0  0  3  0  0  0  0  0  0
   14.7768   57.3686   87.8198 C   0  0  0  0  0  3  0  0  0  0  0  0
   13.6884   59.9041   87.5855 C   0  0  0  0  0  3  0  0  0  0  0  0
   15.0332   58.1285   86.6952 C   0  0  0  0  0  3  0  0  0  0  0  0
   11.2669   64.5598   82.9054 C   0  0  0  0  0  0  0  0  0  0  0  0
   10.0574   64.2199   83.3642 N   0  0  0  0  0  0  0  0  0  0  0  0
   11.5008   65.7943   82.3313 C   0  0  0  0  0  0  0  0  0  0  0  0
    9.0258   65.0915   83.2731 C   0  0  0  0  0  3  0  0  0  0  0  0
   12.6061   66.4218   81.7805 C   0  0  0  0  0  3  0  0  0  0  0  0
   10.4157   66.6652   82.2546 C   0  0  0  0  0  0  0  0  0  0  0  0
    9.1996   66.3084   82.7221 N   0  0  0  0  0  0  0  0  0  0  0  0
   12.1779   67.6665   81.3760 C   0  0  0  0  0  3  0  0  0  0  0  0
   10.8702   67.7915   81.6675 N   0  0  0  0  0  0  0  0  0  0  0  0
  1  7  1  0
  1  2  1  0
  1  6  1  0
  2  3  1  0
  3  4  1  0
  5 18  1  0
  5  4  1  0
  6  5  1  0
  7 11  1  0
  8 10  1  0
  8  9  2  0
  9 11  1  0
 10  7  2  0
 12  8  1  0
 13 14  2  0
 13 15  1  0
 14 16  1  0
 15 17  2  0
 16 12  2  0
 17 12  1  0
 18 20  2  0
 19 21  2  0
 19 18  1  0
 20 23  1  0
 20 22  1  0
 21 24  1  0
 22 25  2  0
 23 26  1  0
 24 23  2  0
 26 25  1  0
M  RAD  8   1   2   2   3   3   3   4   3   6   3   9   2  13   2  14   2
M  RAD  6  15   2  16   2  17   2  21   2  22   2  25   2
M  END
>  <REMARK>  (1) 
 SMILES c1ccc(-c2c[nH]c(C3CCCN(c4ncnc5[nH]ccc45)C3)n2)cc1
 SMILES IDX 9 1 10 2 11 3 12 4 13 5 23 6 8 7 5 8 6 9 24 10 7 11 4 13
 SMILES IDX 1 14 2 15 26 16 3 17 25 18 14 19 15 20 22 21 16 22 21 23
 SMILES IDX 18 24 17 25 20 26 19 27
 H PARENT 7 12 19 28

>  <TORSDO>  (1) 
F 3

$$$$
