/home/pchatterjee/Documents/git/vs_workflow/DiffDock/diffdock_run/pdbqt_scrubbed/Z1193314231.pdbqt
     RDKit          3D

 26 30  0  0  1  0  0  0  0  0999 V2000
    8.6500   44.0546   51.5308 C   0  0  0  0  0  3  0  0  0  0  0  0
    9.7348   44.9649   51.0624 C   0  0  0  0  0  2  0  0  0  0  0  0
    9.2880   46.1857   50.3320 C   0  0  0  0  0  2  0  0  0  0  0  0
    7.8303   46.5273   50.5613 C   0  0  0  0  0  2  0  0  0  0  0  0
    7.5436   46.1239   51.9277 N   0  0  0  0  0  0  0  0  0  0  0  0
    7.5849   44.7386   52.3633 C   0  0  0  0  0  2  0  0  0  0  0  0
    7.9665   43.4517   50.3547 C   0  0  0  0  0  0  0  0  0  0  0  0
    6.4363   42.4292   49.1114 C   0  0  0  0  0  0  0  0  0  0  0  0
    7.5079   42.7498   48.3040 C   0  0  0  0  0  3  0  0  0  0  0  0
    6.7364   42.8627   50.3443 N   0  0  0  0  0  0  0  0  0  0  0  0
    8.4139   43.3658   49.0849 N   0  0  0  0  0  0  0  0  0  0  0  0
    5.1925   41.7501   48.7461 C   0  0  0  0  0  0  0  0  0  0  0  0
    2.8402   40.4870   48.0954 C   0  0  0  0  0  3  0  0  0  0  0  0
    2.9259   41.1540   49.2942 C   0  0  0  0  0  3  0  0  0  0  0  0
    3.8940   40.4289   47.2062 C   0  0  0  0  0  3  0  0  0  0  0  0
    4.1122   41.7848   49.6108 C   0  0  0  0  0  3  0  0  0  0  0  0
    5.0754   41.0646   47.5354 C   0  0  0  0  0  3  0  0  0  0  0  0
    7.1972   47.0844   52.9438 C   0  0  0  0  0  0  0  0  0  0  0  0
    8.1492   47.8742   53.4528 N   0  0  0  0  0  0  0  0  0  0  0  0
    5.8858   47.1674   53.3701 C   0  0  0  0  0  0  0  0  0  0  0  0
    7.8408   48.7820   54.4083 C   0  0  0  0  0  3  0  0  0  0  0  0
    4.7103   46.5097   53.0473 C   0  0  0  0  0  3  0  0  0  0  0  0
    5.6058   48.1131   54.3545 C   0  0  0  0  0  0  0  0  0  0  0  0
    6.5774   48.9041   54.8595 N   0  0  0  0  0  0  0  0  0  0  0  0
    3.7307   47.0646   53.8403 C   0  0  0  0  0  3  0  0  0  0  0  0
    4.2849   48.0178   54.6116 N   0  0  0  0  0  0  0  0  0  0  0  0
  1  7  1  0
  1  2  1  0
  1  6  1  0
  2  3  1  0
  3  4  1  0
  5 18  1  0
  5  4  1  0
  6  5  1  0
  7 11  1  0
  8 10  1  0
  8  9  2  0
  9 11  1  0
 10  7  2  0
 12  8  1  0
 13 14  2  0
 13 15  1  0
 14 16  1  0
 15 17  2  0
 16 12  2  0
 17 12  1  0
 18 20  2  0
 19 21  2  0
 19 18  1  0
 20 23  1  0
 20 22  1  0
 21 24  1  0
 22 25  2  0
 23 26  1  0
 24 23  2  0
 26 25  1  0
M  RAD  8   1   2   2   3   3   3   4   3   6   3   9   2  13   2  14   2
M  RAD  6  15   2  16   2  17   2  21   2  22   2  25   2
M  END
>  <REMARK>  (1) 
 SMILES c1ccc(-c2c[nH]c(C3CCCN(c4ncnc5[nH]ccc45)C3)n2)cc1
 SMILES IDX 9 1 10 2 11 3 12 4 13 5 23 6 8 7 5 8 6 9 24 10 7 11 4 13
 SMILES IDX 1 14 2 15 26 16 3 17 25 18 14 19 15 20 22 21 16 22 21 23
 SMILES IDX 18 24 17 25 20 26 19 27
 H PARENT 7 12 19 28

>  <TORSDO>  (1) 
F 3

$$$$
