/home/pchatterjee/Documents/git/vs_workflow/DiffDock/diffdock_run/pdbqt_scrubbed/Z1193314231.pdbqt
     RDKit          3D

 26 30  0  0  1  0  0  0  0  0999 V2000
    3.5907   45.6985   51.3472 C   0  0  0  0  0  3  0  0  0  0  0  0
    4.1316   46.3129   52.5942 C   0  0  0  0  0  2  0  0  0  0  0  0
    4.9483   45.4144   53.4596 C   0  0  0  0  0  2  0  0  0  0  0  0
    5.4581   44.1826   52.7405 C   0  0  0  0  0  2  0  0  0  0  0  0
    5.7027   44.6018   51.3706 N   0  0  0  0  0  0  0  0  0  0  0  0
    4.6400   45.0343   50.4795 C   0  0  0  0  0  2  0  0  0  0  0  0
    2.5911   44.6550   51.7020 C   0  0  0  0  0  0  0  0  0  0  0  0
    1.1812   42.9488   51.5183 C   0  0  0  0  0  0  0  0  0  0  0  0
    1.1690   43.3828   52.8277 C   0  0  0  0  0  3  0  0  0  0  0  0
    2.0469   43.7318   50.8584 N   0  0  0  0  0  0  0  0  0  0  0  0
    2.0304   44.4132   52.9050 N   0  0  0  0  0  0  0  0  0  0  0  0
    0.4195   41.8545   50.9150 C   0  0  0  0  0  0  0  0  0  0  0  0
   -0.9867   39.8014   49.7490 C   0  0  0  0  0  3  0  0  0  0  0  0
    0.0665   40.3579   49.0632 C   0  0  0  0  0  3  0  0  0  0  0  0
   -1.3635   40.2371   51.0031 C   0  0  0  0  0  3  0  0  0  0  0  0
    0.7659   41.3886   49.6584 C   0  0  0  0  0  3  0  0  0  0  0  0
   -0.6552   41.2692   51.5872 C   0  0  0  0  0  3  0  0  0  0  0  0
    7.0287   44.6138   50.8078 C   0  0  0  0  0  0  0  0  0  0  0  0
    7.3121   43.8094   49.7775 N   0  0  0  0  0  0  0  0  0  0  0  0
    7.9793   45.4586   51.3473 C   0  0  0  0  0  0  0  0  0  0  0  0
    8.5530   43.8082   49.2369 C   0  0  0  0  0  3  0  0  0  0  0  0
    7.9929   46.3805   52.3810 C   0  0  0  0  0  3  0  0  0  0  0  0
    9.2451   45.4303   50.7652 C   0  0  0  0  0  0  0  0  0  0  0  0
    9.5171   44.6126   49.7249 N   0  0  0  0  0  0  0  0  0  0  0  0
    9.2675   46.9007   52.4136 C   0  0  0  0  0  3  0  0  0  0  0  0
    9.9976   46.3214   51.4429 N   0  0  0  0  0  0  0  0  0  0  0  0
  1  7  1  0
  1  2  1  0
  1  6  1  0
  2  3  1  0
  3  4  1  0
  5 18  1  0
  5  4  1  0
  6  5  1  0
  7 11  1  0
  8 10  1  0
  8  9  2  0
  9 11  1  0
 10  7  2  0
 12  8  1  0
 13 14  2  0
 13 15  1  0
 14 16  1  0
 15 17  2  0
 16 12  2  0
 17 12  1  0
 18 20  2  0
 19 21  2  0
 19 18  1  0
 20 23  1  0
 20 22  1  0
 21 24  1  0
 22 25  2  0
 23 26  1  0
 24 23  2  0
 26 25  1  0
M  RAD  8   1   2   2   3   3   3   4   3   6   3   9   2  13   2  14   2
M  RAD  6  15   2  16   2  17   2  21   2  22   2  25   2
M  END
>  <REMARK>  (1) 
 SMILES c1ccc(-c2c[nH]c(C3CCCN(c4ncnc5[nH]ccc45)C3)n2)cc1
 SMILES IDX 9 1 10 2 11 3 12 4 13 5 23 6 8 7 5 8 6 9 24 10 7 11 4 13
 SMILES IDX 1 14 2 15 26 16 3 17 25 18 14 19 15 20 22 21 16 22 21 23
 SMILES IDX 18 24 17 25 20 26 19 27
 H PARENT 7 12 19 28

>  <TORSDO>  (1) 
F 3

$$$$
