/home/pchatterjee/Documents/git/vs_workflow/DiffDock/diffdock_run/pdbqt_scrubbed/Z2272335630.pdbqt
     RDKit          3D

 23 22  0  0  1  0  0  0  0  0999 V2000
   11.0038   82.7764   71.5551 C   0  0  0  0  0  2  0  0  0  0  0  0
   11.8317   84.0082   71.6629 C   0  0  0  0  0  3  0  0  0  0  0  0
   11.6777   84.9710   70.5150 C   0  0  0  0  0  2  0  0  0  0  0  0
   12.7533   85.8599   70.5752 O   0  0  0  0  0  0  0  0  0  0  0  0
   12.3379   87.0485   69.9723 C   0  0  0  0  0  1  0  0  0  0  0  0
   11.7850   84.6807   72.9962 C   0  0  0  0  0  1  0  0  0  0  0  0
    9.3130   82.8608   73.7836 *   0  0  0  0  0  0  0  0  0  0  0  0
    9.6238   82.9657   71.9157 N   0  0  0  0  0  0  0  0  0  0  0  0
    8.6869   83.5303   70.9428 C   0  0  0  0  0  1  0  0  0  0  0  0
    9.3130   82.8608   73.7836 *   0  0  0  0  0  0  0  0  0  0  0  0
    9.2100   82.5920   73.2257 C   0  0  0  0  0  0  0  0  0  0  0  0
    8.7207   83.5073   73.9857 N   0  0  0  0  0  0  0  0  0  0  0  0
    9.3226   81.2511   73.7081 N   0  0  0  0  0  2  0  0  0  0  0  0
    8.2517   83.3354   75.3242 C   0  0  0  0  0  3  0  0  0  0  0  0
    8.8946   80.9102   75.0367 C   0  0  0  0  0  0  0  0  0  0  0  0
    8.3809   81.9368   75.7964 C   0  0  0  0  0  0  0  0  0  0  0  0
    8.9795   79.6455   75.5480 C   0  0  0  0  0  3  0  0  0  0  0  0
    7.9544   81.6662   77.0802 C   0  0  0  0  0  3  0  0  0  0  0  0
    8.5474   79.3786   76.8444 C   0  0  0  0  0  3  0  0  0  0  0  0
    8.0333   80.3977   77.6095 C   0  0  0  0  0  3  0  0  0  0  0  0
    6.8615   83.7915   75.3398 N   0  0  0  0  0  0  0  0  0  0  0  0
    6.1250   82.9192   76.2143 C   0  0  0  0  0  1  0  0  0  0  0  0
    6.2660   83.7237   74.0054 C   0  0  0  0  0  1  0  0  0  0  0  0
  2  6  1  0
  2  1  1  0
  2  3  1  0
  4  3  1  0
  4  5  1  0
  8  1  1  0
  8 11  1  0
  9  8  1  0
 11 13  1  0
 12 11  2  0
 12 14  1  0
 13 15  1  0
 14 21  1  0
 14 16  1  0
 15 17  1  0
 16 15  2  0
 16 18  1  0
 17 19  2  0
 18 20  2  0
 20 19  1  0
 22 21  1  0
 23 21  1  0
M  RAD  8   1   3   2   2   3   3   5   2   6   2   9   2  13   2  14   2
M  RAD  6  17   2  18   2  19   2  20   2  22   2  23   2
V    7 *
V   10 *
M  END
>  <REMARK>  (1) 
 SMILES COCC1CCCCN(c2nc(N(C)C)c3ccccc3n2)C1
 SMILES IDX 23 1 4 2 3 3 2 4 1 5 5 6 6 7 9 9 8 10 7 11 10 13 11 14 22 15
 SMILES IDX 12 16 21 17 16 18 20 19 17 20 19 21 18 22 13 23 14 24 15 25
 H PARENT
 Flexibility Score:   35.900

>  <TORSDO>  (1) 
F 4

$$$$
