/home/pchatterjee/Documents/git/vs_workflow/DiffDock/diffdock_run/pdbqt_scrubbed/Z2272335630.pdbqt
     RDKit          3D

 23 22  0  0  1  0  0  0  0  0999 V2000
    1.4464   58.7853   59.6270 C   0  0  0  0  0  2  0  0  0  0  0  0
    1.0471   59.2341   58.2656 C   0  0  0  0  0  3  0  0  0  0  0  0
    0.8577   58.1220   57.2678 C   0  0  0  0  0  2  0  0  0  0  0  0
    0.8524   58.7036   55.9980 O   0  0  0  0  0  0  0  0  0  0  0  0
    0.1044   57.8679   55.1668 C   0  0  0  0  0  1  0  0  0  0  0  0
   -0.0597   60.2372   58.2353 C   0  0  0  0  0  1  0  0  0  0  0  0
   -0.6343   59.6372   61.2935 *   0  0  0  0  0  0  0  0  0  0  0  0
    0.3571   58.2778   60.4185 N   0  0  0  0  0  0  0  0  0  0  0  0
   -0.0981   56.8989   60.2332 C   0  0  0  0  0  1  0  0  0  0  0  0
   -0.6343   59.6372   61.2935 *   0  0  0  0  0  0  0  0  0  0  0  0
   -0.2499   59.1466   61.3690 C   0  0  0  0  0  0  0  0  0  0  0  0
   -1.5021   59.4075   61.2315 N   0  0  0  0  0  0  0  0  0  0  0  0
    0.4831   59.7251   62.4514 N   0  0  0  0  0  2  0  0  0  0  0  0
   -2.2891   60.2501   62.0749 C   0  0  0  0  0  3  0  0  0  0  0  0
   -0.1629   60.5981   63.3922 C   0  0  0  0  0  0  0  0  0  0  0  0
   -1.5032   60.8348   63.1868 C   0  0  0  0  0  0  0  0  0  0  0  0
    0.4897   61.1776   64.4441 C   0  0  0  0  0  3  0  0  0  0  0  0
   -2.1742   61.6658   64.0601 C   0  0  0  0  0  3  0  0  0  0  0  0
   -0.1929   62.0153   65.3221 C   0  0  0  0  0  3  0  0  0  0  0  0
   -1.5311   62.2569   65.1242 C   0  0  0  0  0  3  0  0  0  0  0  0
   -3.3994   59.4310   62.5620 N   0  0  0  0  0  0  0  0  0  0  0  0
   -3.6525   59.8048   63.9274 C   0  0  0  0  0  1  0  0  0  0  0  0
   -3.0651   58.0074   62.5236 C   0  0  0  0  0  1  0  0  0  0  0  0
  2  6  1  0
  2  1  1  0
  2  3  1  0
  4  3  1  0
  4  5  1  0
  8  1  1  0
  8 11  1  0
  9  8  1  0
 11 13  1  0
 12 11  2  0
 12 14  1  0
 13 15  1  0
 14 21  1  0
 14 16  1  0
 15 17  1  0
 16 15  2  0
 16 18  1  0
 17 19  2  0
 18 20  2  0
 20 19  1  0
 22 21  1  0
 23 21  1  0
M  RAD  8   1   3   2   2   3   3   5   2   6   2   9   2  13   2  14   2
M  RAD  6  17   2  18   2  19   2  20   2  22   2  23   2
V    7 *
V   10 *
M  END
>  <REMARK>  (1) 
 SMILES COCC1CCCCN(c2nc(N(C)C)c3ccccc3n2)C1
 SMILES IDX 23 1 4 2 3 3 2 4 1 5 5 6 6 7 9 9 8 10 7 11 10 13 11 14 22 15
 SMILES IDX 12 16 21 17 16 18 20 19 17 20 19 21 18 22 13 23 14 24 15 25
 H PARENT
 Flexibility Score:   35.900

>  <TORSDO>  (1) 
F 4

$$$$
