/home/pchatterjee/Documents/git/vs_workflow/DiffDock/diffdock_run/pdbqt_scrubbed/Z2272335630.pdbqt
     RDKit          3D

 23 22  0  0  1  0  0  0  0  0999 V2000
   14.6440   88.1495   68.3333 C   0  0  0  0  0  2  0  0  0  0  0  0
   14.2986   89.3926   69.0747 C   0  0  0  0  0  3  0  0  0  0  0  0
   13.3758   90.3275   68.3380 C   0  0  0  0  0  2  0  0  0  0  0  0
   13.4443   91.5658   68.9805 O   0  0  0  0  0  0  0  0  0  0  0  0
   12.2323   92.2176   68.7462 C   0  0  0  0  0  1  0  0  0  0  0  0
   13.8984   89.1829   70.4988 C   0  0  0  0  0  1  0  0  0  0  0  0
   13.6644   86.0734   69.9342 *   0  0  0  0  0  0  0  0  0  0  0  0
   13.6165   87.1427   68.3687 N   0  0  0  0  0  0  0  0  0  0  0  0
   12.4811   87.2273   67.4485 C   0  0  0  0  0  1  0  0  0  0  0  0
   13.6644   86.0734   69.9342 *   0  0  0  0  0  0  0  0  0  0  0  0
   13.7407   86.0829   69.3111 C   0  0  0  0  0  0  0  0  0  0  0  0
   12.8109   85.9476   70.1898 N   0  0  0  0  0  0  0  0  0  0  0  0
   14.8513   85.1830   69.3054 N   0  0  0  0  0  2  0  0  0  0  0  0
   12.7522   84.9536   71.2142 C   0  0  0  0  0  3  0  0  0  0  0  0
   14.9436   84.1242   70.2725 C   0  0  0  0  0  0  0  0  0  0  0  0
   13.9154   84.0362   71.1834 C   0  0  0  0  0  0  0  0  0  0  0  0
   15.9823   83.2367   70.3123 C   0  0  0  0  0  3  0  0  0  0  0  0
   13.9525   83.0381   72.1351 C   0  0  0  0  0  3  0  0  0  0  0  0
   16.0141   82.2315   71.2752 C   0  0  0  0  0  3  0  0  0  0  0  0
   14.9917   82.1366   72.1883 C   0  0  0  0  0  3  0  0  0  0  0  0
   11.4881   84.2400   71.0295 N   0  0  0  0  0  0  0  0  0  0  0  0
   11.7230   82.8517   71.3222 C   0  0  0  0  0  1  0  0  0  0  0  0
   11.0129   84.3510   69.6505 C   0  0  0  0  0  1  0  0  0  0  0  0
  2  6  1  0
  2  1  1  0
  2  3  1  0
  4  3  1  0
  4  5  1  0
  8  1  1  0
  8 11  1  0
  9  8  1  0
 11 13  1  0
 12 11  2  0
 12 14  1  0
 13 15  1  0
 14 21  1  0
 14 16  1  0
 15 17  1  0
 16 15  2  0
 16 18  1  0
 17 19  2  0
 18 20  2  0
 20 19  1  0
 22 21  1  0
 23 21  1  0
M  RAD  8   1   3   2   2   3   3   5   2   6   2   9   2  13   2  14   2
M  RAD  6  17   2  18   2  19   2  20   2  22   2  23   2
V    7 *
V   10 *
M  END
>  <REMARK>  (1) 
 SMILES COCC1CCCCN(c2nc(N(C)C)c3ccccc3n2)C1
 SMILES IDX 23 1 4 2 3 3 2 4 1 5 5 6 6 7 9 9 8 10 7 11 10 13 11 14 22 15
 SMILES IDX 12 16 21 17 16 18 20 19 17 20 19 21 18 22 13 23 14 24 15 25
 H PARENT
 Flexibility Score:   35.900

>  <TORSDO>  (1) 
F 4

$$$$
