/home/pchatterjee/Documents/git/vs_workflow/DiffDock/diffdock_run/pdbqt_scrubbed/Z2272335630.pdbqt
     RDKit          3D

 23 22  0  0  1  0  0  0  0  0999 V2000
    4.4816   46.0260   52.4855 C   0  0  0  0  0  2  0  0  0  0  0  0
    4.5874   45.6834   53.9297 C   0  0  0  0  0  3  0  0  0  0  0  0
    3.6418   46.4393   54.8256 C   0  0  0  0  0  2  0  0  0  0  0  0
    4.1036   46.2870   56.1349 O   0  0  0  0  0  0  0  0  0  0  0  0
    2.9990   46.4199   56.9780 C   0  0  0  0  0  1  0  0  0  0  0  0
    4.6241   44.2195   54.2260 C   0  0  0  0  0  1  0  0  0  0  0  0
    3.7341   43.6330   51.2417 *   0  0  0  0  0  0  0  0  0  0  0  0
    3.3702   45.4032   51.8165 N   0  0  0  0  0  0  0  0  0  0  0  0
    2.0329   45.9886   51.9253 C   0  0  0  0  0  1  0  0  0  0  0  0
    3.7341   43.6330   51.2417 *   0  0  0  0  0  0  0  0  0  0  0  0
    3.6124   44.2215   51.0603 C   0  0  0  0  0  0  0  0  0  0  0  0
    2.9945   43.1481   51.4078 N   0  0  0  0  0  0  0  0  0  0  0  0
    4.5076   44.1987   49.9461 N   0  0  0  0  0  2  0  0  0  0  0  0
    3.1014   41.8689   50.7809 C   0  0  0  0  0  3  0  0  0  0  0  0
    4.7278   42.9872   49.2056 C   0  0  0  0  0  0  0  0  0  0  0  0
    4.0354   41.8759   49.6305 C   0  0  0  0  0  0  0  0  0  0  0  0
    5.5718   42.9093   48.1334 C   0  0  0  0  0  3  0  0  0  0  0  0
    4.2086   40.6851   48.9559 C   0  0  0  0  0  3  0  0  0  0  0  0
    5.7425   41.7046   47.4565 C   0  0  0  0  0  3  0  0  0  0  0  0
    5.0551   40.5905   47.8742 C   0  0  0  0  0  3  0  0  0  0  0  0
    1.7464   41.4861   50.3827 N   0  0  0  0  0  0  0  0  0  0  0  0
    1.8370   40.8126   49.1153 C   0  0  0  0  0  1  0  0  0  0  0  0
    0.8882   42.6603   50.2254 C   0  0  0  0  0  1  0  0  0  0  0  0
  2  6  1  0
  2  1  1  0
  2  3  1  0
  4  3  1  0
  4  5  1  0
  8  1  1  0
  8 11  1  0
  9  8  1  0
 11 13  1  0
 12 11  2  0
 12 14  1  0
 13 15  1  0
 14 21  1  0
 14 16  1  0
 15 17  1  0
 16 15  2  0
 16 18  1  0
 17 19  2  0
 18 20  2  0
 20 19  1  0
 22 21  1  0
 23 21  1  0
M  RAD  8   1   3   2   2   3   3   5   2   6   2   9   2  13   2  14   2
M  RAD  6  17   2  18   2  19   2  20   2  22   2  23   2
V    7 *
V   10 *
M  END
>  <REMARK>  (1) 
 SMILES COCC1CCCCN(c2nc(N(C)C)c3ccccc3n2)C1
 SMILES IDX 23 1 4 2 3 3 2 4 1 5 5 6 6 7 9 9 8 10 7 11 10 13 11 14 22 15
 SMILES IDX 12 16 21 17 16 18 20 19 17 20 19 21 18 22 13 23 14 24 15 25
 H PARENT
 Flexibility Score:   35.900

>  <TORSDO>  (1) 
F 4

$$$$
