/home/pchatterjee/Documents/git/vs_workflow/DiffDock/diffdock_run/pdbqt_scrubbed/Z2272335630.pdbqt
     RDKit          3D

 23 22  0  0  1  0  0  0  0  0999 V2000
   13.7349   63.1242   83.1602 C   0  0  0  0  0  2  0  0  0  0  0  0
   13.3779   61.8957   82.4002 C   0  0  0  0  0  3  0  0  0  0  0  0
   12.9967   60.7163   83.2558 C   0  0  0  0  0  2  0  0  0  0  0  0
   13.0514   59.5821   82.4426 O   0  0  0  0  0  0  0  0  0  0  0  0
   12.1648   58.6478   82.9808 C   0  0  0  0  0  1  0  0  0  0  0  0
   12.4381   62.1146   81.2596 C   0  0  0  0  0  1  0  0  0  0  0  0
   11.8491   65.0292   82.3555 *   0  0  0  0  0  0  0  0  0  0  0  0
   12.5992   63.8612   83.6477 N   0  0  0  0  0  0  0  0  0  0  0  0
   11.9332   63.4417   84.8819 C   0  0  0  0  0  1  0  0  0  0  0  0
   11.8491   65.0292   82.3555 *   0  0  0  0  0  0  0  0  0  0  0  0
   12.1551   64.9899   82.9022 C   0  0  0  0  0  0  0  0  0  0  0  0
   10.9552   64.9704   82.4391 N   0  0  0  0  0  0  0  0  0  0  0  0
   12.9933   66.1223   82.6603 N   0  0  0  0  0  2  0  0  0  0  0  0
   10.3268   65.9986   81.6717 C   0  0  0  0  0  3  0  0  0  0  0  0
   12.5113   67.2444   81.9032 C   0  0  0  0  0  0  0  0  0  0  0  0
   11.2189   67.1584   81.4372 C   0  0  0  0  0  0  0  0  0  0  0  0
   13.2694   68.3514   81.6426 C   0  0  0  0  0  3  0  0  0  0  0  0
   10.7041   68.2076   80.7041 C   0  0  0  0  0  3  0  0  0  0  0  0
   12.7442   69.4071   80.9021 C   0  0  0  0  0  3  0  0  0  0  0  0
   11.4550   69.3293   80.4332 C   0  0  0  0  0  3  0  0  0  0  0  0
    9.1153   66.3790   82.3988 N   0  0  0  0  0  0  0  0  0  0  0  0
    8.9545   67.8019   82.2663 C   0  0  0  0  0  1  0  0  0  0  0  0
    9.2258   66.0535   83.8207 C   0  0  0  0  0  1  0  0  0  0  0  0
  2  6  1  0
  2  1  1  0
  2  3  1  0
  4  3  1  0
  4  5  1  0
  8  1  1  0
  8 11  1  0
  9  8  1  0
 11 13  1  0
 12 11  2  0
 12 14  1  0
 13 15  1  0
 14 21  1  0
 14 16  1  0
 15 17  1  0
 16 15  2  0
 16 18  1  0
 17 19  2  0
 18 20  2  0
 20 19  1  0
 22 21  1  0
 23 21  1  0
M  RAD  8   1   3   2   2   3   3   5   2   6   2   9   2  13   2  14   2
M  RAD  6  17   2  18   2  19   2  20   2  22   2  23   2
V    7 *
V   10 *
M  END
>  <REMARK>  (1) 
 SMILES COCC1CCCCN(c2nc(N(C)C)c3ccccc3n2)C1
 SMILES IDX 23 1 4 2 3 3 2 4 1 5 5 6 6 7 9 9 8 10 7 11 10 13 11 14 22 15
 SMILES IDX 12 16 21 17 16 18 20 19 17 20 19 21 18 22 13 23 14 24 15 25
 H PARENT
 Flexibility Score:   35.900

>  <TORSDO>  (1) 
F 4

$$$$
