/home/pchatterjee/Documents/git/vs_workflow/DiffDock/diffdock_run/pdbqt_scrubbed/Z2272335630.pdbqt
     RDKit          3D

 23 22  0  0  1  0  0  0  0  0999 V2000
   11.6833   83.2518   71.2149 C   0  0  0  0  0  2  0  0  0  0  0  0
   12.4797   84.4958   71.3953 C   0  0  0  0  0  3  0  0  0  0  0  0
   12.3686   85.4826   70.2629 C   0  0  0  0  0  2  0  0  0  0  0  0
   13.4217   86.3895   70.4015 O   0  0  0  0  0  0  0  0  0  0  0  0
   13.0159   87.5842   69.8040 C   0  0  0  0  0  1  0  0  0  0  0  0
   12.3482   85.1355   72.7390 C   0  0  0  0  0  1  0  0  0  0  0  0
    9.8738   83.2521   73.3498 *   0  0  0  0  0  0  0  0  0  0  0  0
   10.2824   83.4070   71.5044 N   0  0  0  0  0  0  0  0  0  0  0  0
    9.3882   83.9771   70.4952 C   0  0  0  0  0  1  0  0  0  0  0  0
    9.8738   83.2521   73.3498 *   0  0  0  0  0  0  0  0  0  0  0  0
    9.8063   82.9948   72.7812 C   0  0  0  0  0  0  0  0  0  0  0  0
    9.2589   83.8826   73.5342 N   0  0  0  0  0  0  0  0  0  0  0  0
    9.9192   81.6451   73.2384 N   0  0  0  0  0  2  0  0  0  0  0  0
    8.7222   83.6702   74.8410 C   0  0  0  0  0  3  0  0  0  0  0  0
    9.4272   81.2649   74.5338 C   0  0  0  0  0  0  0  0  0  0  0  0
    8.8533   82.2635   75.2876 C   0  0  0  0  0  0  0  0  0  0  0  0
    9.5095   79.9902   75.0200 C   0  0  0  0  0  3  0  0  0  0  0  0
    8.3639   81.9547   76.5400 C   0  0  0  0  0  3  0  0  0  0  0  0
    9.0137   79.6847   76.2847 C   0  0  0  0  0  3  0  0  0  0  0  0
    8.4392   80.6756   77.0438 C   0  0  0  0  0  3  0  0  0  0  0  0
    7.3244   84.1001   74.7917 N   0  0  0  0  0  0  0  0  0  0  0  0
    6.5593   83.1938   75.6050 C   0  0  0  0  0  1  0  0  0  0  0  0
    6.8029   84.0531   73.4258 C   0  0  0  0  0  1  0  0  0  0  0  0
  2  6  1  0
  2  1  1  0
  2  3  1  0
  4  3  1  0
  4  5  1  0
  8  1  1  0
  8 11  1  0
  9  8  1  0
 11 13  1  0
 12 11  2  0
 12 14  1  0
 13 15  1  0
 14 21  1  0
 14 16  1  0
 15 17  1  0
 16 15  2  0
 16 18  1  0
 17 19  2  0
 18 20  2  0
 20 19  1  0
 22 21  1  0
 23 21  1  0
M  RAD  8   1   3   2   2   3   3   5   2   6   2   9   2  13   2  14   2
M  RAD  6  17   2  18   2  19   2  20   2  22   2  23   2
V    7 *
V   10 *
M  END
>  <REMARK>  (1) 
 SMILES COCC1CCCCN(c2nc(N(C)C)c3ccccc3n2)C1
 SMILES IDX 23 1 4 2 3 3 2 4 1 5 5 6 6 7 9 9 8 10 7 11 10 13 11 14 22 15
 SMILES IDX 12 16 21 17 16 18 20 19 17 20 19 21 18 22 13 23 14 24 15 25
 H PARENT
 Flexibility Score:   35.900

>  <TORSDO>  (1) 
F 4

$$$$
