/home/pchatterjee/Documents/git/vs_workflow/DiffDock/diffdock_run/pdbqt_scrubbed/Z2272335630.pdbqt
     RDKit          3D

 23 22  0  0  1  0  0  0  0  0999 V2000
   14.7997   88.3003   68.5357 C   0  0  0  0  0  2  0  0  0  0  0  0
   14.4366   89.5009   69.3364 C   0  0  0  0  0  3  0  0  0  0  0  0
   13.5699   90.4988   68.6144 C   0  0  0  0  0  2  0  0  0  0  0  0
   13.6253   91.6924   69.3376 O   0  0  0  0  0  0  0  0  0  0  0  0
   12.4385   92.3820   69.0832 C   0  0  0  0  0  1  0  0  0  0  0  0
   13.9582   89.2099   70.7215 C   0  0  0  0  0  1  0  0  0  0  0  0
   13.7021   86.1475   69.9474 *   0  0  0  0  0  0  0  0  0  0  0  0
   13.7550   87.3143   68.4532 N   0  0  0  0  0  0  0  0  0  0  0  0
   12.6715   87.4796   67.4829 C   0  0  0  0  0  1  0  0  0  0  0  0
   13.7021   86.1475   69.9474 *   0  0  0  0  0  0  0  0  0  0  0  0
   13.8114   86.1948   69.3310 C   0  0  0  0  0  0  0  0  0  0  0  0
   12.8343   86.0230   70.1499 N   0  0  0  0  0  0  0  0  0  0  0  0
   14.9054   85.2748   69.3251 N   0  0  0  0  0  2  0  0  0  0  0  0
   12.7047   84.9678   71.1041 C   0  0  0  0  0  3  0  0  0  0  0  0
   14.9286   84.1554   70.2257 C   0  0  0  0  0  0  0  0  0  0  0  0
   13.8523   84.0309   71.0748 C   0  0  0  0  0  0  0  0  0  0  0  0
   15.9486   83.2464   70.2623 C   0  0  0  0  0  3  0  0  0  0  0  0
   13.8222   82.9742   71.9613 C   0  0  0  0  0  3  0  0  0  0  0  0
   15.9125   82.1820   71.1591 C   0  0  0  0  0  3  0  0  0  0  0  0
   14.8418   82.0503   72.0102 C   0  0  0  0  0  3  0  0  0  0  0  0
   11.4404   84.2929   70.8090 N   0  0  0  0  0  0  0  0  0  0  0  0
   11.6360   82.8845   71.0238 C   0  0  0  0  0  1  0  0  0  0  0  0
   11.0406   84.5003   69.4172 C   0  0  0  0  0  1  0  0  0  0  0  0
  2  6  1  0
  2  1  1  0
  2  3  1  0
  4  3  1  0
  4  5  1  0
  8  1  1  0
  8 11  1  0
  9  8  1  0
 11 13  1  0
 12 11  2  0
 12 14  1  0
 13 15  1  0
 14 21  1  0
 14 16  1  0
 15 17  1  0
 16 15  2  0
 16 18  1  0
 17 19  2  0
 18 20  2  0
 20 19  1  0
 22 21  1  0
 23 21  1  0
M  RAD  8   1   3   2   2   3   3   5   2   6   2   9   2  13   2  14   2
M  RAD  6  17   2  18   2  19   2  20   2  22   2  23   2
V    7 *
V   10 *
M  END
>  <REMARK>  (1) 
 SMILES COCC1CCCCN(c2nc(N(C)C)c3ccccc3n2)C1
 SMILES IDX 23 1 4 2 3 3 2 4 1 5 5 6 6 7 9 9 8 10 7 11 10 13 11 14 22 15
 SMILES IDX 12 16 21 17 16 18 20 19 17 20 19 21 18 22 13 23 14 24 15 25
 H PARENT
 Flexibility Score:   35.900

>  <TORSDO>  (1) 
F 4

$$$$
