/home/pchatterjee/Documents/git/vs_workflow/DiffDock/diffdock_run/pdbqt_scrubbed/Z2272335630.pdbqt
     RDKit          3D

 23 22  0  0  1  0  0  0  0  0999 V2000
    3.4974   46.0608   53.6724 C   0  0  0  0  0  2  0  0  0  0  0  0
    3.2462   47.4840   53.3176 C   0  0  0  0  0  3  0  0  0  0  0  0
    3.6512   48.4761   54.3759 C   0  0  0  0  0  2  0  0  0  0  0  0
    3.0325   49.6885   54.0628 O   0  0  0  0  0  0  0  0  0  0  0  0
    3.8225   50.7043   54.6040 C   0  0  0  0  0  1  0  0  0  0  0  0
    3.6963   47.8779   51.9485 C   0  0  0  0  0  1  0  0  0  0  0  0
    5.3037   45.1551   51.7361 *   0  0  0  0  0  0  0  0  0  0  0  0
    4.8677   45.6514   53.5138 N   0  0  0  0  0  0  0  0  0  0  0  0
    5.8450   45.9549   54.5606 C   0  0  0  0  0  1  0  0  0  0  0  0
    5.3037   45.1551   51.7361 *   0  0  0  0  0  0  0  0  0  0  0  0
    5.2320   44.9549   52.3268 C   0  0  0  0  0  0  0  0  0  0  0  0
    6.1224   45.4876   51.5663 N   0  0  0  0  0  0  0  0  0  0  0  0
    4.6445   43.7027   51.9661 N   0  0  0  0  0  2  0  0  0  0  0  0
    6.6204   44.9495   50.3402 C   0  0  0  0  0  3  0  0  0  0  0  0
    5.0368   43.0277   50.7598 C   0  0  0  0  0  0  0  0  0  0  0  0
    5.9937   43.6525   49.9926 C   0  0  0  0  0  0  0  0  0  0  0  0
    4.5079   41.8300   50.3676 C   0  0  0  0  0  3  0  0  0  0  0  0
    6.4081   43.0490   48.8232 C   0  0  0  0  0  3  0  0  0  0  0  0
    4.9302   41.2258   49.1864 C   0  0  0  0  0  3  0  0  0  0  0  0
    5.8850   41.8429   48.4146 C   0  0  0  0  0  3  0  0  0  0  0  0
    8.0705   44.8315   50.4963 N   0  0  0  0  0  0  0  0  0  0  0  0
    8.4844   43.6228   49.8362 C   0  0  0  0  0  1  0  0  0  0  0  0
    8.4468   44.7436   51.9071 C   0  0  0  0  0  1  0  0  0  0  0  0
  2  6  1  0
  2  1  1  0
  2  3  1  0
  4  3  1  0
  4  5  1  0
  8  1  1  0
  8 11  1  0
  9  8  1  0
 11 13  1  0
 12 11  2  0
 12 14  1  0
 13 15  1  0
 14 21  1  0
 14 16  1  0
 15 17  1  0
 16 15  2  0
 16 18  1  0
 17 19  2  0
 18 20  2  0
 20 19  1  0
 22 21  1  0
 23 21  1  0
M  RAD  8   1   3   2   2   3   3   5   2   6   2   9   2  13   2  14   2
M  RAD  6  17   2  18   2  19   2  20   2  22   2  23   2
V    7 *
V   10 *
M  END
>  <REMARK>  (1) 
 SMILES COCC1CCCCN(c2nc(N(C)C)c3ccccc3n2)C1
 SMILES IDX 23 1 4 2 3 3 2 4 1 5 5 6 6 7 9 9 8 10 7 11 10 13 11 14 22 15
 SMILES IDX 12 16 21 17 16 18 20 19 17 20 19 21 18 22 13 23 14 24 15 25
 H PARENT
 Flexibility Score:   35.900

>  <TORSDO>  (1) 
F 4

$$$$
