/home/pchatterjee/Documents/git/vs_workflow/DiffDock/diffdock_run/pdbqt_scrubbed/Z2272335630.pdbqt
     RDKit          3D

 23 22  0  0  1  0  0  0  0  0999 V2000
    4.1940   68.9498   82.9728 C   0  0  0  0  0  2  0  0  0  0  0  0
    4.0499   69.7694   84.2064 C   0  0  0  0  0  3  0  0  0  0  0  0
    2.6316   70.1394   84.5527 C   0  0  0  0  0  2  0  0  0  0  0  0
    2.6922   71.1783   85.4843 O   0  0  0  0  0  0  0  0  0  0  0  0
    1.5218   71.1183   86.2428 C   0  0  0  0  0  1  0  0  0  0  0  0
    4.8254   69.2734   85.3831 C   0  0  0  0  0  1  0  0  0  0  0  0
    5.3441   66.5519   83.8445 *   0  0  0  0  0  0  0  0  0  0  0  0
    3.8890   67.5558   83.1577 N   0  0  0  0  0  0  0  0  0  0  0  0
    2.4959   67.1063   83.1438 C   0  0  0  0  0  1  0  0  0  0  0  0
    5.3441   66.5519   83.8445 *   0  0  0  0  0  0  0  0  0  0  0  0
    4.9682   66.6476   83.3509 C   0  0  0  0  0  0  0  0  0  0  0  0
    5.0032   65.9804   84.4502 N   0  0  0  0  0  0  0  0  0  0  0  0
    5.9939   66.4622   82.3726 N   0  0  0  0  0  2  0  0  0  0  0  0
    5.9963   65.0265   84.8305 C   0  0  0  0  0  3  0  0  0  0  0  0
    7.0686   65.5363   82.6017 C   0  0  0  0  0  0  0  0  0  0  0  0
    7.0453   64.8556   83.7979 C   0  0  0  0  0  0  0  0  0  0  0  0
    8.0739   65.3204   81.7013 C   0  0  0  0  0  3  0  0  0  0  0  0
    8.0530   63.9537   84.0706 C   0  0  0  0  0  3  0  0  0  0  0  0
    9.0882   64.4089   81.9822 C   0  0  0  0  0  3  0  0  0  0  0  0
    9.0725   63.7252   83.1740 C   0  0  0  0  0  3  0  0  0  0  0  0
    5.2886   63.7752   85.1031 N   0  0  0  0  0  0  0  0  0  0  0  0
    6.1107   62.6953   84.6277 C   0  0  0  0  0  1  0  0  0  0  0  0
    4.0060   63.7275   84.4011 C   0  0  0  0  0  1  0  0  0  0  0  0
  2  6  1  0
  2  1  1  0
  2  3  1  0
  4  3  1  0
  4  5  1  0
  8  1  1  0
  8 11  1  0
  9  8  1  0
 11 13  1  0
 12 11  2  0
 12 14  1  0
 13 15  1  0
 14 21  1  0
 14 16  1  0
 15 17  1  0
 16 15  2  0
 16 18  1  0
 17 19  2  0
 18 20  2  0
 20 19  1  0
 22 21  1  0
 23 21  1  0
M  RAD  8   1   3   2   2   3   3   5   2   6   2   9   2  13   2  14   2
M  RAD  6  17   2  18   2  19   2  20   2  22   2  23   2
V    7 *
V   10 *
M  END
>  <REMARK>  (1) 
 SMILES COCC1CCCCN(c2nc(N(C)C)c3ccccc3n2)C1
 SMILES IDX 23 1 4 2 3 3 2 4 1 5 5 6 6 7 9 9 8 10 7 11 10 13 11 14 22 15
 SMILES IDX 12 16 21 17 16 18 20 19 17 20 19 21 18 22 13 23 14 24 15 25
 H PARENT
 Flexibility Score:   35.900

>  <TORSDO>  (1) 
F 4

$$$$
