/home/pchatterjee/Documents/git/vs_workflow/DiffDock/diffdock_run/pdbqt_scrubbed/Z2272335630.pdbqt
     RDKit          3D

 23 22  0  0  1  0  0  0  0  0999 V2000
    6.6118   62.3960   81.8430 C   0  0  0  0  0  2  0  0  0  0  0  0
    5.4948   62.3561   80.8607 C   0  0  0  0  0  3  0  0  0  0  0  0
    4.2586   61.6442   81.3438 C   0  0  0  0  0  2  0  0  0  0  0  0
    3.4721   61.3758   80.2213 O   0  0  0  0  0  0  0  0  0  0  0  0
    2.1477   61.3012   80.6562 C   0  0  0  0  0  1  0  0  0  0  0  0
    5.1932   63.6620   80.2005 C   0  0  0  0  0  1  0  0  0  0  0  0
    7.0280   65.1196   82.3339 *   0  0  0  0  0  0  0  0  0  0  0  0
    6.4538   63.3930   82.8684 N   0  0  0  0  0  0  0  0  0  0  0  0
    5.6076   63.1160   84.0303 C   0  0  0  0  0  1  0  0  0  0  0  0
    7.0280   65.1196   82.3339 *   0  0  0  0  0  0  0  0  0  0  0  0
    7.1359   64.6334   82.7161 C   0  0  0  0  0  0  0  0  0  0  0  0
    6.4278   65.7059   82.6590 N   0  0  0  0  0  0  0  0  0  0  0  0
    8.5602   64.7151   82.6267 N   0  0  0  0  0  2  0  0  0  0  0  0
    6.9201   67.0386   82.5091 C   0  0  0  0  0  3  0  0  0  0  0  0
    9.2148   65.9849   82.4732 C   0  0  0  0  0  0  0  0  0  0  0  0
    8.3982   67.0917   82.4192 C   0  0  0  0  0  0  0  0  0  0  0  0
   10.5719   66.1203   82.3828 C   0  0  0  0  0  3  0  0  0  0  0  0
    8.9733   68.3372   82.2725 C   0  0  0  0  0  3  0  0  0  0  0  0
   11.1464   67.3798   82.2348 C   0  0  0  0  0  3  0  0  0  0  0  0
   10.3384   68.4899   82.1800 C   0  0  0  0  0  3  0  0  0  0  0  0
    6.4141   67.8000   83.6516 N   0  0  0  0  0  0  0  0  0  0  0  0
    7.4464   68.7145   84.0592 C   0  0  0  0  0  1  0  0  0  0  0  0
    6.1000   66.9208   84.7778 C   0  0  0  0  0  1  0  0  0  0  0  0
  2  6  1  0
  2  1  1  0
  2  3  1  0
  4  3  1  0
  4  5  1  0
  8  1  1  0
  8 11  1  0
  9  8  1  0
 11 13  1  0
 12 11  2  0
 12 14  1  0
 13 15  1  0
 14 21  1  0
 14 16  1  0
 15 17  1  0
 16 15  2  0
 16 18  1  0
 17 19  2  0
 18 20  2  0
 20 19  1  0
 22 21  1  0
 23 21  1  0
M  RAD  8   1   3   2   2   3   3   5   2   6   2   9   2  13   2  14   2
M  RAD  6  17   2  18   2  19   2  20   2  22   2  23   2
V    7 *
V   10 *
M  END
>  <REMARK>  (1) 
 SMILES COCC1CCCCN(c2nc(N(C)C)c3ccccc3n2)C1
 SMILES IDX 23 1 4 2 3 3 2 4 1 5 5 6 6 7 9 9 8 10 7 11 10 13 11 14 22 15
 SMILES IDX 12 16 21 17 16 18 20 19 17 20 19 21 18 22 13 23 14 24 15 25
 H PARENT
 Flexibility Score:   35.900

>  <TORSDO>  (1) 
F 4

$$$$
