/home/pchatterjee/Documents/git/vs_workflow/DiffDock/diffdock_run/pdbqt_scrubbed/Z1635228855.pdbqt
     RDKit          3D

 27 30  0  0  1  0  0  0  0  0999 V2000
    7.0404   43.5405   49.8166 N   0  0  0  0  0  0  0  0  0  0  0  0
    8.1553   44.2799   50.2810 C   0  0  0  0  0  0  0  0  0  0  0  0
    9.2820   43.9938   49.8011 O   0  0  0  0  0  0  0  0  0  0  0  0
    7.0931   42.6427   48.6763 C   0  0  0  0  0  2  0  0  0  0  0  0
    5.7816   41.9832   48.4461 C   0  0  0  0  0  0  0  0  0  0  0  0
    4.1729   40.8531   47.0260 C   0  0  0  0  0  3  0  0  0  0  0  0
    5.4249   41.5003   47.3079 N   0  0  0  0  0  0  0  0  0  0  0  0
    3.2791   40.7786   48.1983 C   0  0  0  0  0  0  0  0  0  0  0  0
    2.0567   40.1805   48.0430 C   0  0  0  0  0  3  0  0  0  0  0  0
    3.6218   41.2794   49.4230 C   0  0  0  0  0  0  0  0  0  0  0  0
    4.8992   41.8999   49.5694 N   0  0  0  0  0  2  0  0  0  0  0  0
    1.2194   40.1106   49.1408 C   0  0  0  0  0  3  0  0  0  0  0  0
    2.7852   41.2106   50.5238 C   0  0  0  0  0  3  0  0  0  0  0  0
    1.5583   40.6149   50.3839 C   0  0  0  0  0  3  0  0  0  0  0  0
    4.3710   39.4614   46.4411 C   0  0  0  0  0  1  0  0  0  0  0  0
    8.0917   45.3403   51.2675 C   0  0  0  0  0  0  0  0  0  0  0  0
    6.9451   45.6449   51.9719 C   0  0  0  0  0  3  0  0  0  0  0  0
    9.0429   46.2235   51.7145 C   0  0  0  0  0  0  0  0  0  0  0  0
    7.2477   46.6849   52.8032 N   0  0  0  0  0  0  0  0  0  0  0  0
    8.5063   47.0343   52.6508 N   0  0  0  0  0  0  0  0  0  0  0  0
   10.4485   46.2960   51.2557 C   0  0  0  0  0  1  0  0  0  0  0  0
    9.2385   48.0976   53.3429 C   0  0  0  0  0  3  0  0  0  0  0  0
   10.2152   47.3897   54.2840 C   0  0  0  0  0  2  0  0  0  0  0  0
    8.2076   48.8986   54.1257 C   0  0  0  0  0  2  0  0  0  0  0  0
    9.8647   47.7238   55.7290 C   0  0  0  0  0  2  0  0  0  0  0  0
    8.8924   49.9005   55.0375 C   0  0  0  0  0  2  0  0  0  0  0  0
   10.0035   49.2367   55.8377 C   0  0  0  0  0  2  0  0  0  0  0  0
  1  4  1  0
  2  3  2  0
  2  1  1  0
  4  5  1  0
  5  7  2  0
  6 15  1  0
  7  6  1  0
  8  6  1  0
  8  9  2  0
 10  8  1  0
 11  5  1  0
 11 10  1  0
 12  9  1  0
 13 10  2  0
 13 14  1  0
 14 12  2  0
 16  2  1  0
 17 16  1  0
 18 16  2  0
 19 17  2  0
 20 19  1  0
 20 18  1  0
 21 18  1  0
 22 23  1  0
 22 20  1  0
 24 22  1  0
 25 23  1  0
 26 27  1  0
 26 24  1  0
 27 25  1  0
M  RAD  8   4   3   6   2   9   2  11   2  12   2  13   2  14   2  15   2
M  RAD  8  17   2  21   2  22   2  23   3  24   3  25   3  26   3  27   3
M  END
>  <REMARK>  (1) 
 SMILES Cc1nc(CNC(=O)c2cnn(C3CCCCC3)c2C)nc2ccccc12
 SMILES IDX 6 1 7 2 8 3 5 5 4 6 2 7 3 8 27 9 26 10 22 11 21 12 25 13
 SMILES IDX 23 14 24 15 1 16 9 17 10 18 19 19 11 20 12 21 20 22 13 23
 SMILES IDX 14 24 18 25 15 26 17 27 16 28
 H PARENT 6 4

>  <TORSDO>  (1) 
F 4

$$$$
