/home/pchatterjee/Documents/git/vs_workflow/DiffDock/diffdock_run/pdbqt_scrubbed/Z1635228855.pdbqt
     RDKit          3D

 27 30  0  0  1  0  0  0  0  0999 V2000
    7.0290   43.5959   49.5275 N   0  0  0  0  0  0  0  0  0  0  0  0
    8.1305   44.3660   49.9735 C   0  0  0  0  0  0  0  0  0  0  0  0
    9.2021   44.2782   49.3210 O   0  0  0  0  0  0  0  0  0  0  0  0
    7.0825   42.7132   48.3755 C   0  0  0  0  0  2  0  0  0  0  0  0
    5.7759   42.0439   48.1459 C   0  0  0  0  0  0  0  0  0  0  0  0
    4.1903   40.8686   46.7364 C   0  0  0  0  0  3  0  0  0  0  0  0
    5.4368   41.5269   47.0173 N   0  0  0  0  0  0  0  0  0  0  0  0
    3.2798   40.8263   47.8974 C   0  0  0  0  0  0  0  0  0  0  0  0
    2.0609   40.2209   47.7420 C   0  0  0  0  0  3  0  0  0  0  0  0
    3.6035   41.3637   49.1117 C   0  0  0  0  0  0  0  0  0  0  0  0
    4.8773   41.9914   49.2582 N   0  0  0  0  0  2  0  0  0  0  0  0
    1.2080   40.1811   48.8291 C   0  0  0  0  0  3  0  0  0  0  0  0
    2.7511   41.3252   50.2018 C   0  0  0  0  0  3  0  0  0  0  0  0
    1.5276   40.7226   50.0617 C   0  0  0  0  0  3  0  0  0  0  0  0
    4.3998   39.4608   46.1956 C   0  0  0  0  0  1  0  0  0  0  0  0
    8.1121   45.2463   51.1252 C   0  0  0  0  0  0  0  0  0  0  0  0
    6.9550   45.5807   51.7982 C   0  0  0  0  0  3  0  0  0  0  0  0
    9.1218   45.9069   51.7801 C   0  0  0  0  0  0  0  0  0  0  0  0
    7.3096   46.4177   52.8171 N   0  0  0  0  0  0  0  0  0  0  0  0
    8.6097   46.6152   52.8086 N   0  0  0  0  0  0  0  0  0  0  0  0
   10.5599   45.8651   51.4312 C   0  0  0  0  0  1  0  0  0  0  0  0
    9.4037   47.4402   53.7221 C   0  0  0  0  0  3  0  0  0  0  0  0
    8.7651   47.2709   55.1020 C   0  0  0  0  0  2  0  0  0  0  0  0
    9.2781   48.8763   53.2334 C   0  0  0  0  0  2  0  0  0  0  0  0
    8.2122   48.6095   55.5764 C   0  0  0  0  0  2  0  0  0  0  0  0
    9.9012   49.8349   54.2320 C   0  0  0  0  0  2  0  0  0  0  0  0
    9.4154   49.5411   55.6437 C   0  0  0  0  0  2  0  0  0  0  0  0
  1  4  1  0
  2  3  2  0
  2  1  1  0
  4  5  1  0
  5  7  2  0
  6 15  1  0
  7  6  1  0
  8  6  1  0
  8  9  2  0
 10  8  1  0
 11  5  1  0
 11 10  1  0
 12  9  1  0
 13 10  2  0
 13 14  1  0
 14 12  2  0
 16  2  1  0
 17 16  1  0
 18 16  2  0
 19 17  2  0
 20 19  1  0
 20 18  1  0
 21 18  1  0
 22 23  1  0
 22 20  1  0
 24 22  1  0
 25 23  1  0
 26 27  1  0
 26 24  1  0
 27 25  1  0
M  RAD  8   4   3   6   2   9   2  11   2  12   2  13   2  14   2  15   2
M  RAD  8  17   2  21   2  22   2  23   3  24   3  25   3  26   3  27   3
M  END
>  <REMARK>  (1) 
 SMILES Cc1nc(CNC(=O)c2cnn(C3CCCCC3)c2C)nc2ccccc12
 SMILES IDX 6 1 7 2 8 3 5 5 4 6 2 7 3 8 27 9 26 10 22 11 21 12 25 13
 SMILES IDX 23 14 24 15 1 16 9 17 10 18 19 19 11 20 12 21 20 22 13 23
 SMILES IDX 14 24 18 25 15 26 17 27 16 28
 H PARENT 6 4

>  <TORSDO>  (1) 
F 4

$$$$
