/home/pchatterjee/Documents/git/vs_workflow/DiffDock/diffdock_run/pdbqt_scrubbed/Z1635228855.pdbqt
     RDKit          3D

 27 30  0  0  1  0  0  0  0  0999 V2000
    7.1296   43.6568   49.7628 N   0  0  0  0  0  0  0  0  0  0  0  0
    8.2508   44.3844   50.2310 C   0  0  0  0  0  0  0  0  0  0  0  0
    9.3717   44.1073   49.7327 O   0  0  0  0  0  0  0  0  0  0  0  0
    7.1994   42.6801   48.6903 C   0  0  0  0  0  2  0  0  0  0  0  0
    5.8544   42.1407   48.3618 C   0  0  0  0  0  0  0  0  0  0  0  0
    4.2816   41.0863   46.8463 C   0  0  0  0  0  3  0  0  0  0  0  0
    5.5615   41.6227   47.2208 N   0  0  0  0  0  0  0  0  0  0  0  0
    3.2749   41.1774   47.9220 C   0  0  0  0  0  0  0  0  0  0  0  0
    2.0172   40.6951   47.6736 C   0  0  0  0  0  3  0  0  0  0  0  0
    3.5474   41.7203   49.1464 C   0  0  0  0  0  0  0  0  0  0  0  0
    4.8627   42.2188   49.3903 N   0  0  0  0  0  2  0  0  0  0  0  0
    1.0742   40.7803   48.6808 C   0  0  0  0  0  3  0  0  0  0  0  0
    2.6048   41.8067   50.1566 C   0  0  0  0  0  3  0  0  0  0  0  0
    1.3415   41.3282   49.9229 C   0  0  0  0  0  3  0  0  0  0  0  0
    4.3879   39.6467   46.3621 C   0  0  0  0  0  1  0  0  0  0  0  0
    8.1996   45.4232   51.2410 C   0  0  0  0  0  0  0  0  0  0  0  0
    7.0944   45.6455   52.0363 C   0  0  0  0  0  3  0  0  0  0  0  0
    9.1275   46.3561   51.6325 C   0  0  0  0  0  0  0  0  0  0  0  0
    7.3970   46.6889   52.8634 N   0  0  0  0  0  0  0  0  0  0  0  0
    8.6168   47.1174   52.6232 N   0  0  0  0  0  0  0  0  0  0  0  0
   10.4867   46.5222   51.0701 C   0  0  0  0  0  1  0  0  0  0  0  0
    9.3348   48.2127   53.2794 C   0  0  0  0  0  3  0  0  0  0  0  0
   10.2679   47.5522   54.2962 C   0  0  0  0  0  2  0  0  0  0  0  0
    8.2847   49.0675   53.9748 C   0  0  0  0  0  2  0  0  0  0  0  0
    9.8678   47.9734   55.7051 C   0  0  0  0  0  2  0  0  0  0  0  0
    8.9465   50.1148   54.8521 C   0  0  0  0  0  2  0  0  0  0  0  0
   10.0196   49.4888   55.7307 C   0  0  0  0  0  2  0  0  0  0  0  0
  1  4  1  0
  2  3  2  0
  2  1  1  0
  4  5  1  0
  5  7  2  0
  6 15  1  0
  7  6  1  0
  8  6  1  0
  8  9  2  0
 10  8  1  0
 11  5  1  0
 11 10  1  0
 12  9  1  0
 13 10  2  0
 13 14  1  0
 14 12  2  0
 16  2  1  0
 17 16  1  0
 18 16  2  0
 19 17  2  0
 20 19  1  0
 20 18  1  0
 21 18  1  0
 22 23  1  0
 22 20  1  0
 24 22  1  0
 25 23  1  0
 26 27  1  0
 26 24  1  0
 27 25  1  0
M  RAD  8   4   3   6   2   9   2  11   2  12   2  13   2  14   2  15   2
M  RAD  8  17   2  21   2  22   2  23   3  24   3  25   3  26   3  27   3
M  END
>  <REMARK>  (1) 
 SMILES Cc1nc(CNC(=O)c2cnn(C3CCCCC3)c2C)nc2ccccc12
 SMILES IDX 6 1 7 2 8 3 5 5 4 6 2 7 3 8 27 9 26 10 22 11 21 12 25 13
 SMILES IDX 23 14 24 15 1 16 9 17 10 18 19 19 11 20 12 21 20 22 13 23
 SMILES IDX 14 24 18 25 15 26 17 27 16 28
 H PARENT 6 4

>  <TORSDO>  (1) 
F 4

$$$$
