/home/pchatterjee/Documents/git/vs_workflow/DiffDock/diffdock_run/pdbqt_scrubbed/Z1635228855.pdbqt
     RDKit          3D

 27 30  0  0  1  0  0  0  0  0999 V2000
    7.2400   43.4481   49.8277 N   0  0  0  0  0  0  0  0  0  0  0  0
    8.2993   44.2691   50.2851 C   0  0  0  0  0  0  0  0  0  0  0  0
    9.4275   44.1114   49.7521 O   0  0  0  0  0  0  0  0  0  0  0  0
    7.2914   42.6891   48.5906 C   0  0  0  0  0  2  0  0  0  0  0  0
    6.0046   41.9935   48.3290 C   0  0  0  0  0  0  0  0  0  0  0  0
    4.4810   40.7811   46.8831 C   0  0  0  0  0  3  0  0  0  0  0  0
    5.7065   41.4648   47.1944 N   0  0  0  0  0  0  0  0  0  0  0  0
    3.5400   40.7268   48.0191 C   0  0  0  0  0  0  0  0  0  0  0  0
    2.3377   40.0972   47.8338 C   0  0  0  0  0  3  0  0  0  0  0  0
    3.8201   41.2762   49.2388 C   0  0  0  0  0  0  0  0  0  0  0  0
    5.0771   41.9291   49.4167 N   0  0  0  0  0  2  0  0  0  0  0  0
    1.4562   40.0462   48.8974 C   0  0  0  0  0  3  0  0  0  0  0  0
    2.9391   41.2265   50.3055 C   0  0  0  0  0  3  0  0  0  0  0  0
    1.7317   40.5996   50.1353 C   0  0  0  0  0  3  0  0  0  0  0  0
    4.7322   39.3751   46.3557 C   0  0  0  0  0  1  0  0  0  0  0  0
    8.1773   45.2760   51.3209 C   0  0  0  0  0  0  0  0  0  0  0  0
    7.0409   45.4333   52.0873 C   0  0  0  0  0  3  0  0  0  0  0  0
    9.0560   46.2322   51.7665 C   0  0  0  0  0  0  0  0  0  0  0  0
    7.2775   46.4635   52.9515 N   0  0  0  0  0  0  0  0  0  0  0  0
    8.4864   46.9450   52.7612 N   0  0  0  0  0  0  0  0  0  0  0  0
   10.4240   46.4659   51.2514 C   0  0  0  0  0  1  0  0  0  0  0  0
    9.1411   48.0477   53.4691 C   0  0  0  0  0  3  0  0  0  0  0  0
   10.1942   47.4003   54.3705 C   0  0  0  0  0  2  0  0  0  0  0  0
    8.0635   48.7369   54.2942 C   0  0  0  0  0  2  0  0  0  0  0  0
    9.8482   47.6646   55.8310 C   0  0  0  0  0  2  0  0  0  0  0  0
    8.6809   49.7686   55.2208 C   0  0  0  0  0  2  0  0  0  0  0  0
    9.8611   49.1803   55.9801 C   0  0  0  0  0  2  0  0  0  0  0  0
  1  4  1  0
  2  3  2  0
  2  1  1  0
  4  5  1  0
  5  7  2  0
  6 15  1  0
  7  6  1  0
  8  6  1  0
  8  9  2  0
 10  8  1  0
 11  5  1  0
 11 10  1  0
 12  9  1  0
 13 10  2  0
 13 14  1  0
 14 12  2  0
 16  2  1  0
 17 16  1  0
 18 16  2  0
 19 17  2  0
 20 19  1  0
 20 18  1  0
 21 18  1  0
 22 23  1  0
 22 20  1  0
 24 22  1  0
 25 23  1  0
 26 27  1  0
 26 24  1  0
 27 25  1  0
M  RAD  8   4   3   6   2   9   2  11   2  12   2  13   2  14   2  15   2
M  RAD  8  17   2  21   2  22   2  23   3  24   3  25   3  26   3  27   3
M  END
>  <REMARK>  (1) 
 SMILES Cc1nc(CNC(=O)c2cnn(C3CCCCC3)c2C)nc2ccccc12
 SMILES IDX 6 1 7 2 8 3 5 5 4 6 2 7 3 8 27 9 26 10 22 11 21 12 25 13
 SMILES IDX 23 14 24 15 1 16 9 17 10 18 19 19 11 20 12 21 20 22 13 23
 SMILES IDX 14 24 18 25 15 26 17 27 16 28
 H PARENT 6 4

>  <TORSDO>  (1) 
F 4

$$$$
