/home/pchatterjee/Documents/git/vs_workflow/DiffDock/diffdock_run/pdbqt_scrubbed/Z1635228855.pdbqt
     RDKit          3D

 27 30  0  0  1  0  0  0  0  0999 V2000
    7.0266   43.5199   49.7722 N   0  0  0  0  0  0  0  0  0  0  0  0
    8.1025   44.3147   50.2371 C   0  0  0  0  0  0  0  0  0  0  0  0
    9.2246   44.1470   49.6945 O   0  0  0  0  0  0  0  0  0  0  0  0
    7.0954   42.6986   48.5764 C   0  0  0  0  0  2  0  0  0  0  0  0
    5.8162   41.9809   48.3389 C   0  0  0  0  0  0  0  0  0  0  0  0
    4.3035   40.7087   46.9335 C   0  0  0  0  0  3  0  0  0  0  0  0
    5.5216   41.4153   47.2212 N   0  0  0  0  0  0  0  0  0  0  0  0
    3.3657   40.6773   48.0730 C   0  0  0  0  0  0  0  0  0  0  0  0
    2.1703   40.0287   47.9096 C   0  0  0  0  0  3  0  0  0  0  0  0
    3.6421   41.2659   49.2752 C   0  0  0  0  0  0  0  0  0  0  0  0
    4.8920   41.9381   49.4304 N   0  0  0  0  0  2  0  0  0  0  0  0
    1.2919   39.9992   48.9765 C   0  0  0  0  0  3  0  0  0  0  0  0
    2.7641   41.2377   50.3451 C   0  0  0  0  0  3  0  0  0  0  0  0
    1.5637   40.5923   50.1967 C   0  0  0  0  0  3  0  0  0  0  0  0
    4.5697   39.2906   46.4474 C   0  0  0  0  0  1  0  0  0  0  0  0
    8.0039   45.3053   51.2910 C   0  0  0  0  0  0  0  0  0  0  0  0
    6.8854   45.4498   52.0856 C   0  0  0  0  0  3  0  0  0  0  0  0
    8.8922   46.2550   51.7310 C   0  0  0  0  0  0  0  0  0  0  0  0
    7.1414   46.4667   52.9601 N   0  0  0  0  0  0  0  0  0  0  0  0
    8.3454   46.9519   52.7495 N   0  0  0  0  0  0  0  0  0  0  0  0
   10.2479   46.4978   51.1884 C   0  0  0  0  0  1  0  0  0  0  0  0
    9.0157   48.0440   53.4593 C   0  0  0  0  0  3  0  0  0  0  0  0
   10.0768   47.3820   54.3405 C   0  0  0  0  0  2  0  0  0  0  0  0
    7.9531   48.7314   54.3050 C   0  0  0  0  0  2  0  0  0  0  0  0
    9.7515   47.6341   55.8079 C   0  0  0  0  0  2  0  0  0  0  0  0
    8.5886   49.7506   55.2333 C   0  0  0  0  0  2  0  0  0  0  0  0
    9.7752   49.1483   55.9712 C   0  0  0  0  0  2  0  0  0  0  0  0
  1  4  1  0
  2  3  2  0
  2  1  1  0
  4  5  1  0
  5  7  2  0
  6 15  1  0
  7  6  1  0
  8  6  1  0
  8  9  2  0
 10  8  1  0
 11  5  1  0
 11 10  1  0
 12  9  1  0
 13 10  2  0
 13 14  1  0
 14 12  2  0
 16  2  1  0
 17 16  1  0
 18 16  2  0
 19 17  2  0
 20 19  1  0
 20 18  1  0
 21 18  1  0
 22 23  1  0
 22 20  1  0
 24 22  1  0
 25 23  1  0
 26 27  1  0
 26 24  1  0
 27 25  1  0
M  RAD  8   4   3   6   2   9   2  11   2  12   2  13   2  14   2  15   2
M  RAD  8  17   2  21   2  22   2  23   3  24   3  25   3  26   3  27   3
M  END
>  <REMARK>  (1) 
 SMILES Cc1nc(CNC(=O)c2cnn(C3CCCCC3)c2C)nc2ccccc12
 SMILES IDX 6 1 7 2 8 3 5 5 4 6 2 7 3 8 27 9 26 10 22 11 21 12 25 13
 SMILES IDX 23 14 24 15 1 16 9 17 10 18 19 19 11 20 12 21 20 22 13 23
 SMILES IDX 14 24 18 25 15 26 17 27 16 28
 H PARENT 6 4

>  <TORSDO>  (1) 
F 4

$$$$
