/home/pchatterjee/Documents/git/vs_workflow/DiffDock/diffdock_run/pdbqt_scrubbed/Z1635228855.pdbqt
     RDKit          3D

 27 30  0  0  1  0  0  0  0  0999 V2000
    7.0246   43.5475   49.7847 N   0  0  0  0  0  0  0  0  0  0  0  0
    8.1060   44.3225   50.2700 C   0  0  0  0  0  0  0  0  0  0  0  0
    9.2444   44.0984   49.7847 O   0  0  0  0  0  0  0  0  0  0  0  0
    7.1164   42.6848   48.6201 C   0  0  0  0  0  2  0  0  0  0  0  0
    5.8280   41.9930   48.3566 C   0  0  0  0  0  0  0  0  0  0  0  0
    4.2846   40.8239   46.8961 C   0  0  0  0  0  3  0  0  0  0  0  0
    5.5126   41.5018   47.2098 N   0  0  0  0  0  0  0  0  0  0  0  0
    3.3633   40.7268   48.0452 C   0  0  0  0  0  0  0  0  0  0  0  0
    2.1604   40.0987   47.8589 C   0  0  0  0  0  3  0  0  0  0  0  0
    3.6620   41.2357   49.2781 C   0  0  0  0  0  0  0  0  0  0  0  0
    4.9194   41.8875   49.4570 N   0  0  0  0  0  2  0  0  0  0  0  0
    1.2973   40.0077   48.9348 C   0  0  0  0  0  3  0  0  0  0  0  0
    2.7994   41.1458   50.3571 C   0  0  0  0  0  3  0  0  0  0  0  0
    1.5916   40.5199   50.1861 C   0  0  0  0  0  3  0  0  0  0  0  0
    4.5321   39.4377   46.3169 C   0  0  0  0  0  1  0  0  0  0  0  0
    7.9955   45.3533   51.2834 C   0  0  0  0  0  0  0  0  0  0  0  0
    6.8493   45.5623   52.0223 C   0  0  0  0  0  3  0  0  0  0  0  0
    8.8955   46.2893   51.7290 C   0  0  0  0  0  0  0  0  0  0  0  0
    7.1016   46.6014   52.8714 N   0  0  0  0  0  0  0  0  0  0  0  0
    8.3291   47.0398   52.6975 N   0  0  0  0  0  0  0  0  0  0  0  0
   10.2807   46.4686   51.2387 C   0  0  0  0  0  1  0  0  0  0  0  0
    9.0047   48.1348   53.3978 C   0  0  0  0  0  3  0  0  0  0  0  0
   10.0283   47.4726   54.3220 C   0  0  0  0  0  2  0  0  0  0  0  0
    7.9360   48.8651   54.1987 C   0  0  0  0  0  2  0  0  0  0  0  0
    9.6713   47.7678   55.7740 C   0  0  0  0  0  2  0  0  0  0  0  0
    8.5695   49.8933   55.1182 C   0  0  0  0  0  2  0  0  0  0  0  0
    9.7237   49.2847   55.9012 C   0  0  0  0  0  2  0  0  0  0  0  0
  1  4  1  0
  2  3  2  0
  2  1  1  0
  4  5  1  0
  5  7  2  0
  6 15  1  0
  7  6  1  0
  8  6  1  0
  8  9  2  0
 10  8  1  0
 11  5  1  0
 11 10  1  0
 12  9  1  0
 13 10  2  0
 13 14  1  0
 14 12  2  0
 16  2  1  0
 17 16  1  0
 18 16  2  0
 19 17  2  0
 20 19  1  0
 20 18  1  0
 21 18  1  0
 22 23  1  0
 22 20  1  0
 24 22  1  0
 25 23  1  0
 26 27  1  0
 26 24  1  0
 27 25  1  0
M  RAD  8   4   3   6   2   9   2  11   2  12   2  13   2  14   2  15   2
M  RAD  8  17   2  21   2  22   2  23   3  24   3  25   3  26   3  27   3
M  END
>  <REMARK>  (1) 
 SMILES Cc1nc(CNC(=O)c2cnn(C3CCCCC3)c2C)nc2ccccc12
 SMILES IDX 6 1 7 2 8 3 5 5 4 6 2 7 3 8 27 9 26 10 22 11 21 12 25 13
 SMILES IDX 23 14 24 15 1 16 9 17 10 18 19 19 11 20 12 21 20 22 13 23
 SMILES IDX 14 24 18 25 15 26 17 27 16 28
 H PARENT 6 4

>  <TORSDO>  (1) 
F 4

$$$$
