/home/pchatterjee/Documents/git/vs_workflow/DiffDock/diffdock_run/pdbqt_scrubbed/Z1635228855.pdbqt
     RDKit          3D

 27 30  0  0  1  0  0  0  0  0999 V2000
    7.1722   43.5714   49.6693 N   0  0  0  0  0  0  0  0  0  0  0  0
    8.2282   44.4061   50.1095 C   0  0  0  0  0  0  0  0  0  0  0  0
    9.3354   44.2995   49.5226 O   0  0  0  0  0  0  0  0  0  0  0  0
    7.2690   42.7004   48.5112 C   0  0  0  0  0  2  0  0  0  0  0  0
    5.9862   41.9953   48.2561 C   0  0  0  0  0  0  0  0  0  0  0  0
    4.4894   40.7188   46.8376 C   0  0  0  0  0  3  0  0  0  0  0  0
    5.7099   41.4145   47.1416 N   0  0  0  0  0  0  0  0  0  0  0  0
    3.5254   40.7189   47.9554 C   0  0  0  0  0  0  0  0  0  0  0  0
    2.3256   40.0831   47.7752 C   0  0  0  0  0  3  0  0  0  0  0  0
    3.7819   41.3243   49.1537 C   0  0  0  0  0  0  0  0  0  0  0  0
    5.0367   41.9830   49.3265 N   0  0  0  0  0  2  0  0  0  0  0  0
    1.4226   40.0830   48.8218 C   0  0  0  0  0  3  0  0  0  0  0  0
    2.8793   41.3257   50.2033 C   0  0  0  0  0  3  0  0  0  0  0  0
    1.6741   40.6933   50.0379 C   0  0  0  0  0  3  0  0  0  0  0  0
    4.7479   39.2893   46.3817 C   0  0  0  0  0  1  0  0  0  0  0  0
    8.1251   45.3724   51.1853 C   0  0  0  0  0  0  0  0  0  0  0  0
    7.0378   45.4429   52.0317 C   0  0  0  0  0  3  0  0  0  0  0  0
    8.9805   46.3615   51.6031 C   0  0  0  0  0  0  0  0  0  0  0  0
    7.2789   46.4576   52.9130 N   0  0  0  0  0  0  0  0  0  0  0  0
    8.4444   47.0108   52.6580 N   0  0  0  0  0  0  0  0  0  0  0  0
   10.2951   46.6863   51.0050 C   0  0  0  0  0  1  0  0  0  0  0  0
    9.0871   48.1257   53.3576 C   0  0  0  0  0  3  0  0  0  0  0  0
   10.2289   47.5094   54.1681 C   0  0  0  0  0  2  0  0  0  0  0  0
    8.0324   48.7328   54.2720 C   0  0  0  0  0  2  0  0  0  0  0  0
    9.9668   47.7127   55.6556 C   0  0  0  0  0  2  0  0  0  0  0  0
    8.6560   49.7686   55.1899 C   0  0  0  0  0  2  0  0  0  0  0  0
    9.9122   49.2221   55.8523 C   0  0  0  0  0  2  0  0  0  0  0  0
  1  4  1  0
  2  3  2  0
  2  1  1  0
  4  5  1  0
  5  7  2  0
  6 15  1  0
  7  6  1  0
  8  6  1  0
  8  9  2  0
 10  8  1  0
 11  5  1  0
 11 10  1  0
 12  9  1  0
 13 10  2  0
 13 14  1  0
 14 12  2  0
 16  2  1  0
 17 16  1  0
 18 16  2  0
 19 17  2  0
 20 19  1  0
 20 18  1  0
 21 18  1  0
 22 23  1  0
 22 20  1  0
 24 22  1  0
 25 23  1  0
 26 27  1  0
 26 24  1  0
 27 25  1  0
M  RAD  8   4   3   6   2   9   2  11   2  12   2  13   2  14   2  15   2
M  RAD  8  17   2  21   2  22   2  23   3  24   3  25   3  26   3  27   3
M  END
>  <REMARK>  (1) 
 SMILES Cc1nc(CNC(=O)c2cnn(C3CCCCC3)c2C)nc2ccccc12
 SMILES IDX 6 1 7 2 8 3 5 5 4 6 2 7 3 8 27 9 26 10 22 11 21 12 25 13
 SMILES IDX 23 14 24 15 1 16 9 17 10 18 19 19 11 20 12 21 20 22 13 23
 SMILES IDX 14 24 18 25 15 26 17 27 16 28
 H PARENT 6 4

>  <TORSDO>  (1) 
F 4

$$$$
