/home/pchatterjee/Documents/git/vs_workflow/DiffDock/diffdock_run/pdbqt_scrubbed/Z1635228855.pdbqt
     RDKit          3D

 27 30  0  0  1  0  0  0  0  0999 V2000
    7.0798   43.6761   49.7263 N   0  0  0  0  0  0  0  0  0  0  0  0
    8.2022   44.3533   50.2621 C   0  0  0  0  0  0  0  0  0  0  0  0
    9.3305   44.0790   49.7789 O   0  0  0  0  0  0  0  0  0  0  0  0
    7.1410   42.8342   48.5446 C   0  0  0  0  0  2  0  0  0  0  0  0
    5.8169   42.2324   48.2401 C   0  0  0  0  0  0  0  0  0  0  0  0
    4.1939   41.2942   46.7015 C   0  0  0  0  0  3  0  0  0  0  0  0
    5.4579   41.8797   47.0559 N   0  0  0  0  0  0  0  0  0  0  0  0
    3.2902   41.1177   47.8552 C   0  0  0  0  0  0  0  0  0  0  0  0
    2.0560   40.5672   47.6320 C   0  0  0  0  0  3  0  0  0  0  0  0
    3.6350   41.4797   49.1273 C   0  0  0  0  0  0  0  0  0  0  0  0
    4.9247   42.0522   49.3441 N   0  0  0  0  0  2  0  0  0  0  0  0
    1.2095   40.4018   48.7123 C   0  0  0  0  0  3  0  0  0  0  0  0
    2.7891   41.3151   50.2107 C   0  0  0  0  0  3  0  0  0  0  0  0
    1.5504   40.7654   50.0031 C   0  0  0  0  0  3  0  0  0  0  0  0
    4.3654   39.9672   45.9749 C   0  0  0  0  0  1  0  0  0  0  0  0
    8.1446   45.3375   51.3250 C   0  0  0  0  0  0  0  0  0  0  0  0
    7.0020   45.5892   52.0562 C   0  0  0  0  0  3  0  0  0  0  0  0
    9.0987   46.1849   51.8311 C   0  0  0  0  0  0  0  0  0  0  0  0
    7.3098   46.5646   52.9608 N   0  0  0  0  0  0  0  0  0  0  0  0
    8.5677   46.9241   52.8279 N   0  0  0  0  0  0  0  0  0  0  0  0
   10.5019   46.2910   51.3714 C   0  0  0  0  0  1  0  0  0  0  0  0
    9.3043   47.9329   53.5931 C   0  0  0  0  0  3  0  0  0  0  0  0
   10.2371   47.1547   54.5231 C   0  0  0  0  0  2  0  0  0  0  0  0
    8.2703   48.7185   54.3873 C   0  0  0  0  0  2  0  0  0  0  0  0
    9.8534   47.4241   55.9733 C   0  0  0  0  0  2  0  0  0  0  0  0
    8.9518   49.6561   55.3674 C   0  0  0  0  0  2  0  0  0  0  0  0
   10.0240   48.9258   56.1627 C   0  0  0  0  0  2  0  0  0  0  0  0
  1  4  1  0
  2  3  2  0
  2  1  1  0
  4  5  1  0
  5  7  2  0
  6 15  1  0
  7  6  1  0
  8  6  1  0
  8  9  2  0
 10  8  1  0
 11  5  1  0
 11 10  1  0
 12  9  1  0
 13 10  2  0
 13 14  1  0
 14 12  2  0
 16  2  1  0
 17 16  1  0
 18 16  2  0
 19 17  2  0
 20 19  1  0
 20 18  1  0
 21 18  1  0
 22 23  1  0
 22 20  1  0
 24 22  1  0
 25 23  1  0
 26 27  1  0
 26 24  1  0
 27 25  1  0
M  RAD  8   4   3   6   2   9   2  11   2  12   2  13   2  14   2  15   2
M  RAD  8  17   2  21   2  22   2  23   3  24   3  25   3  26   3  27   3
M  END
>  <REMARK>  (1) 
 SMILES Cc1nc(CNC(=O)c2cnn(C3CCCCC3)c2C)nc2ccccc12
 SMILES IDX 6 1 7 2 8 3 5 5 4 6 2 7 3 8 27 9 26 10 22 11 21 12 25 13
 SMILES IDX 23 14 24 15 1 16 9 17 10 18 19 19 11 20 12 21 20 22 13 23
 SMILES IDX 14 24 18 25 15 26 17 27 16 28
 H PARENT 6 4

>  <TORSDO>  (1) 
F 4

$$$$
