/home/pchatterjee/Documents/git/vs_workflow/DiffDock/diffdock_run/pdbqt_scrubbed/Z1635228855.pdbqt
     RDKit          3D

 27 30  0  0  1  0  0  0  0  0999 V2000
    7.0702   43.5965   49.7824 N   0  0  0  0  0  0  0  0  0  0  0  0
    8.2033   44.3475   50.1794 C   0  0  0  0  0  0  0  0  0  0  0  0
    9.2937   44.1012   49.6032 O   0  0  0  0  0  0  0  0  0  0  0  0
    7.0851   42.6418   48.6881 C   0  0  0  0  0  2  0  0  0  0  0  0
    5.7469   42.0275   48.4881 C   0  0  0  0  0  0  0  0  0  0  0  0
    4.0844   40.9157   47.1164 C   0  0  0  0  0  3  0  0  0  0  0  0
    5.3630   41.5218   47.3689 N   0  0  0  0  0  0  0  0  0  0  0  0
    3.1971   40.9155   48.2961 C   0  0  0  0  0  0  0  0  0  0  0  0
    1.9509   40.3615   48.1683 C   0  0  0  0  0  3  0  0  0  0  0  0
    3.5684   41.4426   49.5012 C   0  0  0  0  0  0  0  0  0  0  0  0
    4.8703   42.0164   49.6189 N   0  0  0  0  0  2  0  0  0  0  0  0
    1.1198   40.3611   49.2729 C   0  0  0  0  0  3  0  0  0  0  0  0
    2.7380   41.4434   50.6088 C   0  0  0  0  0  3  0  0  0  0  0  0
    1.4876   40.8924   50.4964 C   0  0  0  0  0  3  0  0  0  0  0  0
    4.2231   39.4986   46.5770 C   0  0  0  0  0  1  0  0  0  0  0  0
    8.1968   45.3774   51.1997 C   0  0  0  0  0  0  0  0  0  0  0  0
    7.1044   45.6349   52.0020 C   0  0  0  0  0  3  0  0  0  0  0  0
    9.1622   46.2694   51.5962 C   0  0  0  0  0  0  0  0  0  0  0  0
    7.4509   46.6574   52.8379 N   0  0  0  0  0  0  0  0  0  0  0  0
    8.6856   47.0402   52.5965 N   0  0  0  0  0  0  0  0  0  0  0  0
   10.5246   46.3877   51.0295 C   0  0  0  0  0  1  0  0  0  0  0  0
    9.4486   48.0999   53.2603 C   0  0  0  0  0  3  0  0  0  0  0  0
   10.4764   47.3872   54.1414 C   0  0  0  0  0  2  0  0  0  0  0  0
    8.4568   48.8879   54.1044 C   0  0  0  0  0  2  0  0  0  0  0  0
   10.2009   47.7049   55.6062 C   0  0  0  0  0  2  0  0  0  0  0  0
    9.1842   49.8838   54.9894 C   0  0  0  0  0  2  0  0  0  0  0  0
   10.3387   49.2173   55.7232 C   0  0  0  0  0  2  0  0  0  0  0  0
  1  4  1  0
  2  3  2  0
  2  1  1  0
  4  5  1  0
  5  7  2  0
  6 15  1  0
  7  6  1  0
  8  6  1  0
  8  9  2  0
 10  8  1  0
 11  5  1  0
 11 10  1  0
 12  9  1  0
 13 10  2  0
 13 14  1  0
 14 12  2  0
 16  2  1  0
 17 16  1  0
 18 16  2  0
 19 17  2  0
 20 19  1  0
 20 18  1  0
 21 18  1  0
 22 23  1  0
 22 20  1  0
 24 22  1  0
 25 23  1  0
 26 27  1  0
 26 24  1  0
 27 25  1  0
M  RAD  8   4   3   6   2   9   2  11   2  12   2  13   2  14   2  15   2
M  RAD  8  17   2  21   2  22   2  23   3  24   3  25   3  26   3  27   3
M  END
>  <REMARK>  (1) 
 SMILES Cc1nc(CNC(=O)c2cnn(C3CCCCC3)c2C)nc2ccccc12
 SMILES IDX 6 1 7 2 8 3 5 5 4 6 2 7 3 8 27 9 26 10 22 11 21 12 25 13
 SMILES IDX 23 14 24 15 1 16 9 17 10 18 19 19 11 20 12 21 20 22 13 23
 SMILES IDX 14 24 18 25 15 26 17 27 16 28
 H PARENT 6 4

>  <TORSDO>  (1) 
F 4

$$$$
