/home/pchatterjee/Documents/git/vs_workflow/DiffDock/diffdock_run/pdbqt_scrubbed/Z1635228855.pdbqt
     RDKit          3D

 27 30  0  0  1  0  0  0  0  0999 V2000
    6.9692   43.5894   49.8314 N   0  0  0  0  0  0  0  0  0  0  0  0
    8.1046   44.2903   50.3058 C   0  0  0  0  0  0  0  0  0  0  0  0
    9.2203   43.9929   49.8073 O   0  0  0  0  0  0  0  0  0  0  0  0
    6.9708   42.7876   48.6205 C   0  0  0  0  0  2  0  0  0  0  0  0
    5.6476   42.1514   48.3914 C   0  0  0  0  0  0  0  0  0  0  0  0
    3.9787   41.1391   46.9521 C   0  0  0  0  0  3  0  0  0  0  0  0
    5.2443   41.7592   47.2341 N   0  0  0  0  0  0  0  0  0  0  0  0
    3.1306   40.9763   48.1492 C   0  0  0  0  0  0  0  0  0  0  0  0
    1.8997   40.3953   47.9960 C   0  0  0  0  0  3  0  0  0  0  0  0
    3.5233   41.3798   49.3947 C   0  0  0  0  0  0  0  0  0  0  0  0
    4.8089   41.9837   49.5385 N   0  0  0  0  0  2  0  0  0  0  0  0
    1.1052   40.2427   49.1170 C   0  0  0  0  0  3  0  0  0  0  0  0
    2.7296   41.2281   50.5187 C   0  0  0  0  0  3  0  0  0  0  0  0
    1.4949   40.6483   50.3812 C   0  0  0  0  0  3  0  0  0  0  0  0
    4.1461   39.7964   46.2540 C   0  0  0  0  0  1  0  0  0  0  0  0
    8.0737   45.3235   51.3222 C   0  0  0  0  0  0  0  0  0  0  0  0
    6.9631   45.5819   52.0989 C   0  0  0  0  0  3  0  0  0  0  0  0
    9.0285   46.2183   51.7375 C   0  0  0  0  0  0  0  0  0  0  0  0
    7.2891   46.6077   52.9390 N   0  0  0  0  0  0  0  0  0  0  0  0
    8.5284   46.9917   52.7242 N   0  0  0  0  0  0  0  0  0  0  0  0
   10.4032   46.3368   51.2012 C   0  0  0  0  0  1  0  0  0  0  0  0
    9.2747   48.0548   53.4015 C   0  0  0  0  0  3  0  0  0  0  0  0
   10.2629   47.3467   54.3303 C   0  0  0  0  0  2  0  0  0  0  0  0
    8.2585   48.8622   54.1967 C   0  0  0  0  0  2  0  0  0  0  0  0
    9.9353   47.6871   55.7793 C   0  0  0  0  0  2  0  0  0  0  0  0
    8.9604   49.8649   55.0946 C   0  0  0  0  0  2  0  0  0  0  0  0
   10.0810   49.1999   55.8804 C   0  0  0  0  0  2  0  0  0  0  0  0
  1  4  1  0
  2  3  2  0
  2  1  1  0
  4  5  1  0
  5  7  2  0
  6 15  1  0
  7  6  1  0
  8  6  1  0
  8  9  2  0
 10  8  1  0
 11  5  1  0
 11 10  1  0
 12  9  1  0
 13 10  2  0
 13 14  1  0
 14 12  2  0
 16  2  1  0
 17 16  1  0
 18 16  2  0
 19 17  2  0
 20 19  1  0
 20 18  1  0
 21 18  1  0
 22 23  1  0
 22 20  1  0
 24 22  1  0
 25 23  1  0
 26 27  1  0
 26 24  1  0
 27 25  1  0
M  RAD  8   4   3   6   2   9   2  11   2  12   2  13   2  14   2  15   2
M  RAD  8  17   2  21   2  22   2  23   3  24   3  25   3  26   3  27   3
M  END
>  <REMARK>  (1) 
 SMILES Cc1nc(CNC(=O)c2cnn(C3CCCCC3)c2C)nc2ccccc12
 SMILES IDX 6 1 7 2 8 3 5 5 4 6 2 7 3 8 27 9 26 10 22 11 21 12 25 13
 SMILES IDX 23 14 24 15 1 16 9 17 10 18 19 19 11 20 12 21 20 22 13 23
 SMILES IDX 14 24 18 25 15 26 17 27 16 28
 H PARENT 6 4

>  <TORSDO>  (1) 
F 4

$$$$
