/home/pchatterjee/Documents/git/vs_workflow/DiffDock/diffdock_run/pdbqt_scrubbed/Z352550402.pdbqt
     RDKit          3D

 23 25  0  0  0  0  0  0  0  0999 V2000
   11.1712   84.1730   70.9203 C   0  0  0  0  0  2  0  0  0  0  0  0
   10.3522   85.2327   70.2304 C   0  0  0  0  0  0  0  0  0  0  0  0
   11.0559   86.3771   69.7553 N   0  0  0  0  0  0  0  0  0  0  0  0
    9.1083   85.0893   70.0934 O   0  0  0  0  0  0  0  0  0  0  0  0
   10.3383   87.4274   69.1321 C   0  0  0  0  0  0  0  0  0  0  0  0
   10.9124   88.4227   68.4407 N   0  0  0  0  0  0  0  0  0  0  0  0
    9.0041   87.5820   69.1393 N   0  0  0  0  0  0  0  0  0  0  0  0
    9.9443   89.2035   68.0123 N   0  0  0  0  0  0  0  0  0  0  0  0
    8.7570   88.7037   68.4319 C   0  0  0  0  0  3  0  0  0  0  0  0
   12.1379   83.7559   69.9718 O   0  0  0  0  0  0  0  0  0  0  0  0
   13.4752   83.5640   70.2562 C   0  0  0  0  0  0  0  0  0  0  0  0
   14.3870   84.2880   69.5115 C   0  0  0  0  0  3  0  0  0  0  0  0
   13.8480   82.6797   71.2476 C   0  0  0  0  0  3  0  0  0  0  0  0
   15.7561   84.1554   69.7326 C   0  0  0  0  0  3  0  0  0  0  0  0
   15.2076   82.5476   71.4676 C   0  0  0  0  0  3  0  0  0  0  0  0
   16.1334   83.2603   70.7361 C   0  0  0  0  0  0  0  0  0  0  0  0
   17.5102   83.0371   71.0571 N   0  0  0  0  0  0  0  0  0  0  0  0
   18.4630   83.5559   70.1335 C   0  0  0  0  0  0  0  0  0  0  0  0
   18.1758   83.8579   68.8288 C   0  0  0  0  0  3  0  0  0  0  0  0
   19.7494   83.7483   70.6402 C   0  0  0  0  0  3  0  0  0  0  0  0
   19.1537   84.3545   68.0045 C   0  0  0  0  0  3  0  0  0  0  0  0
   20.7013   84.2419   69.8024 C   0  0  0  0  0  3  0  0  0  0  0  0
   20.4262   84.5500   68.4879 C   0  0  0  0  0  3  0  0  0  0  0  0
  1  2  1  0
  2  3  1  0
  3  5  1  0
  4  2  2  0
  5  6  2  0
  6  8  1  0
  7  5  1  0
  7  9  1  0
  9  8  2  0
 10  1  1  0
 10 11  1  0
 11 13  1  0
 12 11  2  0
 12 14  1  0
 13 15  2  0
 14 16  2  0
 16 15  1  0
 16 17  1  0
 17 18  1  0
 18 19  2  0
 18 20  1  0
 19 21  1  0
 20 22  2  0
 21 23  2  0
 22 23  1  0
M  RAD  8   1   3   9   2  12   2  13   2  14   2  15   2  19   2  20   2
M  RAD  3  21   2  22   2  23   2
M  END
>  <REMARK>  (1) 
 SMILES O=C(COc1ccc(Nc2ccccc2)cc1)Nc1nnc[nH]1
 SMILES IDX 3 1 2 2 18 3 1 4 19 6 20 7 23 8 21 9 22 10 4 12 5 13 6 14
 SMILES IDX 17 15 7 16 16 17 8 18 9 19 10 21 11 22 15 23 12 24 14 25
 SMILES IDX 13 26
 H PARENT 18 5 23 11 9 20

>  <TORSDO>  (1) 
F 6

$$$$
