/home/pchatterjee/Documents/git/vs_workflow/DiffDock/diffdock_run/pdbqt_scrubbed/Z352550402.pdbqt
     RDKit          3D

 23 25  0  0  0  0  0  0  0  0999 V2000
    7.7284   43.5658   48.8813 C   0  0  0  0  0  2  0  0  0  0  0  0
    8.4461   44.3372   49.9583 C   0  0  0  0  0  0  0  0  0  0  0  0
    7.6620   45.2479   50.7239 N   0  0  0  0  0  0  0  0  0  0  0  0
    9.6790   44.1664   50.1516 O   0  0  0  0  0  0  0  0  0  0  0  0
    8.3028   46.1293   51.6289 C   0  0  0  0  0  0  0  0  0  0  0  0
    7.6526   46.9723   52.4443 N   0  0  0  0  0  0  0  0  0  0  0  0
    9.6289   46.2513   51.8033 N   0  0  0  0  0  0  0  0  0  0  0  0
    8.5648   47.6248   53.1317 N   0  0  0  0  0  0  0  0  0  0  0  0
    9.7927   47.1959   52.7524 C   0  0  0  0  0  3  0  0  0  0  0  0
    6.9752   42.5732   49.5563 O   0  0  0  0  0  0  0  0  0  0  0  0
    5.8920   41.9133   49.0112 C   0  0  0  0  0  0  0  0  0  0  0  0
    4.8999   41.5056   49.8829 C   0  0  0  0  0  3  0  0  0  0  0  0
    5.8362   41.6883   47.6510 C   0  0  0  0  0  3  0  0  0  0  0  0
    3.7719   40.8332   49.4177 C   0  0  0  0  0  3  0  0  0  0  0  0
    4.7162   41.0205   47.1885 C   0  0  0  0  0  3  0  0  0  0  0  0
    3.7156   40.6055   48.0409 C   0  0  0  0  0  0  0  0  0  0  0  0
    2.6079   39.9249   47.4425 N   0  0  0  0  0  0  0  0  0  0  0  0
    2.1085   40.4820   46.2299 C   0  0  0  0  0  0  0  0  0  0  0  0
    1.0791   41.3837   46.1709 C   0  0  0  0  0  3  0  0  0  0  0  0
    2.7411   40.0493   45.0632 C   0  0  0  0  0  3  0  0  0  0  0  0
    0.6587   41.8719   44.9596 C   0  0  0  0  0  3  0  0  0  0  0  0
    2.3055   40.5485   43.8747 C   0  0  0  0  0  3  0  0  0  0  0  0
    1.2712   41.4560   43.8008 C   0  0  0  0  0  3  0  0  0  0  0  0
  1  2  1  0
  2  3  1  0
  3  5  1  0
  4  2  2  0
  5  6  2  0
  6  8  1  0
  7  5  1  0
  7  9  1  0
  9  8  2  0
 10  1  1  0
 10 11  1  0
 11 13  1  0
 12 11  2  0
 12 14  1  0
 13 15  2  0
 14 16  2  0
 16 15  1  0
 16 17  1  0
 17 18  1  0
 18 19  2  0
 18 20  1  0
 19 21  1  0
 20 22  2  0
 21 23  2  0
 22 23  1  0
M  RAD  8   1   3   9   2  12   2  13   2  14   2  15   2  19   2  20   2
M  RAD  3  21   2  22   2  23   2
M  END
>  <REMARK>  (1) 
 SMILES O=C(COc1ccc(Nc2ccccc2)cc1)Nc1nnc[nH]1
 SMILES IDX 3 1 2 2 18 3 1 4 19 6 20 7 23 8 21 9 22 10 4 12 5 13 6 14
 SMILES IDX 17 15 7 16 16 17 8 18 9 19 10 21 11 22 15 23 12 24 14 25
 SMILES IDX 13 26
 H PARENT 18 5 23 11 9 20

>  <TORSDO>  (1) 
F 6

$$$$
