/home/pchatterjee/Documents/git/vs_workflow/DiffDock/diffdock_run/pdbqt_scrubbed/Z352550402.pdbqt
     RDKit          3D

 23 25  0  0  0  0  0  0  0  0999 V2000
   11.4423   85.0172   69.5136 C   0  0  0  0  0  2  0  0  0  0  0  0
   10.2033   84.8424   70.3529 C   0  0  0  0  0  0  0  0  0  0  0  0
   10.2905   85.2504   71.7154 N   0  0  0  0  0  0  0  0  0  0  0  0
    9.1554   84.3570   69.8502 O   0  0  0  0  0  0  0  0  0  0  0  0
    9.3148   84.8042   72.6403 C   0  0  0  0  0  0  0  0  0  0  0  0
    8.2507   84.0586   72.3088 N   0  0  0  0  0  0  0  0  0  0  0  0
    9.3081   85.0548   73.9598 N   0  0  0  0  0  0  0  0  0  0  0  0
    7.5737   83.8388   73.4151 N   0  0  0  0  0  0  0  0  0  0  0  0
    8.2083   84.4447   74.4475 C   0  0  0  0  0  3  0  0  0  0  0  0
   12.5255   85.0401   70.4271 O   0  0  0  0  0  0  0  0  0  0  0  0
   13.8260   85.3521   70.0847 C   0  0  0  0  0  0  0  0  0  0  0  0
   14.0402   85.8451   68.8113 C   0  0  0  0  0  3  0  0  0  0  0  0
   14.8420   85.1669   70.9995 C   0  0  0  0  0  3  0  0  0  0  0  0
   15.3215   86.1855   68.3830 C   0  0  0  0  0  3  0  0  0  0  0  0
   16.1147   85.5048   70.5747 C   0  0  0  0  0  3  0  0  0  0  0  0
   16.3499   85.9979   69.3092 C   0  0  0  0  0  0  0  0  0  0  0  0
   17.7090   86.3108   68.9878 N   0  0  0  0  0  0  0  0  0  0  0  0
   18.6338   85.2284   69.0455 C   0  0  0  0  0  0  0  0  0  0  0  0
   19.9788   85.3605   68.8231 C   0  0  0  0  0  3  0  0  0  0  0  0
   18.0836   83.9823   69.3507 C   0  0  0  0  0  3  0  0  0  0  0  0
   20.8011   84.2649   68.8983 C   0  0  0  0  0  3  0  0  0  0  0  0
   18.9204   82.9115   69.4193 C   0  0  0  0  0  3  0  0  0  0  0  0
   20.2752   83.0300   69.1979 C   0  0  0  0  0  3  0  0  0  0  0  0
  1  2  1  0
  2  3  1  0
  3  5  1  0
  4  2  2  0
  5  6  2  0
  6  8  1  0
  7  5  1  0
  7  9  1  0
  9  8  2  0
 10  1  1  0
 10 11  1  0
 11 13  1  0
 12 11  2  0
 12 14  1  0
 13 15  2  0
 14 16  2  0
 16 15  1  0
 16 17  1  0
 17 18  1  0
 18 19  2  0
 18 20  1  0
 19 21  1  0
 20 22  2  0
 21 23  2  0
 22 23  1  0
M  RAD  8   1   3   9   2  12   2  13   2  14   2  15   2  19   2  20   2
M  RAD  3  21   2  22   2  23   2
M  END
>  <REMARK>  (1) 
 SMILES O=C(COc1ccc(Nc2ccccc2)cc1)Nc1nnc[nH]1
 SMILES IDX 3 1 2 2 18 3 1 4 19 6 20 7 23 8 21 9 22 10 4 12 5 13 6 14
 SMILES IDX 17 15 7 16 16 17 8 18 9 19 10 21 11 22 15 23 12 24 14 25
 SMILES IDX 13 26
 H PARENT 18 5 23 11 9 20

>  <TORSDO>  (1) 
F 6

$$$$
