/home/pchatterjee/Documents/git/vs_workflow/DiffDock/diffdock_run/pdbqt_scrubbed/Z352550402.pdbqt
     RDKit          3D

 23 25  0  0  0  0  0  0  0  0999 V2000
    6.8230   61.6707   82.6239 C   0  0  0  0  0  2  0  0  0  0  0  0
    5.4283   61.1918   82.3149 C   0  0  0  0  0  0  0  0  0  0  0  0
    5.0902   59.8793   82.7544 N   0  0  0  0  0  0  0  0  0  0  0  0
    4.6207   61.9352   81.6970 O   0  0  0  0  0  0  0  0  0  0  0  0
    3.8184   59.3434   82.4353 C   0  0  0  0  0  0  0  0  0  0  0  0
    3.4138   58.1123   82.7800 N   0  0  0  0  0  0  0  0  0  0  0  0
    2.8470   59.9733   81.7544 N   0  0  0  0  0  0  0  0  0  0  0  0
    2.1908   57.9646   82.3185 N   0  0  0  0  0  0  0  0  0  0  0  0
    1.8202   59.1015   81.6815 C   0  0  0  0  0  3  0  0  0  0  0  0
    6.8723   63.0182   82.1880 O   0  0  0  0  0  0  0  0  0  0  0  0
    7.9770   63.8367   82.3127 C   0  0  0  0  0  0  0  0  0  0  0  0
    8.0168   64.9656   81.5163 C   0  0  0  0  0  3  0  0  0  0  0  0
    8.9783   63.5103   83.2041 C   0  0  0  0  0  3  0  0  0  0  0  0
    9.0946   65.8462   81.5782 C   0  0  0  0  0  3  0  0  0  0  0  0
   10.0490   64.3846   83.2660 C   0  0  0  0  0  3  0  0  0  0  0  0
   10.1080   65.5157   82.4805 C   0  0  0  0  0  0  0  0  0  0  0  0
   11.2668   66.3413   82.6354 N   0  0  0  0  0  0  0  0  0  0  0  0
   11.4334   67.3780   81.6721 C   0  0  0  0  0  0  0  0  0  0  0  0
   10.4217   67.8562   80.8822 C   0  0  0  0  0  3  0  0  0  0  0  0
   12.7232   67.9016   81.5684 C   0  0  0  0  0  3  0  0  0  0  0  0
   10.6677   68.8583   79.9781 C   0  0  0  0  0  3  0  0  0  0  0  0
   12.9411   68.8948   80.6641 C   0  0  0  0  0  3  0  0  0  0  0  0
   11.9328   69.3852   79.8633 C   0  0  0  0  0  3  0  0  0  0  0  0
  1  2  1  0
  2  3  1  0
  3  5  1  0
  4  2  2  0
  5  6  2  0
  6  8  1  0
  7  5  1  0
  7  9  1  0
  9  8  2  0
 10  1  1  0
 10 11  1  0
 11 13  1  0
 12 11  2  0
 12 14  1  0
 13 15  2  0
 14 16  2  0
 16 15  1  0
 16 17  1  0
 17 18  1  0
 18 19  2  0
 18 20  1  0
 19 21  1  0
 20 22  2  0
 21 23  2  0
 22 23  1  0
M  RAD  8   1   3   9   2  12   2  13   2  14   2  15   2  19   2  20   2
M  RAD  3  21   2  22   2  23   2
M  END
>  <REMARK>  (1) 
 SMILES O=C(COc1ccc(Nc2ccccc2)cc1)Nc1nnc[nH]1
 SMILES IDX 3 1 2 2 18 3 1 4 19 6 20 7 23 8 21 9 22 10 4 12 5 13 6 14
 SMILES IDX 17 15 7 16 16 17 8 18 9 19 10 21 11 22 15 23 12 24 14 25
 SMILES IDX 13 26
 H PARENT 18 5 23 11 9 20

>  <TORSDO>  (1) 
F 6

$$$$
