/home/pchatterjee/Documents/git/vs_workflow/DiffDock/diffdock_run/pdbqt_scrubbed/Z352550402.pdbqt
     RDKit          3D

 23 25  0  0  0  0  0  0  0  0999 V2000
    9.3781   62.5845   84.8449 C   0  0  0  0  0  2  0  0  0  0  0  0
    9.1400   61.3056   85.6049 C   0  0  0  0  0  0  0  0  0  0  0  0
    7.7945   61.0261   85.9817 N   0  0  0  0  0  0  0  0  0  0  0  0
   10.1007   60.5390   85.8808 O   0  0  0  0  0  0  0  0  0  0  0  0
    7.5253   59.9396   86.8498 C   0  0  0  0  0  0  0  0  0  0  0  0
    6.3538   59.7489   87.4739 N   0  0  0  0  0  0  0  0  0  0  0  0
    8.3835   58.9579   87.1721 N   0  0  0  0  0  0  0  0  0  0  0  0
    6.4712   58.6505   88.1881 N   0  0  0  0  0  0  0  0  0  0  0  0
    7.7164   58.1449   88.0170 C   0  0  0  0  0  3  0  0  0  0  0  0
   10.7594   62.5921   84.5282 O   0  0  0  0  0  0  0  0  0  0  0  0
   11.4259   63.6689   83.9786 C   0  0  0  0  0  0  0  0  0  0  0  0
   10.6647   64.5969   83.2932 C   0  0  0  0  0  3  0  0  0  0  0  0
   12.7931   63.7810   84.1271 C   0  0  0  0  0  3  0  0  0  0  0  0
   11.2563   65.7138   82.7072 C   0  0  0  0  0  3  0  0  0  0  0  0
   13.3812   64.8901   83.5453 C   0  0  0  0  0  3  0  0  0  0  0  0
   12.6402   65.8271   82.8576 C   0  0  0  0  0  0  0  0  0  0  0  0
   13.3628   66.9299   82.3009 N   0  0  0  0  0  0  0  0  0  0  0  0
   12.6463   67.7527   81.3845 C   0  0  0  0  0  0  0  0  0  0  0  0
   13.2350   68.6928   80.5810 C   0  0  0  0  0  3  0  0  0  0  0  0
   11.2662   67.5473   81.3434 C   0  0  0  0  0  3  0  0  0  0  0  0
   12.4706   69.4444   79.7249 C   0  0  0  0  0  3  0  0  0  0  0  0
   10.5304   68.3055   80.4858 C   0  0  0  0  0  3  0  0  0  0  0  0
   11.1095   69.2547   79.6720 C   0  0  0  0  0  3  0  0  0  0  0  0
  1  2  1  0
  2  3  1  0
  3  5  1  0
  4  2  2  0
  5  6  2  0
  6  8  1  0
  7  5  1  0
  7  9  1  0
  9  8  2  0
 10  1  1  0
 10 11  1  0
 11 13  1  0
 12 11  2  0
 12 14  1  0
 13 15  2  0
 14 16  2  0
 16 15  1  0
 16 17  1  0
 17 18  1  0
 18 19  2  0
 18 20  1  0
 19 21  1  0
 20 22  2  0
 21 23  2  0
 22 23  1  0
M  RAD  8   1   3   9   2  12   2  13   2  14   2  15   2  19   2  20   2
M  RAD  3  21   2  22   2  23   2
M  END
>  <REMARK>  (1) 
 SMILES O=C(COc1ccc(Nc2ccccc2)cc1)Nc1nnc[nH]1
 SMILES IDX 3 1 2 2 18 3 1 4 19 6 20 7 23 8 21 9 22 10 4 12 5 13 6 14
 SMILES IDX 17 15 7 16 16 17 8 18 9 19 10 21 11 22 15 23 12 24 14 25
 SMILES IDX 13 26
 H PARENT 18 5 23 11 9 20

>  <TORSDO>  (1) 
F 6

$$$$
