/home/pchatterjee/Documents/git/vs_workflow/DiffDock/diffdock_run/pdbqt_scrubbed/Z352550402.pdbqt
     RDKit          3D

 23 25  0  0  0  0  0  0  0  0999 V2000
    5.7049   42.7676   50.2817 C   0  0  0  0  0  2  0  0  0  0  0  0
    6.6613   43.8582   50.6892 C   0  0  0  0  0  0  0  0  0  0  0  0
    8.0228   43.6929   50.3025 N   0  0  0  0  0  0  0  0  0  0  0  0
    6.2515   44.8561   51.3394 O   0  0  0  0  0  0  0  0  0  0  0  0
    8.9717   44.6851   50.6510 C   0  0  0  0  0  0  0  0  0  0  0  0
   10.2664   44.6413   50.3047 N   0  0  0  0  0  0  0  0  0  0  0  0
    8.7237   45.7953   51.3653 N   0  0  0  0  0  0  0  0  0  0  0  0
   10.8348   45.7200   50.7984 N   0  0  0  0  0  0  0  0  0  0  0  0
    9.9009   46.4475   51.4574 C   0  0  0  0  0  3  0  0  0  0  0  0
    5.6204   42.8385   48.8688 O   0  0  0  0  0  0  0  0  0  0  0  0
    4.6976   42.1483   48.1087 C   0  0  0  0  0  0  0  0  0  0  0  0
    5.1563   41.5554   46.9475 C   0  0  0  0  0  3  0  0  0  0  0  0
    3.3831   42.0745   48.5215 C   0  0  0  0  0  3  0  0  0  0  0  0
    4.2927   40.8395   46.1212 C   0  0  0  0  0  3  0  0  0  0  0  0
    2.5250   41.3636   47.7012 C   0  0  0  0  0  3  0  0  0  0  0  0
    2.9622   40.7649   46.5392 C   0  0  0  0  0  0  0  0  0  0  0  0
    1.9795   40.0579   45.7758 N   0  0  0  0  0  0  0  0  0  0  0  0
    1.0504   40.8591   45.0512 C   0  0  0  0  0  0  0  0  0  0  0  0
   -0.1977   41.1858   45.5111 C   0  0  0  0  0  3  0  0  0  0  0  0
    1.4889   41.3112   43.8054 C   0  0  0  0  0  3  0  0  0  0  0  0
   -1.0318   41.9636   44.7486 C   0  0  0  0  0  3  0  0  0  0  0  0
    0.6427   42.0811   43.0686 C   0  0  0  0  0  3  0  0  0  0  0  0
   -0.6153   42.4173   43.5190 C   0  0  0  0  0  3  0  0  0  0  0  0
  1  2  1  0
  2  3  1  0
  3  5  1  0
  4  2  2  0
  5  6  2  0
  6  8  1  0
  7  5  1  0
  7  9  1  0
  9  8  2  0
 10  1  1  0
 10 11  1  0
 11 13  1  0
 12 11  2  0
 12 14  1  0
 13 15  2  0
 14 16  2  0
 16 15  1  0
 16 17  1  0
 17 18  1  0
 18 19  2  0
 18 20  1  0
 19 21  1  0
 20 22  2  0
 21 23  2  0
 22 23  1  0
M  RAD  8   1   3   9   2  12   2  13   2  14   2  15   2  19   2  20   2
M  RAD  3  21   2  22   2  23   2
M  END
>  <REMARK>  (1) 
 SMILES O=C(COc1ccc(Nc2ccccc2)cc1)Nc1nnc[nH]1
 SMILES IDX 3 1 2 2 18 3 1 4 19 6 20 7 23 8 21 9 22 10 4 12 5 13 6 14
 SMILES IDX 17 15 7 16 16 17 8 18 9 19 10 21 11 22 15 23 12 24 14 25
 SMILES IDX 13 26
 H PARENT 18 5 23 11 9 20

>  <TORSDO>  (1) 
F 6

$$$$
