/home/pchatterjee/Documents/git/vs_workflow/DiffDock/diffdock_run/pdbqt_scrubbed/Z352550402.pdbqt
     RDKit          3D

 23 25  0  0  0  0  0  0  0  0999 V2000
    7.2979   45.5811   50.8884 C   0  0  0  0  0  2  0  0  0  0  0  0
    8.5997   46.1025   51.4392 C   0  0  0  0  0  0  0  0  0  0  0  0
    8.5171   46.9566   52.5767 N   0  0  0  0  0  0  0  0  0  0  0  0
    9.6933   45.7836   50.9017 O   0  0  0  0  0  0  0  0  0  0  0  0
    7.2583   47.1902   53.1829 C   0  0  0  0  0  0  0  0  0  0  0  0
    7.0513   48.0772   54.1671 N   0  0  0  0  0  0  0  0  0  0  0  0
    6.1073   46.5724   52.8705 N   0  0  0  0  0  0  0  0  0  0  0  0
    5.7738   48.0201   54.4757 N   0  0  0  0  0  0  0  0  0  0  0  0
    5.1711   47.0975   53.6876 C   0  0  0  0  0  3  0  0  0  0  0  0
    7.5749   44.2722   50.4210 O   0  0  0  0  0  0  0  0  0  0  0  0
    6.6182   43.3948   49.9512 C   0  0  0  0  0  0  0  0  0  0  0  0
    5.5126   43.1813   50.7528 C   0  0  0  0  0  3  0  0  0  0  0  0
    6.7917   42.7762   48.7302 C   0  0  0  0  0  3  0  0  0  0  0  0
    4.4991   42.3117   50.3556 C   0  0  0  0  0  3  0  0  0  0  0  0
    5.7855   41.9125   48.3353 C   0  0  0  0  0  3  0  0  0  0  0  0
    4.6750   41.6857   49.1196 C   0  0  0  0  0  0  0  0  0  0  0  0
    3.7035   40.7708   48.6024 N   0  0  0  0  0  0  0  0  0  0  0  0
    3.3095   40.9716   47.2479 C   0  0  0  0  0  0  0  0  0  0  0  0
    4.0361   40.5415   46.1694 C   0  0  0  0  0  3  0  0  0  0  0  0
    2.1043   41.6520   47.0662 C   0  0  0  0  0  3  0  0  0  0  0  0
    3.5843   40.7764   44.8955 C   0  0  0  0  0  3  0  0  0  0  0  0
    1.6781   41.8724   45.7928 C   0  0  0  0  0  3  0  0  0  0  0  0
    2.3989   41.4453   44.6990 C   0  0  0  0  0  3  0  0  0  0  0  0
  1  2  1  0
  2  3  1  0
  3  5  1  0
  4  2  2  0
  5  6  2  0
  6  8  1  0
  7  5  1  0
  7  9  1  0
  9  8  2  0
 10  1  1  0
 10 11  1  0
 11 13  1  0
 12 11  2  0
 12 14  1  0
 13 15  2  0
 14 16  2  0
 16 15  1  0
 16 17  1  0
 17 18  1  0
 18 19  2  0
 18 20  1  0
 19 21  1  0
 20 22  2  0
 21 23  2  0
 22 23  1  0
M  RAD  8   1   3   9   2  12   2  13   2  14   2  15   2  19   2  20   2
M  RAD  3  21   2  22   2  23   2
M  END
>  <REMARK>  (1) 
 SMILES O=C(COc1ccc(Nc2ccccc2)cc1)Nc1nnc[nH]1
 SMILES IDX 3 1 2 2 18 3 1 4 19 6 20 7 23 8 21 9 22 10 4 12 5 13 6 14
 SMILES IDX 17 15 7 16 16 17 8 18 9 19 10 21 11 22 15 23 12 24 14 25
 SMILES IDX 13 26
 H PARENT 18 5 23 11 9 20

>  <TORSDO>  (1) 
F 6

$$$$
