/home/pchatterjee/Documents/git/vs_workflow/DiffDock/diffdock_run/pdbqt_scrubbed/Z352550402.pdbqt
     RDKit          3D

 23 25  0  0  0  0  0  0  0  0999 V2000
    6.4014   44.4072   50.2404 C   0  0  0  0  0  2  0  0  0  0  0  0
    7.7162   44.9242   50.7637 C   0  0  0  0  0  0  0  0  0  0  0  0
    7.6588   45.7960   51.8893 N   0  0  0  0  0  0  0  0  0  0  0  0
    8.7985   44.5867   50.2147 O   0  0  0  0  0  0  0  0  0  0  0  0
    8.8497   46.3949   52.3684 C   0  0  0  0  0  0  0  0  0  0  0  0
    8.9193   47.1475   53.4762 N   0  0  0  0  0  0  0  0  0  0  0  0
   10.0623   46.3018   51.7984 N   0  0  0  0  0  0  0  0  0  0  0  0
   10.1717   47.5286   53.6058 N   0  0  0  0  0  0  0  0  0  0  0  0
   10.8957   47.0181   52.5808 C   0  0  0  0  0  3  0  0  0  0  0  0
    6.7160   43.2485   49.4876 O   0  0  0  0  0  0  0  0  0  0  0  0
    5.7889   42.4928   48.7982 C   0  0  0  0  0  0  0  0  0  0  0  0
    4.5491   42.3277   49.3865 C   0  0  0  0  0  3  0  0  0  0  0  0
    6.1207   41.9418   47.5775 C   0  0  0  0  0  3  0  0  0  0  0  0
    3.5545   41.5801   48.7597 C   0  0  0  0  0  3  0  0  0  0  0  0
    5.1333   41.1992   46.9546 C   0  0  0  0  0  3  0  0  0  0  0  0
    3.8906   41.0224   47.5242 C   0  0  0  0  0  0  0  0  0  0  0  0
    2.9543   40.2339   46.7827 N   0  0  0  0  0  0  0  0  0  0  0  0
    2.0281   40.9535   45.9736 C   0  0  0  0  0  0  0  0  0  0  0  0
    0.8242   41.4247   46.4261 C   0  0  0  0  0  3  0  0  0  0  0  0
    2.4204   41.1626   44.6504 C   0  0  0  0  0  3  0  0  0  0  0  0
   -0.0105   42.1095   45.5795 C   0  0  0  0  0  3  0  0  0  0  0  0
    1.5747   41.8445   43.8311 C   0  0  0  0  0  3  0  0  0  0  0  0
    0.3609   42.3241   44.2729 C   0  0  0  0  0  3  0  0  0  0  0  0
  1  2  1  0
  2  3  1  0
  3  5  1  0
  4  2  2  0
  5  6  2  0
  6  8  1  0
  7  5  1  0
  7  9  1  0
  9  8  2  0
 10  1  1  0
 10 11  1  0
 11 13  1  0
 12 11  2  0
 12 14  1  0
 13 15  2  0
 14 16  2  0
 16 15  1  0
 16 17  1  0
 17 18  1  0
 18 19  2  0
 18 20  1  0
 19 21  1  0
 20 22  2  0
 21 23  2  0
 22 23  1  0
M  RAD  8   1   3   9   2  12   2  13   2  14   2  15   2  19   2  20   2
M  RAD  3  21   2  22   2  23   2
M  END
>  <REMARK>  (1) 
 SMILES O=C(COc1ccc(Nc2ccccc2)cc1)Nc1nnc[nH]1
 SMILES IDX 3 1 2 2 18 3 1 4 19 6 20 7 23 8 21 9 22 10 4 12 5 13 6 14
 SMILES IDX 17 15 7 16 16 17 8 18 9 19 10 21 11 22 15 23 12 24 14 25
 SMILES IDX 13 26
 H PARENT 18 5 23 11 9 20

>  <TORSDO>  (1) 
F 6

$$$$
