/home/pchatterjee/Documents/git/vs_workflow/DiffDock/diffdock_run/pdbqt_scrubbed/Z352550402.pdbqt
     RDKit          3D

 23 25  0  0  0  0  0  0  0  0999 V2000
   12.9848   61.8314   85.6683 C   0  0  0  0  0  2  0  0  0  0  0  0
   12.4462   61.2566   86.9526 C   0  0  0  0  0  0  0  0  0  0  0  0
   13.1158   60.1108   87.4713 N   0  0  0  0  0  0  0  0  0  0  0  0
   11.4517   61.7822   87.5193 O   0  0  0  0  0  0  0  0  0  0  0  0
   12.6512   59.5150   88.6695 C   0  0  0  0  0  0  0  0  0  0  0  0
   13.1624   58.3939   89.1986 N   0  0  0  0  0  0  0  0  0  0  0  0
   11.6505   59.9726   89.4398 N   0  0  0  0  0  0  0  0  0  0  0  0
   12.4872   58.1438   90.2995 N   0  0  0  0  0  0  0  0  0  0  0  0
   11.5483   59.1059   90.4684 C   0  0  0  0  0  3  0  0  0  0  0  0
   12.1976   62.9790   85.4007 O   0  0  0  0  0  0  0  0  0  0  0  0
   12.5391   63.9632   84.4949 C   0  0  0  0  0  0  0  0  0  0  0  0
   13.8406   64.4272   84.5309 C   0  0  0  0  0  3  0  0  0  0  0  0
   11.5961   64.4389   83.6071 C   0  0  0  0  0  3  0  0  0  0  0  0
   14.2701   65.4195   83.6523 C   0  0  0  0  0  3  0  0  0  0  0  0
   12.0222   65.4243   82.7342 C   0  0  0  0  0  3  0  0  0  0  0  0
   13.3154   65.9008   82.7537 C   0  0  0  0  0  0  0  0  0  0  0  0
   13.6351   66.9203   81.8015 N   0  0  0  0  0  0  0  0  0  0  0  0
   12.5345   67.6565   81.2754 C   0  0  0  0  0  0  0  0  0  0  0  0
   11.2225   67.3396   81.5085 C   0  0  0  0  0  3  0  0  0  0  0  0
   12.8693   68.7557   80.4827 C   0  0  0  0  0  3  0  0  0  0  0  0
   10.2213   68.1026   80.9628 C   0  0  0  0  0  3  0  0  0  0  0  0
   11.8580   69.4962   79.9532 C   0  0  0  0  0  3  0  0  0  0  0  0
   10.5341   69.1887   80.1795 C   0  0  0  0  0  3  0  0  0  0  0  0
  1  2  1  0
  2  3  1  0
  3  5  1  0
  4  2  2  0
  5  6  2  0
  6  8  1  0
  7  5  1  0
  7  9  1  0
  9  8  2  0
 10  1  1  0
 10 11  1  0
 11 13  1  0
 12 11  2  0
 12 14  1  0
 13 15  2  0
 14 16  2  0
 16 15  1  0
 16 17  1  0
 17 18  1  0
 18 19  2  0
 18 20  1  0
 19 21  1  0
 20 22  2  0
 21 23  2  0
 22 23  1  0
M  RAD  8   1   3   9   2  12   2  13   2  14   2  15   2  19   2  20   2
M  RAD  3  21   2  22   2  23   2
M  END
>  <REMARK>  (1) 
 SMILES O=C(COc1ccc(Nc2ccccc2)cc1)Nc1nnc[nH]1
 SMILES IDX 3 1 2 2 18 3 1 4 19 6 20 7 23 8 21 9 22 10 4 12 5 13 6 14
 SMILES IDX 17 15 7 16 16 17 8 18 9 19 10 21 11 22 15 23 12 24 14 25
 SMILES IDX 13 26
 H PARENT 18 5 23 11 9 20

>  <TORSDO>  (1) 
F 6

$$$$
