/home/pchatterjee/Documents/git/vs_workflow/DiffDock/diffdock_run/pdbqt_scrubbed/Z352550402.pdbqt
     RDKit          3D

 23 25  0  0  0  0  0  0  0  0999 V2000
    7.7397   44.4094   50.1026 C   0  0  0  0  0  2  0  0  0  0  0  0
    9.2013   44.7676   50.0301 C   0  0  0  0  0  0  0  0  0  0  0  0
    9.7981   45.2661   51.2242 N   0  0  0  0  0  0  0  0  0  0  0  0
    9.8409   44.6240   48.9545 O   0  0  0  0  0  0  0  0  0  0  0  0
    9.0597   46.1387   52.0606 C   0  0  0  0  0  0  0  0  0  0  0  0
    9.6129   47.0781   52.8414 N   0  0  0  0  0  0  0  0  0  0  0  0
    7.7234   46.1568   52.1953 N   0  0  0  0  0  0  0  0  0  0  0  0
    8.6296   47.6879   53.4674 N   0  0  0  0  0  0  0  0  0  0  0  0
    7.4535   47.1353   53.0838 C   0  0  0  0  0  3  0  0  0  0  0  0
    7.6241   43.1390   49.4853 O   0  0  0  0  0  0  0  0  0  0  0  0
    6.4246   42.5117   49.2140 C   0  0  0  0  0  0  0  0  0  0  0  0
    6.2689   41.9706   47.9518 C   0  0  0  0  0  3  0  0  0  0  0  0
    5.4466   42.4469   50.1852 C   0  0  0  0  0  3  0  0  0  0  0  0
    5.0903   41.3199   47.5936 C   0  0  0  0  0  3  0  0  0  0  0  0
    4.2759   41.8007   49.8300 C   0  0  0  0  0  3  0  0  0  0  0  0
    4.1005   41.2544   48.5767 C   0  0  0  0  0  0  0  0  0  0  0  0
    2.8457   40.6119   48.3297 N   0  0  0  0  0  0  0  0  0  0  0  0
    2.1134   41.0763   47.1991 C   0  0  0  0  0  0  0  0  0  0  0  0
    2.3558   40.6712   45.9134 C   0  0  0  0  0  3  0  0  0  0  0  0
    1.1010   41.9970   47.4745 C   0  0  0  0  0  3  0  0  0  0  0  0
    1.6026   41.1685   44.8801 C   0  0  0  0  0  3  0  0  0  0  0  0
    0.3684   42.4752   46.4323 C   0  0  0  0  0  3  0  0  0  0  0  0
    0.6014   42.0763   45.1342 C   0  0  0  0  0  3  0  0  0  0  0  0
  1  2  1  0
  2  3  1  0
  3  5  1  0
  4  2  2  0
  5  6  2  0
  6  8  1  0
  7  5  1  0
  7  9  1  0
  9  8  2  0
 10  1  1  0
 10 11  1  0
 11 13  1  0
 12 11  2  0
 12 14  1  0
 13 15  2  0
 14 16  2  0
 16 15  1  0
 16 17  1  0
 17 18  1  0
 18 19  2  0
 18 20  1  0
 19 21  1  0
 20 22  2  0
 21 23  2  0
 22 23  1  0
M  RAD  8   1   3   9   2  12   2  13   2  14   2  15   2  19   2  20   2
M  RAD  3  21   2  22   2  23   2
M  END
>  <REMARK>  (1) 
 SMILES O=C(COc1ccc(Nc2ccccc2)cc1)Nc1nnc[nH]1
 SMILES IDX 3 1 2 2 18 3 1 4 19 6 20 7 23 8 21 9 22 10 4 12 5 13 6 14
 SMILES IDX 17 15 7 16 16 17 8 18 9 19 10 21 11 22 15 23 12 24 14 25
 SMILES IDX 13 26
 H PARENT 18 5 23 11 9 20

>  <TORSDO>  (1) 
F 6

$$$$
