/home/pchatterjee/Documents/git/vs_workflow/DiffDock/diffdock_run/pdbqt_scrubbed/Z646214330.pdbqt
     RDKit          3D

 25 28  0  0  1  0  0  0  0  0999 V2000
    2.9219   42.3536   50.6618 C   0  0  0  0  0  2  0  0  0  0  0  0
    3.9265   41.9121   49.6643 C   0  0  0  0  0  0  0  0  0  0  0  0
    4.5159   40.5179   47.7775 C   0  0  0  0  0  3  0  0  0  0  0  0
    3.6098   40.9371   48.7068 C   0  0  0  0  0  3  0  0  0  0  0  0
    5.7886   41.0369   47.7375 C   0  0  0  0  0  3  0  0  0  0  0  0
    6.1380   42.0118   48.6785 C   0  0  0  0  0  0  0  0  0  0  0  0
    5.2145   42.4210   49.6054 C   0  0  0  0  0  3  0  0  0  0  0  0
    7.4441   42.5619   48.6607 N   0  0  0  0  0  0  0  0  0  0  0  0
    7.8965   43.5729   49.5464 C   0  0  0  0  0  0  0  0  0  0  0  0
    7.0994   44.1048   50.5028 N   0  0  0  0  0  0  0  0  0  0  0  0
    9.0789   44.1443   49.6062 O   0  0  0  0  0  0  0  0  0  0  0  0
    7.8127   45.0206   51.1607 C   0  0  0  0  0  0  0  0  0  0  0  0
    9.0831   45.0338   50.5715 C   0  0  0  0  0  0  0  0  0  0  0  0
    7.6041   45.8957   52.2117 C   0  0  0  0  0  3  0  0  0  0  0  0
   10.0381   45.8919   51.0521 C   0  0  0  0  0  3  0  0  0  0  0  0
    8.5617   46.7499   52.6867 C   0  0  0  0  0  3  0  0  0  0  0  0
    9.8064   46.7543   52.1000 C   0  0  0  0  0  3  0  0  0  0  0  0
    1.7912   41.5622   50.5123 O   0  0  0  0  0  0  0  0  0  0  0  0
    0.6970   42.0970   51.2325 C   0  0  0  0  0  2  0  0  0  0  0  0
   -0.5366   41.8683   50.3855 C   0  0  0  0  0  3  0  0  0  0  0  0
   -1.6934   42.4612   51.1241 C   0  0  0  0  0  2  0  0  0  0  0  0
   -0.7549   40.4839   50.3190 O   0  0  0  0  0  0  0  0  0  0  0  0
   -2.9751   41.7503   50.8320 C   0  0  0  0  0  2  0  0  0  0  0  0
   -1.6934   40.1908   49.3530 C   0  0  0  0  0  2  0  0  0  0  0  0
   -2.9630   41.0091   49.5344 C   0  0  0  0  0  2  0  0  0  0  0  0
  2  1  1  0
  2  7  2  0
  3  4  2  0
  3  5  1  0
  4  2  1  0
  5  6  2  0
  6  7  1  0
  6  8  1  0
  8  9  1  0
  9 10  2  0
  9 11  1  0
 10 12  1  0
 11 13  1  0
 12 13  2  0
 12 14  1  0
 13 15  1  0
 14 16  2  0
 15 17  2  0
 16 17  1  0
 18 19  1  0
 18  1  1  0
 20 22  1  0
 20 19  1  0
 20 21  1  0
 22 24  1  0
 23 21  1  0
 25 24  1  0
 25 23  1  0
M  RAD  8   1   3   3   2   4   2   5   2   7   2  14   2  15   2  16   2
M  RAD  7  17   2  19   3  20   2  21   3  23   3  24   3  25   3
M  END
>  <REMARK>  (1) 
 SMILES c1cc(COCC2CCCCO2)cc(Nc2nc3ccccc3o2)c1
 SMILES IDX 4 1 3 2 1 3 2 4 25 5 14 6 13 7 15 8 16 10 17 11 24 12 18 13
 SMILES IDX 23 14 19 15 22 16 20 17 21 18 5 19 6 20 7 21 8 22 12 23 9 24
 SMILES IDX 11 25 10 26
 H PARENT 15 9

>  <TORSDO>  (1) 
F 6

$$$$
