/home/pchatterjee/Documents/git/vs_workflow/DiffDock/diffdock_run/pdbqt_scrubbed/Z646214330.pdbqt
     RDKit          3D

 25 28  0  0  1  0  0  0  0  0999 V2000
    2.7129   43.0423   50.3082 C   0  0  0  0  0  2  0  0  0  0  0  0
    3.8251   42.3772   49.5873 C   0  0  0  0  0  0  0  0  0  0  0  0
    4.6681   40.4698   48.3616 C   0  0  0  0  0  3  0  0  0  0  0  0
    3.6609   41.0997   49.0318 C   0  0  0  0  0  3  0  0  0  0  0  0
    5.8974   41.0640   48.1990 C   0  0  0  0  0  3  0  0  0  0  0  0
    6.0955   42.3389   48.7409 C   0  0  0  0  0  0  0  0  0  0  0  0
    5.0719   42.9569   49.4116 C   0  0  0  0  0  3  0  0  0  0  0  0
    7.3539   42.9732   48.5894 N   0  0  0  0  0  0  0  0  0  0  0  0
    7.8942   43.9051   49.5118 C   0  0  0  0  0  0  0  0  0  0  0  0
    7.1229   44.5628   50.4094 N   0  0  0  0  0  0  0  0  0  0  0  0
    9.1445   44.2819   49.6624 O   0  0  0  0  0  0  0  0  0  0  0  0
    7.9218   45.3578   51.1235 C   0  0  0  0  0  0  0  0  0  0  0  0
    9.2183   45.1655   50.6303 C   0  0  0  0  0  0  0  0  0  0  0  0
    7.7775   46.2616   52.1611 C   0  0  0  0  0  3  0  0  0  0  0  0
   10.2592   45.8642   51.1852 C   0  0  0  0  0  3  0  0  0  0  0  0
    8.8206   46.9558   52.7105 C   0  0  0  0  0  3  0  0  0  0  0  0
   10.0903   46.7589   52.2178 C   0  0  0  0  0  3  0  0  0  0  0  0
    3.2414   43.6713   51.4272 O   0  0  0  0  0  0  0  0  0  0  0  0
    2.2401   43.9064   52.3990 C   0  0  0  0  0  2  0  0  0  0  0  0
    2.7399   45.0343   53.2763 C   0  0  0  0  0  3  0  0  0  0  0  0
    2.9092   46.2325   52.3984 C   0  0  0  0  0  2  0  0  0  0  0  0
    4.0154   44.6782   53.7397 O   0  0  0  0  0  0  0  0  0  0  0  0
    3.9926   47.1404   52.8837 C   0  0  0  0  0  2  0  0  0  0  0  0
    4.4147   45.5271   54.7495 C   0  0  0  0  0  2  0  0  0  0  0  0
    4.2908   46.9870   54.3400 C   0  0  0  0  0  2  0  0  0  0  0  0
  2  1  1  0
  2  7  2  0
  3  4  2  0
  3  5  1  0
  4  2  1  0
  5  6  2  0
  6  7  1  0
  6  8  1  0
  8  9  1  0
  9 10  2  0
  9 11  1  0
 10 12  1  0
 11 13  1  0
 12 13  2  0
 12 14  1  0
 13 15  1  0
 14 16  2  0
 15 17  2  0
 16 17  1  0
 18 19  1  0
 18  1  1  0
 20 22  1  0
 20 19  1  0
 20 21  1  0
 22 24  1  0
 23 21  1  0
 25 24  1  0
 25 23  1  0
M  RAD  8   1   3   3   2   4   2   5   2   7   2  14   2  15   2  16   2
M  RAD  7  17   2  19   3  20   2  21   3  23   3  24   3  25   3
M  END
>  <REMARK>  (1) 
 SMILES c1cc(COCC2CCCCO2)cc(Nc2nc3ccccc3o2)c1
 SMILES IDX 4 1 3 2 1 3 2 4 25 5 14 6 13 7 15 8 16 10 17 11 24 12 18 13
 SMILES IDX 23 14 19 15 22 16 20 17 21 18 5 19 6 20 7 21 8 22 12 23 9 24
 SMILES IDX 11 25 10 26
 H PARENT 15 9

>  <TORSDO>  (1) 
F 6

$$$$
