/home/pchatterjee/Documents/git/vs_workflow/DiffDock/diffdock_run/pdbqt_scrubbed/Z646214330.pdbqt
     RDKit          3D

 25 28  0  0  1  0  0  0  0  0999 V2000
    2.8331   42.4371   50.5576 C   0  0  0  0  0  2  0  0  0  0  0  0
    3.8651   42.0045   49.5846 C   0  0  0  0  0  0  0  0  0  0  0  0
    4.4861   40.6861   47.6540 C   0  0  0  0  0  3  0  0  0  0  0  0
    3.5547   41.0956   48.5623 C   0  0  0  0  0  3  0  0  0  0  0  0
    5.7796   41.1502   47.7002 C   0  0  0  0  0  3  0  0  0  0  0  0
    6.1236   42.0585   48.7076 C   0  0  0  0  0  0  0  0  0  0  0  0
    5.1745   42.4589   49.6122 C   0  0  0  0  0  3  0  0  0  0  0  0
    7.4507   42.5510   48.7792 N   0  0  0  0  0  0  0  0  0  0  0  0
    7.8646   43.6094   49.6275 C   0  0  0  0  0  0  0  0  0  0  0  0
    6.9893   44.3138   50.3830 N   0  0  0  0  0  0  0  0  0  0  0  0
    9.0772   44.0753   49.8284 O   0  0  0  0  0  0  0  0  0  0  0  0
    7.6848   45.2292   51.0602 C   0  0  0  0  0  0  0  0  0  0  0  0
    9.0256   45.0626   50.6920 C   0  0  0  0  0  0  0  0  0  0  0  0
    7.4093   46.2309   51.9738 C   0  0  0  0  0  3  0  0  0  0  0  0
    9.9800   45.8796   51.2408 C   0  0  0  0  0  3  0  0  0  0  0  0
    8.3666   47.0431   52.5179 C   0  0  0  0  0  3  0  0  0  0  0  0
    9.6809   46.8704   52.1487 C   0  0  0  0  0  3  0  0  0  0  0  0
    1.5874   42.1262   50.0295 O   0  0  0  0  0  0  0  0  0  0  0  0
    0.5508   42.7203   50.7876 C   0  0  0  0  0  2  0  0  0  0  0  0
   -0.6605   42.8001   49.8832 C   0  0  0  0  0  3  0  0  0  0  0  0
   -1.6037   41.7237   50.3153 C   0  0  0  0  0  2  0  0  0  0  0  0
   -0.2404   42.4835   48.5825 O   0  0  0  0  0  0  0  0  0  0  0  0
   -2.4364   41.2138   49.1839 C   0  0  0  0  0  2  0  0  0  0  0  0
   -1.2250   42.7955   47.6697 C   0  0  0  0  0  2  0  0  0  0  0  0
   -2.5636   42.1831   48.0536 C   0  0  0  0  0  2  0  0  0  0  0  0
  2  1  1  0
  2  7  2  0
  3  4  2  0
  3  5  1  0
  4  2  1  0
  5  6  2  0
  6  7  1  0
  6  8  1  0
  8  9  1  0
  9 10  2  0
  9 11  1  0
 10 12  1  0
 11 13  1  0
 12 13  2  0
 12 14  1  0
 13 15  1  0
 14 16  2  0
 15 17  2  0
 16 17  1  0
 18 19  1  0
 18  1  1  0
 20 22  1  0
 20 19  1  0
 20 21  1  0
 22 24  1  0
 23 21  1  0
 25 24  1  0
 25 23  1  0
M  RAD  8   1   3   3   2   4   2   5   2   7   2  14   2  15   2  16   2
M  RAD  7  17   2  19   3  20   2  21   3  23   3  24   3  25   3
M  END
>  <REMARK>  (1) 
 SMILES c1cc(COCC2CCCCO2)cc(Nc2nc3ccccc3o2)c1
 SMILES IDX 4 1 3 2 1 3 2 4 25 5 14 6 13 7 15 8 16 10 17 11 24 12 18 13
 SMILES IDX 23 14 19 15 22 16 20 17 21 18 5 19 6 20 7 21 8 22 12 23 9 24
 SMILES IDX 11 25 10 26
 H PARENT 15 9

>  <TORSDO>  (1) 
F 6

$$$$
