/home/pchatterjee/Documents/git/vs_workflow/DiffDock/diffdock_run/pdbqt_scrubbed/Z646214330.pdbqt
     RDKit          3D

 25 28  0  0  1  0  0  0  0  0999 V2000
    3.0069   42.2175   50.8472 C   0  0  0  0  0  2  0  0  0  0  0  0
    3.9535   41.9040   49.7496 C   0  0  0  0  0  0  0  0  0  0  0  0
    4.4076   40.8179   47.6365 C   0  0  0  0  0  3  0  0  0  0  0  0
    3.5559   41.1164   48.6591 C   0  0  0  0  0  3  0  0  0  0  0  0
    5.7027   41.2799   47.6290 C   0  0  0  0  0  3  0  0  0  0  0  0
    6.1325   42.0687   48.7019 C   0  0  0  0  0  0  0  0  0  0  0  0
    5.2627   42.3586   49.7213 C   0  0  0  0  0  3  0  0  0  0  0  0
    7.4632   42.5562   48.7200 N   0  0  0  0  0  0  0  0  0  0  0  0
    7.9183   43.6033   49.5613 C   0  0  0  0  0  0  0  0  0  0  0  0
    7.0830   44.2894   50.3766 N   0  0  0  0  0  0  0  0  0  0  0  0
    9.1377   44.0739   49.7015 O   0  0  0  0  0  0  0  0  0  0  0  0
    7.8104   45.1981   51.0288 C   0  0  0  0  0  0  0  0  0  0  0  0
    9.1293   45.0465   50.5830 C   0  0  0  0  0  0  0  0  0  0  0  0
    7.5812   46.1829   51.9733 C   0  0  0  0  0  3  0  0  0  0  0  0
   10.1084   45.8606   51.0908 C   0  0  0  0  0  3  0  0  0  0  0  0
    8.5631   46.9922   52.4762 C   0  0  0  0  0  3  0  0  0  0  0  0
    9.8554   46.8344   52.0306 C   0  0  0  0  0  3  0  0  0  0  0  0
    1.7168   42.1106   50.3457 O   0  0  0  0  0  0  0  0  0  0  0  0
    0.7582   42.4370   51.3339 C   0  0  0  0  0  2  0  0  0  0  0  0
   -0.6008   42.1302   50.7418 C   0  0  0  0  0  3  0  0  0  0  0  0
   -0.7359   40.6418   50.6986 C   0  0  0  0  0  2  0  0  0  0  0  0
   -0.5972   42.5833   49.4140 O   0  0  0  0  0  0  0  0  0  0  0  0
   -1.6081   40.1857   49.5740 C   0  0  0  0  0  2  0  0  0  0  0  0
   -1.8768   42.5811   48.9015 C   0  0  0  0  0  2  0  0  0  0  0  0
   -2.5581   41.2345   49.0936 C   0  0  0  0  0  2  0  0  0  0  0  0
  2  1  1  0
  2  7  2  0
  3  4  2  0
  3  5  1  0
  4  2  1  0
  5  6  2  0
  6  7  1  0
  6  8  1  0
  8  9  1  0
  9 10  2  0
  9 11  1  0
 10 12  1  0
 11 13  1  0
 12 13  2  0
 12 14  1  0
 13 15  1  0
 14 16  2  0
 15 17  2  0
 16 17  1  0
 18 19  1  0
 18  1  1  0
 20 22  1  0
 20 19  1  0
 20 21  1  0
 22 24  1  0
 23 21  1  0
 25 24  1  0
 25 23  1  0
M  RAD  8   1   3   3   2   4   2   5   2   7   2  14   2  15   2  16   2
M  RAD  7  17   2  19   3  20   2  21   3  23   3  24   3  25   3
M  END
>  <REMARK>  (1) 
 SMILES c1cc(COCC2CCCCO2)cc(Nc2nc3ccccc3o2)c1
 SMILES IDX 4 1 3 2 1 3 2 4 25 5 14 6 13 7 15 8 16 10 17 11 24 12 18 13
 SMILES IDX 23 14 19 15 22 16 20 17 21 18 5 19 6 20 7 21 8 22 12 23 9 24
 SMILES IDX 11 25 10 26
 H PARENT 15 9

>  <TORSDO>  (1) 
F 6

$$$$
