/home/pchatterjee/Documents/git/vs_workflow/DiffDock/diffdock_run/pdbqt_scrubbed/Z646214330.pdbqt
     RDKit          3D

 25 28  0  0  1  0  0  0  0  0999 V2000
    3.7082   39.9253   47.1625 C   0  0  0  0  0  2  0  0  0  0  0  0
    4.2918   40.7836   48.2218 C   0  0  0  0  0  0  0  0  0  0  0  0
    4.1231   41.7940   50.4130 C   0  0  0  0  0  3  0  0  0  0  0  0
    3.6049   41.0115   49.4233 C   0  0  0  0  0  3  0  0  0  0  0  0
    5.3509   42.3976   50.2759 C   0  0  0  0  0  3  0  0  0  0  0  0
    6.0634   42.1912   49.0893 C   0  0  0  0  0  0  0  0  0  0  0  0
    5.5270   41.4018   48.1051 C   0  0  0  0  0  3  0  0  0  0  0  0
    7.3306   42.8034   48.9213 N   0  0  0  0  0  0  0  0  0  0  0  0
    7.8103   43.8761   49.7152 C   0  0  0  0  0  0  0  0  0  0  0  0
    9.0970   44.2942   49.6630 N   0  0  0  0  0  0  0  0  0  0  0  0
    7.1547   44.6119   50.5852 O   0  0  0  0  0  0  0  0  0  0  0  0
    9.2279   45.3083   50.5201 C   0  0  0  0  0  0  0  0  0  0  0  0
    7.9700   45.4996   51.1051 C   0  0  0  0  0  0  0  0  0  0  0  0
   10.2429   46.1521   50.9349 C   0  0  0  0  0  3  0  0  0  0  0  0
    7.8063   46.4903   52.0385 C   0  0  0  0  0  3  0  0  0  0  0  0
   10.0729   47.1391   51.8671 C   0  0  0  0  0  3  0  0  0  0  0  0
    8.8325   47.3179   52.4354 C   0  0  0  0  0  3  0  0  0  0  0  0
    3.4623   40.7209   46.0518 O   0  0  0  0  0  0  0  0  0  0  0  0
    2.9835   39.9475   44.9680 C   0  0  0  0  0  2  0  0  0  0  0  0
    1.8421   40.7247   44.3478 C   0  0  0  0  0  3  0  0  0  0  0  0
    2.4405   41.6652   43.3515 C   0  0  0  0  0  2  0  0  0  0  0  0
    1.2631   41.5071   45.3583 O   0  0  0  0  0  0  0  0  0  0  0  0
    1.6307   42.9112   43.1928 C   0  0  0  0  0  2  0  0  0  0  0  0
    0.0615   42.0310   44.9321 C   0  0  0  0  0  2  0  0  0  0  0  0
    0.2015   42.7486   43.5980 C   0  0  0  0  0  2  0  0  0  0  0  0
  2  1  1  0
  2  7  2  0
  3  4  2  0
  3  5  1  0
  4  2  1  0
  5  6  2  0
  6  7  1  0
  6  8  1  0
  8  9  1  0
  9 10  2  0
  9 11  1  0
 10 12  1  0
 11 13  1  0
 12 13  2  0
 12 14  1  0
 13 15  1  0
 14 16  2  0
 15 17  2  0
 16 17  1  0
 18 19  1  0
 18  1  1  0
 20 22  1  0
 20 19  1  0
 20 21  1  0
 22 24  1  0
 23 21  1  0
 25 24  1  0
 25 23  1  0
M  RAD  8   1   3   3   2   4   2   5   2   7   2  14   2  15   2  16   2
M  RAD  7  17   2  19   3  20   2  21   3  23   3  24   3  25   3
M  END
>  <REMARK>  (1) 
 SMILES c1cc(COCC2CCCCO2)cc(Nc2nc3ccccc3o2)c1
 SMILES IDX 4 1 3 2 1 3 2 4 25 5 14 6 13 7 15 8 16 10 17 11 24 12 18 13
 SMILES IDX 23 14 19 15 22 16 20 17 21 18 5 19 6 20 7 21 8 22 12 23 9 24
 SMILES IDX 11 25 10 26
 H PARENT 15 9

>  <TORSDO>  (1) 
F 6

$$$$
