/home/pchatterjee/Documents/git/vs_workflow/DiffDock/diffdock_run/pdbqt_scrubbed/Z646214330.pdbqt
     RDKit          3D

 25 28  0  0  1  0  0  0  0  0999 V2000
   13.5182   61.1417   86.0913 C   0  0  0  0  0  2  0  0  0  0  0  0
   12.8130   62.1808   85.3025 C   0  0  0  0  0  0  0  0  0  0  0  0
   10.7415   63.1880   84.5640 C   0  0  0  0  0  3  0  0  0  0  0  0
   11.4118   62.2394   85.2791 C   0  0  0  0  0  3  0  0  0  0  0  0
   11.4148   64.1358   83.8298 C   0  0  0  0  0  3  0  0  0  0  0  0
   12.8138   64.1062   83.8310 C   0  0  0  0  0  0  0  0  0  0  0  0
   13.4709   63.1455   84.5554 C   0  0  0  0  0  3  0  0  0  0  0  0
   13.5324   65.0706   83.0810 N   0  0  0  0  0  0  0  0  0  0  0  0
   12.9331   66.1612   82.4010 C   0  0  0  0  0  0  0  0  0  0  0  0
   11.5998   66.3929   82.4414 N   0  0  0  0  0  0  0  0  0  0  0  0
   13.5067   67.0827   81.6594 O   0  0  0  0  0  0  0  0  0  0  0  0
   11.3558   67.4807   81.7084 C   0  0  0  0  0  0  0  0  0  0  0  0
   12.5924   67.9117   81.2123 C   0  0  0  0  0  0  0  0  0  0  0  0
   10.2467   68.2265   81.3506 C   0  0  0  0  0  3  0  0  0  0  0  0
   12.6457   69.0257   80.4151 C   0  0  0  0  0  3  0  0  0  0  0  0
   10.3066   69.3375   80.5544 C   0  0  0  0  0  3  0  0  0  0  0  0
   11.5272   69.7518   80.0725 C   0  0  0  0  0  3  0  0  0  0  0  0
   13.7511   61.6508   87.3616 O   0  0  0  0  0  0  0  0  0  0  0  0
   14.3918   60.6938   88.1836 C   0  0  0  0  0  2  0  0  0  0  0  0
   13.8529   60.8911   89.5844 C   0  0  0  0  0  3  0  0  0  0  0  0
   13.4247   59.5486   90.0841 C   0  0  0  0  0  2  0  0  0  0  0  0
   12.6988   61.6831   89.4875 O   0  0  0  0  0  0  0  0  0  0  0  0
   12.2948   59.6418   91.0578 C   0  0  0  0  0  2  0  0  0  0  0  0
   12.3113   62.1232   90.7348 C   0  0  0  0  0  2  0  0  0  0  0  0
   12.1918   60.9748   91.7254 C   0  0  0  0  0  2  0  0  0  0  0  0
  2  1  1  0
  2  7  2  0
  3  4  2  0
  3  5  1  0
  4  2  1  0
  5  6  2  0
  6  7  1  0
  6  8  1  0
  8  9  1  0
  9 10  2  0
  9 11  1  0
 10 12  1  0
 11 13  1  0
 12 13  2  0
 12 14  1  0
 13 15  1  0
 14 16  2  0
 15 17  2  0
 16 17  1  0
 18 19  1  0
 18  1  1  0
 20 22  1  0
 20 19  1  0
 20 21  1  0
 22 24  1  0
 23 21  1  0
 25 24  1  0
 25 23  1  0
M  RAD  8   1   3   3   2   4   2   5   2   7   2  14   2  15   2  16   2
M  RAD  7  17   2  19   3  20   2  21   3  23   3  24   3  25   3
M  END
>  <REMARK>  (1) 
 SMILES c1cc(COCC2CCCCO2)cc(Nc2nc3ccccc3o2)c1
 SMILES IDX 4 1 3 2 1 3 2 4 25 5 14 6 13 7 15 8 16 10 17 11 24 12 18 13
 SMILES IDX 23 14 19 15 22 16 20 17 21 18 5 19 6 20 7 21 8 22 12 23 9 24
 SMILES IDX 11 25 10 26
 H PARENT 15 9

>  <TORSDO>  (1) 
F 6

$$$$
