/home/pchatterjee/Documents/git/vs_workflow/DiffDock/diffdock_run/pdbqt_scrubbed/Z646214330.pdbqt
     RDKit          3D

 25 28  0  0  1  0  0  0  0  0999 V2000
    2.7936   42.4775   50.4839 C   0  0  0  0  0  2  0  0  0  0  0  0
    3.8416   42.0671   49.5184 C   0  0  0  0  0  0  0  0  0  0  0  0
    4.4795   40.8479   47.5290 C   0  0  0  0  0  3  0  0  0  0  0  0
    3.5333   41.2354   48.4317 C   0  0  0  0  0  3  0  0  0  0  0  0
    5.7865   41.2589   47.6448 C   0  0  0  0  0  3  0  0  0  0  0  0
    6.1287   42.0895   48.7177 C   0  0  0  0  0  0  0  0  0  0  0  0
    5.1647   42.4689   49.6155 C   0  0  0  0  0  3  0  0  0  0  0  0
    7.4695   42.5260   48.8616 N   0  0  0  0  0  0  0  0  0  0  0  0
    7.8955   43.4992   49.8010 C   0  0  0  0  0  0  0  0  0  0  0  0
    9.1999   43.6736   50.1191 N   0  0  0  0  0  0  0  0  0  0  0  0
    7.1681   44.3502   50.4900 O   0  0  0  0  0  0  0  0  0  0  0  0
    9.2687   44.6537   51.0218 C   0  0  0  0  0  0  0  0  0  0  0  0
    7.9536   45.0777   51.2496 C   0  0  0  0  0  0  0  0  0  0  0  0
   10.2638   45.3004   51.7328 C   0  0  0  0  0  3  0  0  0  0  0  0
    7.7188   46.0895   52.1443 C   0  0  0  0  0  3  0  0  0  0  0  0
   10.0229   46.3097   52.6246 C   0  0  0  0  0  3  0  0  0  0  0  0
    8.7266   46.7181   52.8405 C   0  0  0  0  0  3  0  0  0  0  0  0
    1.5622   42.0945   49.9701 O   0  0  0  0  0  0  0  0  0  0  0  0
    0.5014   42.6416   50.7300 C   0  0  0  0  0  2  0  0  0  0  0  0
   -0.6717   42.8051   49.7873 C   0  0  0  0  0  3  0  0  0  0  0  0
   -1.7710   41.9293   50.2971 C   0  0  0  0  0  2  0  0  0  0  0  0
   -0.2856   42.2979   48.5375 O   0  0  0  0  0  0  0  0  0  0  0  0
   -2.6546   41.4336   49.1985 C   0  0  0  0  0  2  0  0  0  0  0  0
   -1.1997   42.6556   47.5699 C   0  0  0  0  0  2  0  0  0  0  0  0
   -2.6200   42.2894   47.9739 C   0  0  0  0  0  2  0  0  0  0  0  0
  2  1  1  0
  2  7  2  0
  3  4  2  0
  3  5  1  0
  4  2  1  0
  5  6  2  0
  6  7  1  0
  6  8  1  0
  8  9  1  0
  9 10  2  0
  9 11  1  0
 10 12  1  0
 11 13  1  0
 12 13  2  0
 12 14  1  0
 13 15  1  0
 14 16  2  0
 15 17  2  0
 16 17  1  0
 18 19  1  0
 18  1  1  0
 20 22  1  0
 20 19  1  0
 20 21  1  0
 22 24  1  0
 23 21  1  0
 25 24  1  0
 25 23  1  0
M  RAD  8   1   3   3   2   4   2   5   2   7   2  14   2  15   2  16   2
M  RAD  7  17   2  19   3  20   2  21   3  23   3  24   3  25   3
M  END
>  <REMARK>  (1) 
 SMILES c1cc(COCC2CCCCO2)cc(Nc2nc3ccccc3o2)c1
 SMILES IDX 4 1 3 2 1 3 2 4 25 5 14 6 13 7 15 8 16 10 17 11 24 12 18 13
 SMILES IDX 23 14 19 15 22 16 20 17 21 18 5 19 6 20 7 21 8 22 12 23 9 24
 SMILES IDX 11 25 10 26
 H PARENT 15 9

>  <TORSDO>  (1) 
F 6

$$$$
