/home/pchatterjee/Documents/git/vs_workflow/DiffDock/diffdock_run/pdbqt_scrubbed/Z646214330.pdbqt
     RDKit          3D

 25 28  0  0  1  0  0  0  0  0999 V2000
    3.0682   42.0286   50.9137 C   0  0  0  0  0  2  0  0  0  0  0  0
    4.0126   41.8246   49.7887 C   0  0  0  0  0  0  0  0  0  0  0  0
    4.5208   40.8086   47.6532 C   0  0  0  0  0  3  0  0  0  0  0  0
    3.6703   41.0082   48.7006 C   0  0  0  0  0  3  0  0  0  0  0  0
    5.7598   41.4037   47.6171 C   0  0  0  0  0  3  0  0  0  0  0  0
    6.1335   42.2248   48.6869 C   0  0  0  0  0  0  0  0  0  0  0  0
    5.2659   42.4139   49.7314 C   0  0  0  0  0  3  0  0  0  0  0  0
    7.4060   42.8488   48.6757 N   0  0  0  0  0  0  0  0  0  0  0  0
    7.7951   43.8842   49.5633 C   0  0  0  0  0  0  0  0  0  0  0  0
    9.0626   44.3577   49.6092 N   0  0  0  0  0  0  0  0  0  0  0  0
    7.0627   44.5315   50.4424 O   0  0  0  0  0  0  0  0  0  0  0  0
    9.1031   45.3159   50.5369 C   0  0  0  0  0  0  0  0  0  0  0  0
    7.8092   45.4149   51.0633 C   0  0  0  0  0  0  0  0  0  0  0  0
   10.0561   46.1710   51.0611 C   0  0  0  0  0  3  0  0  0  0  0  0
    7.5528   46.3324   52.0491 C   0  0  0  0  0  3  0  0  0  0  0  0
    9.7938   47.0846   52.0452 C   0  0  0  0  0  3  0  0  0  0  0  0
    8.5187   47.1729   52.5551 C   0  0  0  0  0  3  0  0  0  0  0  0
    1.7777   41.9928   50.4033 O   0  0  0  0  0  0  0  0  0  0  0  0
    0.8452   42.4935   51.3423 C   0  0  0  0  0  2  0  0  0  0  0  0
   -0.5210   42.0170   50.8972 C   0  0  0  0  0  3  0  0  0  0  0  0
   -0.3953   40.5631   50.5721 C   0  0  0  0  0  2  0  0  0  0  0  0
   -0.8337   42.6819   49.7021 O   0  0  0  0  0  0  0  0  0  0  0  0
   -1.3584   40.1354   49.5123 C   0  0  0  0  0  2  0  0  0  0  0  0
   -2.1629   42.5016   49.3848 C   0  0  0  0  0  2  0  0  0  0  0  0
   -2.5494   41.0302   49.3932 C   0  0  0  0  0  2  0  0  0  0  0  0
  2  1  1  0
  2  7  2  0
  3  4  2  0
  3  5  1  0
  4  2  1  0
  5  6  2  0
  6  7  1  0
  6  8  1  0
  8  9  1  0
  9 10  2  0
  9 11  1  0
 10 12  1  0
 11 13  1  0
 12 13  2  0
 12 14  1  0
 13 15  1  0
 14 16  2  0
 15 17  2  0
 16 17  1  0
 18 19  1  0
 18  1  1  0
 20 22  1  0
 20 19  1  0
 20 21  1  0
 22 24  1  0
 23 21  1  0
 25 24  1  0
 25 23  1  0
M  RAD  8   1   3   3   2   4   2   5   2   7   2  14   2  15   2  16   2
M  RAD  7  17   2  19   3  20   2  21   3  23   3  24   3  25   3
M  END
>  <REMARK>  (1) 
 SMILES c1cc(COCC2CCCCO2)cc(Nc2nc3ccccc3o2)c1
 SMILES IDX 4 1 3 2 1 3 2 4 25 5 14 6 13 7 15 8 16 10 17 11 24 12 18 13
 SMILES IDX 23 14 19 15 22 16 20 17 21 18 5 19 6 20 7 21 8 22 12 23 9 24
 SMILES IDX 11 25 10 26
 H PARENT 15 9

>  <TORSDO>  (1) 
F 6

$$$$
