/home/pchatterjee/Documents/git/vs_workflow/DiffDock/diffdock_run/pdbqt_scrubbed/Z646214330.pdbqt
     RDKit          3D

 25 28  0  0  1  0  0  0  0  0999 V2000
    3.6434   40.1915   47.0310 C   0  0  0  0  0  2  0  0  0  0  0  0
    4.2616   41.0273   48.0885 C   0  0  0  0  0  0  0  0  0  0  0  0
    4.0839   42.1620   50.2173 C   0  0  0  0  0  3  0  0  0  0  0  0
    3.5354   41.3971   49.2302 C   0  0  0  0  0  3  0  0  0  0  0  0
    5.3825   42.6069   50.1365 C   0  0  0  0  0  3  0  0  0  0  0  0
    6.1357   42.2563   49.0106 C   0  0  0  0  0  0  0  0  0  0  0  0
    5.5680   41.4869   48.0280 C   0  0  0  0  0  3  0  0  0  0  0  0
    7.4762   42.7034   48.9013 N   0  0  0  0  0  0  0  0  0  0  0  0
    8.0280   43.7649   49.6628 C   0  0  0  0  0  0  0  0  0  0  0  0
    7.2737   44.5326   50.4843 N   0  0  0  0  0  0  0  0  0  0  0  0
    9.2751   44.1774   49.7148 O   0  0  0  0  0  0  0  0  0  0  0  0
    8.0799   45.4327   51.0501 C   0  0  0  0  0  0  0  0  0  0  0  0
    9.3632   45.1909   50.5443 C   0  0  0  0  0  0  0  0  0  0  0  0
    7.9519   46.4729   51.9533 C   0  0  0  0  0  3  0  0  0  0  0  0
   10.4079   45.9764   50.9579 C   0  0  0  0  0  3  0  0  0  0  0  0
    8.9987   47.2534   52.3620 C   0  0  0  0  0  3  0  0  0  0  0  0
   10.2553   47.0067   51.8583 C   0  0  0  0  0  3  0  0  0  0  0  0
    3.1552   41.0378   46.0449 O   0  0  0  0  0  0  0  0  0  0  0  0
    2.6404   40.3016   44.9517 C   0  0  0  0  0  2  0  0  0  0  0  0
    1.4240   41.0526   44.4539 C   0  0  0  0  0  3  0  0  0  0  0  0
    1.8173   41.7333   43.1822 C   0  0  0  0  0  2  0  0  0  0  0  0
    1.1345   42.0583   45.3883 O   0  0  0  0  0  0  0  0  0  0  0  0
    1.0528   42.9977   42.9579 C   0  0  0  0  0  2  0  0  0  0  0  0
   -0.1072   42.6028   45.1398 C   0  0  0  0  0  2  0  0  0  0  0  0
   -0.2485   43.0453   43.6911 C   0  0  0  0  0  2  0  0  0  0  0  0
  2  1  1  0
  2  7  2  0
  3  4  2  0
  3  5  1  0
  4  2  1  0
  5  6  2  0
  6  7  1  0
  6  8  1  0
  8  9  1  0
  9 10  2  0
  9 11  1  0
 10 12  1  0
 11 13  1  0
 12 13  2  0
 12 14  1  0
 13 15  1  0
 14 16  2  0
 15 17  2  0
 16 17  1  0
 18 19  1  0
 18  1  1  0
 20 22  1  0
 20 19  1  0
 20 21  1  0
 22 24  1  0
 23 21  1  0
 25 24  1  0
 25 23  1  0
M  RAD  8   1   3   3   2   4   2   5   2   7   2  14   2  15   2  16   2
M  RAD  7  17   2  19   3  20   2  21   3  23   3  24   3  25   3
M  END
>  <REMARK>  (1) 
 SMILES c1cc(COCC2CCCCO2)cc(Nc2nc3ccccc3o2)c1
 SMILES IDX 4 1 3 2 1 3 2 4 25 5 14 6 13 7 15 8 16 10 17 11 24 12 18 13
 SMILES IDX 23 14 19 15 22 16 20 17 21 18 5 19 6 20 7 21 8 22 12 23 9 24
 SMILES IDX 11 25 10 26
 H PARENT 15 9

>  <TORSDO>  (1) 
F 6

$$$$
