/home/pchatterjee/Documents/git/vs_workflow/DiffDock/diffdock_run/pdbqt_scrubbed/Z646214330.pdbqt
     RDKit          3D

 25 28  0  0  1  0  0  0  0  0999 V2000
    3.0254   42.1419   50.9589 C   0  0  0  0  0  2  0  0  0  0  0  0
    4.0014   41.8712   49.8757 C   0  0  0  0  0  0  0  0  0  0  0  0
    4.5881   40.6928   47.8464 C   0  0  0  0  0  3  0  0  0  0  0  0
    3.7078   40.9553   48.8547 C   0  0  0  0  0  3  0  0  0  0  0  0
    5.8104   41.3195   47.7855 C   0  0  0  0  0  3  0  0  0  0  0  0
    6.1356   42.2395   48.7886 C   0  0  0  0  0  0  0  0  0  0  0  0
    5.2387   42.4908   49.7945 C   0  0  0  0  0  3  0  0  0  0  0  0
    7.3901   42.8981   48.7508 N   0  0  0  0  0  0  0  0  0  0  0  0
    7.7789   43.9266   49.6464 C   0  0  0  0  0  0  0  0  0  0  0  0
    9.0367   44.4272   49.6691 N   0  0  0  0  0  0  0  0  0  0  0  0
    7.0550   44.5427   50.5544 O   0  0  0  0  0  0  0  0  0  0  0  0
    9.0797   45.3702   50.6120 C   0  0  0  0  0  0  0  0  0  0  0  0
    7.7976   45.4318   51.1719 C   0  0  0  0  0  0  0  0  0  0  0  0
   10.0269   46.2371   51.1273 C   0  0  0  0  0  3  0  0  0  0  0  0
    7.5463   46.3266   52.1797 C   0  0  0  0  0  3  0  0  0  0  0  0
    9.7697   47.1279   52.1334 C   0  0  0  0  0  3  0  0  0  0  0  0
    8.5062   47.1796   52.6761 C   0  0  0  0  0  3  0  0  0  0  0  0
    1.7833   41.6825   50.5428 O   0  0  0  0  0  0  0  0  0  0  0  0
    0.7805   41.9990   51.4895 C   0  0  0  0  0  2  0  0  0  0  0  0
   -0.5368   41.5439   50.8986 C   0  0  0  0  0  3  0  0  0  0  0  0
   -0.3612   40.1205   50.4765 C   0  0  0  0  0  2  0  0  0  0  0  0
   -0.7620   42.2950   49.7352 O   0  0  0  0  0  0  0  0  0  0  0  0
   -1.2275   39.7652   49.3117 C   0  0  0  0  0  2  0  0  0  0  0  0
   -2.0578   42.1259   49.2966 C   0  0  0  0  0  2  0  0  0  0  0  0
   -2.4194   40.6542   49.1624 C   0  0  0  0  0  2  0  0  0  0  0  0
  2  1  1  0
  2  7  2  0
  3  4  2  0
  3  5  1  0
  4  2  1  0
  5  6  2  0
  6  7  1  0
  6  8  1  0
  8  9  1  0
  9 10  2  0
  9 11  1  0
 10 12  1  0
 11 13  1  0
 12 13  2  0
 12 14  1  0
 13 15  1  0
 14 16  2  0
 15 17  2  0
 16 17  1  0
 18 19  1  0
 18  1  1  0
 20 22  1  0
 20 19  1  0
 20 21  1  0
 22 24  1  0
 23 21  1  0
 25 24  1  0
 25 23  1  0
M  RAD  8   1   3   3   2   4   2   5   2   7   2  14   2  15   2  16   2
M  RAD  7  17   2  19   3  20   2  21   3  23   3  24   3  25   3
M  END
>  <REMARK>  (1) 
 SMILES c1cc(COCC2CCCCO2)cc(Nc2nc3ccccc3o2)c1
 SMILES IDX 4 1 3 2 1 3 2 4 25 5 14 6 13 7 15 8 16 10 17 11 24 12 18 13
 SMILES IDX 23 14 19 15 22 16 20 17 21 18 5 19 6 20 7 21 8 22 12 23 9 24
 SMILES IDX 11 25 10 26
 H PARENT 15 9

>  <TORSDO>  (1) 
F 6

$$$$
