/home/pchatterjee/Documents/git/vs_workflow/DiffDock/diffdock_run/pdbqt_scrubbed/Z1614248048.pdbqt
     RDKit          3D

 32 36  0  0  1  0  0  0  0  0999 V2000
    7.0336   48.8917   54.2703 O   0  0  0  0  0  0  0  0  0  0  0  0
    6.7305   47.6771   54.0276 C   0  0  0  0  0  0  0  0  0  0  0  0
    5.6668   47.0841   54.8149 C   0  0  0  0  0  0  0  0  0  0  0  0
    5.7467   47.2044   56.1877 C   0  0  0  0  0  3  0  0  0  0  0  0
    4.5955   46.4024   54.2959 C   0  0  0  0  0  0  0  0  0  0  0  0
    4.7684   46.6468   56.9779 C   0  0  0  0  0  3  0  0  0  0  0  0
    3.6555   45.8689   55.0858 N   0  0  0  0  0  0  0  0  0  0  0  0
    3.7005   45.9647   56.4205 C   0  0  0  0  0  3  0  0  0  0  0  0
    4.5093   46.2783   52.9052 O   0  0  0  0  0  0  0  0  0  0  0  0
    3.3717   45.7101   52.3558 C   0  0  0  0  0  0  0  0  0  0  0  0
    2.2887   46.5681   52.1826 C   0  0  0  0  0  3  0  0  0  0  0  0
    3.2669   44.3887   51.9881 C   0  0  0  0  0  3  0  0  0  0  0  0
    1.1408   46.0382   51.6400 C   0  0  0  0  0  3  0  0  0  0  0  0
    2.1297   43.8982   51.4589 N   0  0  0  0  0  0  0  0  0  0  0  0
    1.0892   44.7161   51.2918 C   0  0  0  0  0  3  0  0  0  0  0  0
    7.4630   47.0362   53.0131 N   0  0  0  0  0  0  0  0  0  0  0  0
    8.4159   46.0000   53.3185 C   0  0  0  0  0  2  0  0  0  0  0  0
    7.3243   47.3663   51.5801 C   0  0  0  0  0  2  0  0  0  0  0  0
    9.8135   46.4261   52.9802 C   0  0  0  0  0  2  0  0  0  0  0  0
    8.6675   47.0854   50.9016 C   0  0  0  0  0  3  0  0  0  0  0  0
    9.8019   47.4061   51.8541 C   0  0  0  0  0  2  0  0  0  0  0  0
    8.7282   45.6693   50.4482 C   0  0  0  0  0  0  0  0  0  0  0  0
    9.7685   44.8948   50.1507 N   0  0  0  0  0  0  0  0  0  0  0  0
    7.6032   44.9325   50.2673 N   0  0  0  0  0  0  0  0  0  0  0  0
    9.3080   43.6889   49.7873 N   0  0  0  0  0  0  0  0  0  0  0  0
    7.9511   43.7050   49.8580 C   0  0  0  0  0  0  0  0  0  0  0  0
    7.0238   42.6009   49.5462 C   0  0  0  0  0  0  0  0  0  0  0  0
    7.2015   41.8739   48.3878 C   0  0  0  0  0  3  0  0  0  0  0  0
    5.9936   42.3246   50.4425 C   0  0  0  0  0  3  0  0  0  0  0  0
    6.3236   40.8520   48.1306 C   0  0  0  0  0  3  0  0  0  0  0  0
    5.1467   41.2809   50.1184 C   0  0  0  0  0  3  0  0  0  0  0  0
    5.2887   40.5404   48.9853 C   0  0  0  0  0  3  0  0  0  0  0  0
  2  1  2  0
  3  2  1  0
  3  4  2  0
  5  3  1  0
  6  4  1  0
  7  5  2  0
  7  8  1  0
  8  6  2  0
  9  5  1  0
 10  9  1  0
 11 10  2  0
 12 10  1  0
 13 11  1  0
 14 12  2  0
 15 14  1  0
 15 13  2  0
 16  2  1  0
 16 17  1  0
 18 16  1  0
 19 17  1  0
 20 22  1  0
 20 21  1  0
 20 18  1  0
 21 19  1  0
 23 22  2  0
 24 22  1  0
 25 23  1  0
 26 25  1  0
 26 24  2  0
 27 26  1  0
 28 27  2  0
 29 27  1  0
 30 28  1  0
 31 29  2  0
 32 31  1  0
 32 30  2  0
M  RAD  8   4   2   6   2   8   2  11   2  12   2  13   2  15   2  17   3
M  RAD  8  18   3  19   3  20   2  21   3  28   2  29   2  30   2  31   2
M  RAD  1  32   2
M  END
>  <REMARK>  (1) 
 SMILES O=C(c1cccnc1Oc1cccnc1)N1CCCC(c2n[nH]c(-c3ccccc3)n2)C1
 SMILES IDX 1 1 2 2 3 3 4 4 8 5 5 6 7 7 6 8 9 9 10 10 11 11 15 12 12 13
 SMILES IDX 14 14 13 15 16 16 17 17 32 18 18 19 20 20 19 21 21 22 22 23
 SMILES IDX 31 24 23 25 24 26 25 28 26 29 30 30 27 31 29 32 28 33
 H PARENT 23 27

>  <TORSDO>  (1) 
F 6

$$$$
