/home/pchatterjee/Documents/git/vs_workflow/DiffDock/diffdock_run/pdbqt_scrubbed/Z1614248048.pdbqt
     RDKit          3D

 32 36  0  0  1  0  0  0  0  0999 V2000
    6.9976   48.9610   54.2719 O   0  0  0  0  0  0  0  0  0  0  0  0
    6.6375   47.7605   54.0367 C   0  0  0  0  0  0  0  0  0  0  0  0
    5.5156   47.2394   54.7934 C   0  0  0  0  0  0  0  0  0  0  0  0
    5.4526   47.5512   56.1366 C   0  0  0  0  0  3  0  0  0  0  0  0
    4.5209   46.4497   54.2749 C   0  0  0  0  0  0  0  0  0  0  0  0
    4.4143   47.0689   56.8994 C   0  0  0  0  0  3  0  0  0  0  0  0
    3.5201   45.9928   55.0376 N   0  0  0  0  0  0  0  0  0  0  0  0
    3.4269   46.2738   56.3434 C   0  0  0  0  0  3  0  0  0  0  0  0
    4.5795   46.1314   52.9139 O   0  0  0  0  0  0  0  0  0  0  0  0
    3.5389   45.4098   52.3526 C   0  0  0  0  0  0  0  0  0  0  0  0
    2.4160   46.1487   51.9885 C   0  0  0  0  0  3  0  0  0  0  0  0
    3.5628   44.0499   52.1467 C   0  0  0  0  0  3  0  0  0  0  0  0
    1.3617   45.4648   51.4283 C   0  0  0  0  0  3  0  0  0  0  0  0
    2.5150   43.4076   51.5956 N   0  0  0  0  0  0  0  0  0  0  0  0
    1.4369   44.1110   51.2459 C   0  0  0  0  0  3  0  0  0  0  0  0
    7.3698   47.0637   53.0595 N   0  0  0  0  0  0  0  0  0  0  0  0
    8.1747   45.9192   53.4019 C   0  0  0  0  0  2  0  0  0  0  0  0
    7.3795   47.4400   51.6312 C   0  0  0  0  0  2  0  0  0  0  0  0
    9.6330   46.1912   53.1814 C   0  0  0  0  0  2  0  0  0  0  0  0
    8.7311   47.0237   51.0454 C   0  0  0  0  0  3  0  0  0  0  0  0
    9.8175   47.1916   52.0887 C   0  0  0  0  0  2  0  0  0  0  0  0
    8.6680   45.6205   50.5536 C   0  0  0  0  0  0  0  0  0  0  0  0
    9.6271   44.7137   50.3853 N   0  0  0  0  0  0  0  0  0  0  0  0
    7.4945   45.0509   50.1802 N   0  0  0  0  0  0  0  0  0  0  0  0
    9.0684   43.5898   49.9129 N   0  0  0  0  0  0  0  0  0  0  0  0
    7.7314   43.7937   49.7817 C   0  0  0  0  0  0  0  0  0  0  0  0
    6.7216   42.8349   49.2946 C   0  0  0  0  0  0  0  0  0  0  0  0
    7.0048   42.0538   48.1938 C   0  0  0  0  0  3  0  0  0  0  0  0
    5.5072   42.7467   49.9718 C   0  0  0  0  0  3  0  0  0  0  0  0
    6.0451   41.1704   47.7699 C   0  0  0  0  0  3  0  0  0  0  0  0
    4.5871   41.8349   49.4884 C   0  0  0  0  0  3  0  0  0  0  0  0
    4.8288   41.0468   48.4054 C   0  0  0  0  0  3  0  0  0  0  0  0
  2  1  2  0
  3  2  1  0
  3  4  2  0
  5  3  1  0
  6  4  1  0
  7  5  2  0
  7  8  1  0
  8  6  2  0
  9  5  1  0
 10  9  1  0
 11 10  2  0
 12 10  1  0
 13 11  1  0
 14 12  2  0
 15 14  1  0
 15 13  2  0
 16  2  1  0
 16 17  1  0
 18 16  1  0
 19 17  1  0
 20 22  1  0
 20 21  1  0
 20 18  1  0
 21 19  1  0
 23 22  2  0
 24 22  1  0
 25 23  1  0
 26 25  1  0
 26 24  2  0
 27 26  1  0
 28 27  2  0
 29 27  1  0
 30 28  1  0
 31 29  2  0
 32 31  1  0
 32 30  2  0
M  RAD  8   4   2   6   2   8   2  11   2  12   2  13   2  15   2  17   3
M  RAD  8  18   3  19   3  20   2  21   3  28   2  29   2  30   2  31   2
M  RAD  1  32   2
M  END
>  <REMARK>  (1) 
 SMILES O=C(c1cccnc1Oc1cccnc1)N1CCCC(c2n[nH]c(-c3ccccc3)n2)C1
 SMILES IDX 1 1 2 2 3 3 4 4 8 5 5 6 7 7 6 8 9 9 10 10 11 11 15 12 12 13
 SMILES IDX 14 14 13 15 16 16 17 17 32 18 18 19 20 20 19 21 21 22 22 23
 SMILES IDX 31 24 23 25 24 26 25 28 26 29 30 30 27 31 29 32 28 33
 H PARENT 23 27

>  <TORSDO>  (1) 
F 6

$$$$
