/home/pchatterjee/Documents/git/vs_workflow/DiffDock/diffdock_run/pdbqt_scrubbed/Z1614248048.pdbqt
     RDKit          3D

 32 36  0  0  1  0  0  0  0  0999 V2000
    8.2142   47.8597   55.2772 O   0  0  0  0  0  0  0  0  0  0  0  0
    7.5309   47.7097   54.2111 C   0  0  0  0  0  0  0  0  0  0  0  0
    6.2288   48.3459   54.1574 C   0  0  0  0  0  0  0  0  0  0  0  0
    6.1944   49.7252   54.1146 C   0  0  0  0  0  3  0  0  0  0  0  0
    5.0306   47.6780   54.1591 C   0  0  0  0  0  0  0  0  0  0  0  0
    4.9824   50.3749   54.0764 C   0  0  0  0  0  3  0  0  0  0  0  0
    3.8637   48.3328   54.1208 N   0  0  0  0  0  0  0  0  0  0  0  0
    3.7915   49.6692   54.0797 C   0  0  0  0  0  3  0  0  0  0  0  0
    5.0598   46.2801   54.2016 O   0  0  0  0  0  0  0  0  0  0  0  0
    3.9306   45.5775   53.8142 C   0  0  0  0  0  0  0  0  0  0  0  0
    3.0469   46.2610   52.9830 C   0  0  0  0  0  3  0  0  0  0  0  0
    3.6529   44.2861   54.1985 C   0  0  0  0  0  3  0  0  0  0  0  0
    1.9132   45.5946   52.5787 C   0  0  0  0  0  3  0  0  0  0  0  0
    2.5345   43.6591   53.7861 N   0  0  0  0  0  0  0  0  0  0  0  0
    1.6845   44.3101   52.9904 C   0  0  0  0  0  3  0  0  0  0  0  0
    8.1166   46.9397   53.1910 N   0  0  0  0  0  0  0  0  0  0  0  0
    8.8527   45.7380   53.4892 C   0  0  0  0  0  2  0  0  0  0  0  0
    8.0329   47.2919   51.7589 C   0  0  0  0  0  2  0  0  0  0  0  0
   10.3036   45.8849   53.1392 C   0  0  0  0  0  2  0  0  0  0  0  0
    9.2904   46.7561   51.0696 C   0  0  0  0  0  3  0  0  0  0  0  0
   10.4732   46.8496   52.0125 C   0  0  0  0  0  2  0  0  0  0  0  0
    9.0712   45.3556   50.6167 C   0  0  0  0  0  0  0  0  0  0  0  0
    9.8959   44.3118   50.5867 N   0  0  0  0  0  0  0  0  0  0  0  0
    7.8730   44.9460   50.1291 N   0  0  0  0  0  0  0  0  0  0  0  0
    9.2295   43.2604   50.0879 N   0  0  0  0  0  0  0  0  0  0  0  0
    7.9605   43.6504   49.7987 C   0  0  0  0  0  0  0  0  0  0  0  0
    6.8771   42.8271   49.2287 C   0  0  0  0  0  0  0  0  0  0  0  0
    5.6019   42.9359   49.7425 C   0  0  0  0  0  3  0  0  0  0  0  0
    7.1805   41.9635   48.1784 C   0  0  0  0  0  3  0  0  0  0  0  0
    4.6178   42.1588   49.1867 C   0  0  0  0  0  3  0  0  0  0  0  0
    6.1393   41.2108   47.6679 C   0  0  0  0  0  3  0  0  0  0  0  0
    4.8680   41.2893   48.1475 C   0  0  0  0  0  3  0  0  0  0  0  0
  2  1  2  0
  3  2  1  0
  3  4  2  0
  5  3  1  0
  6  4  1  0
  7  5  2  0
  7  8  1  0
  8  6  2  0
  9  5  1  0
 10  9  1  0
 11 10  2  0
 12 10  1  0
 13 11  1  0
 14 12  2  0
 15 14  1  0
 15 13  2  0
 16  2  1  0
 16 17  1  0
 18 16  1  0
 19 17  1  0
 20 22  1  0
 20 21  1  0
 20 18  1  0
 21 19  1  0
 23 22  2  0
 24 22  1  0
 25 23  1  0
 26 25  1  0
 26 24  2  0
 27 26  1  0
 28 27  2  0
 29 27  1  0
 30 28  1  0
 31 29  2  0
 32 31  1  0
 32 30  2  0
M  RAD  8   4   2   6   2   8   2  11   2  12   2  13   2  15   2  17   3
M  RAD  8  18   3  19   3  20   2  21   3  28   2  29   2  30   2  31   2
M  RAD  1  32   2
M  END
>  <REMARK>  (1) 
 SMILES O=C(c1cccnc1Oc1cccnc1)N1CCCC(c2n[nH]c(-c3ccccc3)n2)C1
 SMILES IDX 1 1 2 2 3 3 4 4 8 5 5 6 7 7 6 8 9 9 10 10 11 11 15 12 12 13
 SMILES IDX 14 14 13 15 16 16 17 17 32 18 18 19 20 20 19 21 21 22 22 23
 SMILES IDX 31 24 23 25 24 26 25 28 26 29 30 30 27 31 29 32 28 33
 H PARENT 23 27

>  <TORSDO>  (1) 
F 6

$$$$
