/home/pchatterjee/Documents/git/vs_workflow/DiffDock/diffdock_run/pdbqt_scrubbed/Z1614248048.pdbqt
     RDKit          3D

 32 36  0  0  1  0  0  0  0  0999 V2000
   10.9259   65.0114   83.0735 O   0  0  0  0  0  0  0  0  0  0  0  0
   10.0022   65.7622   82.6161 C   0  0  0  0  0  0  0  0  0  0  0  0
   10.4036   66.9981   81.9725 C   0  0  0  0  0  0  0  0  0  0  0  0
    9.4299   67.7166   81.3083 C   0  0  0  0  0  3  0  0  0  0  0  0
   11.6812   67.4977   81.9649 C   0  0  0  0  0  0  0  0  0  0  0  0
    9.7648   68.8887   80.6707 C   0  0  0  0  0  3  0  0  0  0  0  0
   11.9824   68.6413   81.3377 N   0  0  0  0  0  0  0  0  0  0  0  0
   11.0649   69.3640   80.6829 C   0  0  0  0  0  3  0  0  0  0  0  0
   12.6717   66.7739   82.6373 O   0  0  0  0  0  0  0  0  0  0  0  0
   13.9906   67.1805   82.5193 C   0  0  0  0  0  0  0  0  0  0  0  0
   14.9370   66.3468   83.1097 C   0  0  0  0  0  3  0  0  0  0  0  0
   14.3925   68.3255   81.8714 C   0  0  0  0  0  3  0  0  0  0  0  0
   16.2578   66.7195   83.0134 C   0  0  0  0  0  3  0  0  0  0  0  0
   15.6937   68.6644   81.7931 N   0  0  0  0  0  0  0  0  0  0  0  0
   16.6038   67.8694   82.3578 C   0  0  0  0  0  3  0  0  0  0  0  0
    8.6819   65.3087   82.7829 N   0  0  0  0  0  0  0  0  0  0  0  0
    8.3600   64.2747   83.7328 C   0  0  0  0  0  2  0  0  0  0  0  0
    7.5386   65.8387   82.0123 C   0  0  0  0  0  2  0  0  0  0  0  0
    7.8707   63.0347   83.0457 C   0  0  0  0  0  2  0  0  0  0  0  0
    6.5034   64.7190   81.8785 C   0  0  0  0  0  3  0  0  0  0  0  0
    7.2055   63.3815   81.7550 C   0  0  0  0  0  2  0  0  0  0  0  0
    5.5751   64.7353   83.0415 C   0  0  0  0  0  0  0  0  0  0  0  0
    5.4127   65.6304   84.0126 N   0  0  0  0  0  0  0  0  0  0  0  0
    4.6965   63.7253   83.2633 N   0  0  0  0  0  0  0  0  0  0  0  0
    4.4478   65.1926   84.8345 N   0  0  0  0  0  0  0  0  0  0  0  0
    3.9939   63.9987   84.3710 C   0  0  0  0  0  0  0  0  0  0  0  0
    2.9390   63.1511   84.9585 C   0  0  0  0  0  0  0  0  0  0  0  0
    2.7595   61.8680   84.4856 C   0  0  0  0  0  3  0  0  0  0  0  0
    2.1560   63.6784   85.9831 C   0  0  0  0  0  3  0  0  0  0  0  0
    1.7723   61.1061   85.0567 C   0  0  0  0  0  3  0  0  0  0  0  0
    1.1800   62.8537   86.5112 C   0  0  0  0  0  3  0  0  0  0  0  0
    0.9716   61.5825   86.0718 C   0  0  0  0  0  3  0  0  0  0  0  0
  2  1  2  0
  3  2  1  0
  3  4  2  0
  5  3  1  0
  6  4  1  0
  7  5  2  0
  7  8  1  0
  8  6  2  0
  9  5  1  0
 10  9  1  0
 11 10  2  0
 12 10  1  0
 13 11  1  0
 14 12  2  0
 15 14  1  0
 15 13  2  0
 16  2  1  0
 16 17  1  0
 18 16  1  0
 19 17  1  0
 20 22  1  0
 20 21  1  0
 20 18  1  0
 21 19  1  0
 23 22  2  0
 24 22  1  0
 25 23  1  0
 26 25  1  0
 26 24  2  0
 27 26  1  0
 28 27  2  0
 29 27  1  0
 30 28  1  0
 31 29  2  0
 32 31  1  0
 32 30  2  0
M  RAD  8   4   2   6   2   8   2  11   2  12   2  13   2  15   2  17   3
M  RAD  8  18   3  19   3  20   2  21   3  28   2  29   2  30   2  31   2
M  RAD  1  32   2
M  END
>  <REMARK>  (1) 
 SMILES O=C(c1cccnc1Oc1cccnc1)N1CCCC(c2n[nH]c(-c3ccccc3)n2)C1
 SMILES IDX 1 1 2 2 3 3 4 4 8 5 5 6 7 7 6 8 9 9 10 10 11 11 15 12 12 13
 SMILES IDX 14 14 13 15 16 16 17 17 32 18 18 19 20 20 19 21 21 22 22 23
 SMILES IDX 31 24 23 25 24 26 25 28 26 29 30 30 27 31 29 32 28 33
 H PARENT 23 27

>  <TORSDO>  (1) 
F 6

$$$$
