/home/pchatterjee/Documents/git/vs_workflow/DiffDock/diffdock_run/pdbqt_scrubbed/Z1614248048.pdbqt
     RDKit          3D

 32 36  0  0  1  0  0  0  0  0999 V2000
    6.8594   49.0074   54.0706 O   0  0  0  0  0  0  0  0  0  0  0  0
    6.5652   47.7811   53.8817 C   0  0  0  0  0  0  0  0  0  0  0  0
    5.4281   47.2479   54.6067 C   0  0  0  0  0  0  0  0  0  0  0  0
    5.2730   47.6340   55.9228 C   0  0  0  0  0  3  0  0  0  0  0  0
    4.5042   46.3789   54.0842 C   0  0  0  0  0  0  0  0  0  0  0  0
    4.2171   47.1442   56.6561 C   0  0  0  0  0  3  0  0  0  0  0  0
    3.4845   45.9163   54.8178 N   0  0  0  0  0  0  0  0  0  0  0  0
    3.3029   46.2679   56.0969 C   0  0  0  0  0  3  0  0  0  0  0  0
    4.6561   45.9850   52.7505 O   0  0  0  0  0  0  0  0  0  0  0  0
    3.6996   45.1567   52.1868 C   0  0  0  0  0  0  0  0  0  0  0  0
    3.9695   43.7917   52.2451 C   0  0  0  0  0  3  0  0  0  0  0  0
    2.5410   45.6033   51.5947 C   0  0  0  0  0  3  0  0  0  0  0  0
    3.0417   42.9383   51.6939 C   0  0  0  0  0  3  0  0  0  0  0  0
    1.6508   44.7434   51.0637 N   0  0  0  0  0  0  0  0  0  0  0  0
    1.9052   43.4350   51.1164 C   0  0  0  0  0  3  0  0  0  0  0  0
    7.3785   47.0700   52.9820 N   0  0  0  0  0  0  0  0  0  0  0  0
    8.1183   45.9070   53.4004 C   0  0  0  0  0  2  0  0  0  0  0  0
    7.5435   47.4489   51.5639 C   0  0  0  0  0  2  0  0  0  0  0  0
    9.5972   46.1465   53.3322 C   0  0  0  0  0  2  0  0  0  0  0  0
    8.9386   47.0034   51.1184 C   0  0  0  0  0  3  0  0  0  0  0  0
    9.9154   47.1447   52.2686 C   0  0  0  0  0  2  0  0  0  0  0  0
    8.8954   45.6031   50.6167 C   0  0  0  0  0  0  0  0  0  0  0  0
    9.8699   44.7184   50.4213 N   0  0  0  0  0  0  0  0  0  0  0  0
    7.7268   45.0110   50.2630 N   0  0  0  0  0  0  0  0  0  0  0  0
    9.3257   43.5864   49.9514 N   0  0  0  0  0  0  0  0  0  0  0  0
    7.9823   43.7623   49.8495 C   0  0  0  0  0  0  0  0  0  0  0  0
    6.9833   42.7857   49.3756 C   0  0  0  0  0  0  0  0  0  0  0  0
    5.8747   42.5201   50.1517 C   0  0  0  0  0  3  0  0  0  0  0  0
    7.1930   42.1629   48.1471 C   0  0  0  0  0  3  0  0  0  0  0  0
    4.9640   41.6097   49.6793 C   0  0  0  0  0  3  0  0  0  0  0  0
    6.2340   41.2565   47.7344 C   0  0  0  0  0  3  0  0  0  0  0  0
    5.1271   40.9671   48.4715 C   0  0  0  0  0  3  0  0  0  0  0  0
  2  1  2  0
  3  2  1  0
  3  4  2  0
  5  3  1  0
  6  4  1  0
  7  5  2  0
  7  8  1  0
  8  6  2  0
  9  5  1  0
 10  9  1  0
 11 10  2  0
 12 10  1  0
 13 11  1  0
 14 12  2  0
 15 14  1  0
 15 13  2  0
 16  2  1  0
 16 17  1  0
 18 16  1  0
 19 17  1  0
 20 22  1  0
 20 21  1  0
 20 18  1  0
 21 19  1  0
 23 22  2  0
 24 22  1  0
 25 23  1  0
 26 25  1  0
 26 24  2  0
 27 26  1  0
 28 27  2  0
 29 27  1  0
 30 28  1  0
 31 29  2  0
 32 31  1  0
 32 30  2  0
M  RAD  8   4   2   6   2   8   2  11   2  12   2  13   2  15   2  17   3
M  RAD  8  18   3  19   3  20   2  21   3  28   2  29   2  30   2  31   2
M  RAD  1  32   2
M  END
>  <REMARK>  (1) 
 SMILES O=C(c1cccnc1Oc1cccnc1)N1CCCC(c2n[nH]c(-c3ccccc3)n2)C1
 SMILES IDX 1 1 2 2 3 3 4 4 8 5 5 6 7 7 6 8 9 9 10 10 11 11 15 12 12 13
 SMILES IDX 14 14 13 15 16 16 17 17 32 18 18 19 20 20 19 21 21 22 22 23
 SMILES IDX 31 24 23 25 24 26 25 28 26 29 30 30 27 31 29 32 28 33
 H PARENT 23 27

>  <TORSDO>  (1) 
F 6

$$$$
