/home/pchatterjee/Documents/git/vs_workflow/DiffDock/diffdock_run/pdbqt_scrubbed/Z1614248048.pdbqt
     RDKit          3D

 32 36  0  0  1  0  0  0  0  0999 V2000
    8.0934   48.3257   54.9891 O   0  0  0  0  0  0  0  0  0  0  0  0
    7.3081   47.9682   54.0502 C   0  0  0  0  0  0  0  0  0  0  0  0
    5.9201   48.3765   54.1487 C   0  0  0  0  0  0  0  0  0  0  0  0
    5.6570   49.6123   54.7045 C   0  0  0  0  0  3  0  0  0  0  0  0
    4.8507   47.6195   53.7421 C   0  0  0  0  0  0  0  0  0  0  0  0
    4.3550   50.0382   54.8317 C   0  0  0  0  0  3  0  0  0  0  0  0
    3.5923   48.0561   53.8759 N   0  0  0  0  0  0  0  0  0  0  0  0
    3.2992   49.2480   54.4108 C   0  0  0  0  0  3  0  0  0  0  0  0
    5.1118   46.3666   53.1774 O   0  0  0  0  0  0  0  0  0  0  0  0
    4.0691   45.6699   52.5892 C   0  0  0  0  0  0  0  0  0  0  0  0
    3.7731   44.4316   53.1532 C   0  0  0  0  0  3  0  0  0  0  0  0
    3.3413   46.1272   51.5152 C   0  0  0  0  0  3  0  0  0  0  0  0
    2.7434   43.7104   52.5942 C   0  0  0  0  0  3  0  0  0  0  0  0
    2.3380   45.3986   50.9892 N   0  0  0  0  0  0  0  0  0  0  0  0
    2.0513   44.2114   51.5256 C   0  0  0  0  0  3  0  0  0  0  0  0
    7.8747   47.2120   53.0092 N   0  0  0  0  0  0  0  0  0  0  0  0
    8.7649   46.1127   53.2814 C   0  0  0  0  0  2  0  0  0  0  0  0
    7.6150   47.4772   51.5795 C   0  0  0  0  0  2  0  0  0  0  0  0
   10.1500   46.3942   52.7802 C   0  0  0  0  0  2  0  0  0  0  0  0
    8.8519   47.0425   50.7893 C   0  0  0  0  0  3  0  0  0  0  0  0
   10.1024   47.3107   51.6026 C   0  0  0  0  0  2  0  0  0  0  0  0
    8.7470   45.6047   50.4201 C   0  0  0  0  0  0  0  0  0  0  0  0
    9.6882   44.7100   50.1299 N   0  0  0  0  0  0  0  0  0  0  0  0
    7.5455   44.9810   50.3274 N   0  0  0  0  0  0  0  0  0  0  0  0
    9.0908   43.5406   49.8579 N   0  0  0  0  0  0  0  0  0  0  0  0
    7.7473   43.7028   49.9798 C   0  0  0  0  0  0  0  0  0  0  0  0
    6.6987   42.6864   49.7710 C   0  0  0  0  0  0  0  0  0  0  0  0
    5.6966   42.5447   50.7080 C   0  0  0  0  0  3  0  0  0  0  0  0
    6.7539   41.9002   48.6221 C   0  0  0  0  0  3  0  0  0  0  0  0
    4.7357   41.5928   50.4808 C   0  0  0  0  0  3  0  0  0  0  0  0
    5.7525   40.9611   48.4590 C   0  0  0  0  0  3  0  0  0  0  0  0
    4.7473   40.7906   49.3606 C   0  0  0  0  0  3  0  0  0  0  0  0
  2  1  2  0
  3  2  1  0
  3  4  2  0
  5  3  1  0
  6  4  1  0
  7  5  2  0
  7  8  1  0
  8  6  2  0
  9  5  1  0
 10  9  1  0
 11 10  2  0
 12 10  1  0
 13 11  1  0
 14 12  2  0
 15 14  1  0
 15 13  2  0
 16  2  1  0
 16 17  1  0
 18 16  1  0
 19 17  1  0
 20 22  1  0
 20 21  1  0
 20 18  1  0
 21 19  1  0
 23 22  2  0
 24 22  1  0
 25 23  1  0
 26 25  1  0
 26 24  2  0
 27 26  1  0
 28 27  2  0
 29 27  1  0
 30 28  1  0
 31 29  2  0
 32 31  1  0
 32 30  2  0
M  RAD  8   4   2   6   2   8   2  11   2  12   2  13   2  15   2  17   3
M  RAD  8  18   3  19   3  20   2  21   3  28   2  29   2  30   2  31   2
M  RAD  1  32   2
M  END
>  <REMARK>  (1) 
 SMILES O=C(c1cccnc1Oc1cccnc1)N1CCCC(c2n[nH]c(-c3ccccc3)n2)C1
 SMILES IDX 1 1 2 2 3 3 4 4 8 5 5 6 7 7 6 8 9 9 10 10 11 11 15 12 12 13
 SMILES IDX 14 14 13 15 16 16 17 17 32 18 18 19 20 20 19 21 21 22 22 23
 SMILES IDX 31 24 23 25 24 26 25 28 26 29 30 30 27 31 29 32 28 33
 H PARENT 23 27

>  <TORSDO>  (1) 
F 6

$$$$
