/home/pchatterjee/Documents/git/vs_workflow/DiffDock/diffdock_run/pdbqt_scrubbed/Z1614248048.pdbqt
     RDKit          3D

 32 36  0  0  1  0  0  0  0  0999 V2000
    7.2589   48.8090   54.2683 O   0  0  0  0  0  0  0  0  0  0  0  0
    6.9164   47.6038   54.0308 C   0  0  0  0  0  0  0  0  0  0  0  0
    5.8174   47.0574   54.8031 C   0  0  0  0  0  0  0  0  0  0  0  0
    5.7862   47.3378   56.1543 C   0  0  0  0  0  3  0  0  0  0  0  0
    4.8152   46.2727   54.2915 C   0  0  0  0  0  0  0  0  0  0  0  0
    4.7707   46.8306   56.9315 C   0  0  0  0  0  3  0  0  0  0  0  0
    3.8370   45.7912   55.0683 N   0  0  0  0  0  0  0  0  0  0  0  0
    3.7749   46.0414   56.3821 C   0  0  0  0  0  3  0  0  0  0  0  0
    4.8415   45.9862   52.9225 O   0  0  0  0  0  0  0  0  0  0  0  0
    3.7855   45.2816   52.3683 C   0  0  0  0  0  0  0  0  0  0  0  0
    2.6826   46.0421   51.9881 C   0  0  0  0  0  3  0  0  0  0  0  0
    3.7765   43.9185   52.1839 C   0  0  0  0  0  3  0  0  0  0  0  0
    1.6138   45.3757   51.4345 C   0  0  0  0  0  3  0  0  0  0  0  0
    2.7153   43.2936   51.6387 N   0  0  0  0  0  0  0  0  0  0  0  0
    1.6561   44.0178   51.2737 C   0  0  0  0  0  3  0  0  0  0  0  0
    7.6439   46.9270   53.0362 N   0  0  0  0  0  0  0  0  0  0  0  0
    8.4871   45.8045   53.3588 C   0  0  0  0  0  2  0  0  0  0  0  0
    7.6100   47.3036   51.6083 C   0  0  0  0  0  2  0  0  0  0  0  0
    9.9320   46.1156   53.1042 C   0  0  0  0  0  2  0  0  0  0  0  0
    8.9581   46.9238   50.9906 C   0  0  0  0  0  3  0  0  0  0  0  0
   10.0639   47.1207   52.0082 C   0  0  0  0  0  2  0  0  0  0  0  0
    8.9212   45.5195   50.4994 C   0  0  0  0  0  0  0  0  0  0  0  0
    9.9050   44.6595   50.2482 N   0  0  0  0  0  0  0  0  0  0  0  0
    7.7491   44.8946   50.2219 N   0  0  0  0  0  0  0  0  0  0  0  0
    9.3630   43.5105   49.8186 N   0  0  0  0  0  0  0  0  0  0  0  0
    8.0117   43.6504   49.7996 C   0  0  0  0  0  0  0  0  0  0  0  0
    7.0116   42.6448   49.3934 C   0  0  0  0  0  0  0  0  0  0  0  0
    7.1893   41.9504   48.2152 C   0  0  0  0  0  3  0  0  0  0  0  0
    5.9143   42.4254   50.2234 C   0  0  0  0  0  3  0  0  0  0  0  0
    6.2425   41.0201   47.8697 C   0  0  0  0  0  3  0  0  0  0  0  0
    5.0002   41.4732   49.8118 C   0  0  0  0  0  3  0  0  0  0  0  0
    5.1399   40.7676   48.6564 C   0  0  0  0  0  3  0  0  0  0  0  0
  2  1  2  0
  3  2  1  0
  3  4  2  0
  5  3  1  0
  6  4  1  0
  7  5  2  0
  7  8  1  0
  8  6  2  0
  9  5  1  0
 10  9  1  0
 11 10  2  0
 12 10  1  0
 13 11  1  0
 14 12  2  0
 15 14  1  0
 15 13  2  0
 16  2  1  0
 16 17  1  0
 18 16  1  0
 19 17  1  0
 20 22  1  0
 20 21  1  0
 20 18  1  0
 21 19  1  0
 23 22  2  0
 24 22  1  0
 25 23  1  0
 26 25  1  0
 26 24  2  0
 27 26  1  0
 28 27  2  0
 29 27  1  0
 30 28  1  0
 31 29  2  0
 32 31  1  0
 32 30  2  0
M  RAD  8   4   2   6   2   8   2  11   2  12   2  13   2  15   2  17   3
M  RAD  8  18   3  19   3  20   2  21   3  28   2  29   2  30   2  31   2
M  RAD  1  32   2
M  END
>  <REMARK>  (1) 
 SMILES O=C(c1cccnc1Oc1cccnc1)N1CCCC(c2n[nH]c(-c3ccccc3)n2)C1
 SMILES IDX 1 1 2 2 3 3 4 4 8 5 5 6 7 7 6 8 9 9 10 10 11 11 15 12 12 13
 SMILES IDX 14 14 13 15 16 16 17 17 32 18 18 19 20 20 19 21 21 22 22 23
 SMILES IDX 31 24 23 25 24 26 25 28 26 29 30 30 27 31 29 32 28 33
 H PARENT 23 27

>  <TORSDO>  (1) 
F 6

$$$$
