/home/pchatterjee/Documents/git/vs_workflow/DiffDock/diffdock_run/pdbqt_scrubbed/Z1614248048.pdbqt
     RDKit          3D

 32 36  0  0  1  0  0  0  0  0999 V2000
    8.0229   47.7152   55.3178 O   0  0  0  0  0  0  0  0  0  0  0  0
    7.2382   47.0962   54.5258 C   0  0  0  0  0  0  0  0  0  0  0  0
    5.8348   47.0383   54.8864 C   0  0  0  0  0  0  0  0  0  0  0  0
    5.3984   45.9231   55.5729 C   0  0  0  0  0  3  0  0  0  0  0  0
    4.9085   48.0038   54.5841 C   0  0  0  0  0  0  0  0  0  0  0  0
    4.0729   45.8162   55.9253 C   0  0  0  0  0  3  0  0  0  0  0  0
    3.6238   47.8773   54.9384 N   0  0  0  0  0  0  0  0  0  0  0  0
    3.1645   46.8099   55.6037 C   0  0  0  0  0  3  0  0  0  0  0  0
    5.3456   49.1365   53.8892 O   0  0  0  0  0  0  0  0  0  0  0  0
    4.5387   50.2623   53.8743 C   0  0  0  0  0  0  0  0  0  0  0  0
    3.4265   50.1998   53.0386 C   0  0  0  0  0  3  0  0  0  0  0  0
    4.7767   51.3949   54.6177 C   0  0  0  0  0  3  0  0  0  0  0  0
    2.6023   51.3006   52.9973 C   0  0  0  0  0  3  0  0  0  0  0  0
    3.9513   52.4575   54.5568 N   0  0  0  0  0  0  0  0  0  0  0  0
    2.8850   52.4027   53.7571 C   0  0  0  0  0  3  0  0  0  0  0  0
    7.8197   46.5326   53.3766 N   0  0  0  0  0  0  0  0  0  0  0  0
    8.5863   45.3150   53.4458 C   0  0  0  0  0  2  0  0  0  0  0  0
    7.7007   47.1300   52.0309 C   0  0  0  0  0  2  0  0  0  0  0  0
   10.0267   45.5560   53.1047 C   0  0  0  0  0  2  0  0  0  0  0  0
    8.9552   46.7546   51.2381 C   0  0  0  0  0  3  0  0  0  0  0  0
   10.1541   46.7083   52.1640 C   0  0  0  0  0  2  0  0  0  0  0  0
    8.7563   45.4513   50.5479 C   0  0  0  0  0  0  0  0  0  0  0  0
    9.6342   44.5310   50.1567 N   0  0  0  0  0  0  0  0  0  0  0  0
    7.5198   45.0118   50.2026 N   0  0  0  0  0  0  0  0  0  0  0  0
    8.9631   43.5271   49.5735 N   0  0  0  0  0  0  0  0  0  0  0  0
    7.6369   43.8214   49.5986 C   0  0  0  0  0  0  0  0  0  0  0  0
    6.5274   43.0072   49.0674 C   0  0  0  0  0  0  0  0  0  0  0  0
    5.3436   42.9342   49.7713 C   0  0  0  0  0  3  0  0  0  0  0  0
    6.7128   42.3373   47.8600 C   0  0  0  0  0  3  0  0  0  0  0  0
    4.3315   42.1713   49.2470 C   0  0  0  0  0  3  0  0  0  0  0  0
    5.6499   41.5871   47.3920 C   0  0  0  0  0  3  0  0  0  0  0  0
    4.4665   41.4898   48.0571 C   0  0  0  0  0  3  0  0  0  0  0  0
  2  1  2  0
  3  2  1  0
  3  4  2  0
  5  3  1  0
  6  4  1  0
  7  5  2  0
  7  8  1  0
  8  6  2  0
  9  5  1  0
 10  9  1  0
 11 10  2  0
 12 10  1  0
 13 11  1  0
 14 12  2  0
 15 14  1  0
 15 13  2  0
 16  2  1  0
 16 17  1  0
 18 16  1  0
 19 17  1  0
 20 22  1  0
 20 21  1  0
 20 18  1  0
 21 19  1  0
 23 22  2  0
 24 22  1  0
 25 23  1  0
 26 25  1  0
 26 24  2  0
 27 26  1  0
 28 27  2  0
 29 27  1  0
 30 28  1  0
 31 29  2  0
 32 31  1  0
 32 30  2  0
M  RAD  8   4   2   6   2   8   2  11   2  12   2  13   2  15   2  17   3
M  RAD  8  18   3  19   3  20   2  21   3  28   2  29   2  30   2  31   2
M  RAD  1  32   2
M  END
>  <REMARK>  (1) 
 SMILES O=C(c1cccnc1Oc1cccnc1)N1CCCC(c2n[nH]c(-c3ccccc3)n2)C1
 SMILES IDX 1 1 2 2 3 3 4 4 8 5 5 6 7 7 6 8 9 9 10 10 11 11 15 12 12 13
 SMILES IDX 14 14 13 15 16 16 17 17 32 18 18 19 20 20 19 21 21 22 22 23
 SMILES IDX 31 24 23 25 24 26 25 28 26 29 30 30 27 31 29 32 28 33
 H PARENT 23 27

>  <TORSDO>  (1) 
F 6

$$$$
