/home/pchatterjee/Documents/git/vs_workflow/DiffDock/diffdock_run/pdbqt_scrubbed/Z1614248048.pdbqt
     RDKit          3D

 32 36  0  0  1  0  0  0  0  0999 V2000
    8.1746   47.9996   55.2019 O   0  0  0  0  0  0  0  0  0  0  0  0
    7.4677   47.8343   54.1537 C   0  0  0  0  0  0  0  0  0  0  0  0
    6.1482   48.4356   54.1363 C   0  0  0  0  0  0  0  0  0  0  0  0
    6.0731   49.8109   54.2278 C   0  0  0  0  0  3  0  0  0  0  0  0
    4.9708   47.7371   54.0488 C   0  0  0  0  0  0  0  0  0  0  0  0
    4.8429   50.4268   54.2290 C   0  0  0  0  0  3  0  0  0  0  0  0
    3.7855   48.3594   54.0512 N   0  0  0  0  0  0  0  0  0  0  0  0
    3.6739   49.6907   54.1394 C   0  0  0  0  0  3  0  0  0  0  0  0
    5.0413   46.3432   53.9550 O   0  0  0  0  0  0  0  0  0  0  0  0
    3.9936   45.6612   53.3583 C   0  0  0  0  0  0  0  0  0  0  0  0
    3.2244   46.3972   52.4606 C   0  0  0  0  0  3  0  0  0  0  0  0
    3.6899   44.3420   53.6027 C   0  0  0  0  0  3  0  0  0  0  0  0
    2.1740   45.7525   51.8491 C   0  0  0  0  0  3  0  0  0  0  0  0
    2.6550   43.7373   52.9884 N   0  0  0  0  0  0  0  0  0  0  0  0
    1.9148   44.4385   52.1283 C   0  0  0  0  0  3  0  0  0  0  0  0
    8.0466   47.0828   53.1160 N   0  0  0  0  0  0  0  0  0  0  0  0
    8.8248   45.9022   53.3911 C   0  0  0  0  0  2  0  0  0  0  0  0
    7.9131   47.4344   51.6876 C   0  0  0  0  0  2  0  0  0  0  0  0
   10.2606   46.0911   53.0012 C   0  0  0  0  0  2  0  0  0  0  0  0
    9.1657   46.9358   50.9625 C   0  0  0  0  0  3  0  0  0  0  0  0
   10.3712   47.0618   51.8724 C   0  0  0  0  0  2  0  0  0  0  0  0
    8.9742   45.5302   50.5127 C   0  0  0  0  0  0  0  0  0  0  0  0
    9.8470   44.5363   50.3687 N   0  0  0  0  0  0  0  0  0  0  0  0
    7.7522   45.0577   50.1598 N   0  0  0  0  0  0  0  0  0  0  0  0
    9.1871   43.4539   49.9314 N   0  0  0  0  0  0  0  0  0  0  0  0
    7.8731   43.7731   49.7981 C   0  0  0  0  0  0  0  0  0  0  0  0
    6.7787   42.8951   49.3425 C   0  0  0  0  0  0  0  0  0  0  0  0
    6.9286   42.1760   48.1753 C   0  0  0  0  0  3  0  0  0  0  0  0
    5.6224   42.8179   50.1159 C   0  0  0  0  0  3  0  0  0  0  0  0
    5.8931   41.3666   47.7829 C   0  0  0  0  0  3  0  0  0  0  0  0
    4.6199   41.9824   49.6592 C   0  0  0  0  0  3  0  0  0  0  0  0
    4.7296   41.2570   48.5129 C   0  0  0  0  0  3  0  0  0  0  0  0
  2  1  2  0
  3  2  1  0
  3  4  2  0
  5  3  1  0
  6  4  1  0
  7  5  2  0
  7  8  1  0
  8  6  2  0
  9  5  1  0
 10  9  1  0
 11 10  2  0
 12 10  1  0
 13 11  1  0
 14 12  2  0
 15 14  1  0
 15 13  2  0
 16  2  1  0
 16 17  1  0
 18 16  1  0
 19 17  1  0
 20 22  1  0
 20 21  1  0
 20 18  1  0
 21 19  1  0
 23 22  2  0
 24 22  1  0
 25 23  1  0
 26 25  1  0
 26 24  2  0
 27 26  1  0
 28 27  2  0
 29 27  1  0
 30 28  1  0
 31 29  2  0
 32 31  1  0
 32 30  2  0
M  RAD  8   4   2   6   2   8   2  11   2  12   2  13   2  15   2  17   3
M  RAD  8  18   3  19   3  20   2  21   3  28   2  29   2  30   2  31   2
M  RAD  1  32   2
M  END
>  <REMARK>  (1) 
 SMILES O=C(c1cccnc1Oc1cccnc1)N1CCCC(c2n[nH]c(-c3ccccc3)n2)C1
 SMILES IDX 1 1 2 2 3 3 4 4 8 5 5 6 7 7 6 8 9 9 10 10 11 11 15 12 12 13
 SMILES IDX 14 14 13 15 16 16 17 17 32 18 18 19 20 20 19 21 21 22 22 23
 SMILES IDX 31 24 23 25 24 26 25 28 26 29 30 30 27 31 29 32 28 33
 H PARENT 23 27

>  <TORSDO>  (1) 
F 6

$$$$
