/home/pchatterjee/Documents/git/vs_workflow/DiffDock/diffdock_run/pdbqt_scrubbed/Z1614248048.pdbqt
     RDKit          3D

 32 36  0  0  1  0  0  0  0  0999 V2000
    7.1634   48.9664   54.1716 O   0  0  0  0  0  0  0  0  0  0  0  0
    6.8122   47.7602   53.9534 C   0  0  0  0  0  0  0  0  0  0  0  0
    5.7062   47.2356   54.7310 C   0  0  0  0  0  0  0  0  0  0  0  0
    5.6596   47.5593   56.0720 C   0  0  0  0  0  3  0  0  0  0  0  0
    4.7118   46.4319   54.2341 C   0  0  0  0  0  0  0  0  0  0  0  0
    4.6370   47.0744   56.8541 C   0  0  0  0  0  3  0  0  0  0  0  0
    3.7264   45.9727   55.0154 N   0  0  0  0  0  0  0  0  0  0  0  0
    3.6493   46.2649   56.3198 C   0  0  0  0  0  3  0  0  0  0  0  0
    4.7538   46.1015   52.8755 O   0  0  0  0  0  0  0  0  0  0  0  0
    3.6766   45.4320   52.3184 C   0  0  0  0  0  0  0  0  0  0  0  0
    2.6090   46.2305   51.9160 C   0  0  0  0  0  3  0  0  0  0  0  0
    3.6154   44.0680   52.1514 C   0  0  0  0  0  3  0  0  0  0  0  0
    1.5206   45.5997   51.3589 C   0  0  0  0  0  3  0  0  0  0  0  0
    2.5361   43.4785   51.6023 N   0  0  0  0  0  0  0  0  0  0  0  0
    1.5106   44.2392   51.2160 C   0  0  0  0  0  3  0  0  0  0  0  0
    7.5377   47.0608   52.9730 N   0  0  0  0  0  0  0  0  0  0  0  0
    8.4002   45.9612   53.3223 C   0  0  0  0  0  2  0  0  0  0  0  0
    7.4821   47.3894   51.5340 C   0  0  0  0  0  2  0  0  0  0  0  0
    9.8376   46.2834   53.0405 C   0  0  0  0  0  2  0  0  0  0  0  0
    8.8283   47.0078   50.9131 C   0  0  0  0  0  3  0  0  0  0  0  0
    9.9428   47.2534   51.9104 C   0  0  0  0  0  2  0  0  0  0  0  0
    8.8055   45.5876   50.4689 C   0  0  0  0  0  0  0  0  0  0  0  0
    9.7973   44.7260   50.2578 N   0  0  0  0  0  0  0  0  0  0  0  0
    7.6405   44.9463   50.1994 N   0  0  0  0  0  0  0  0  0  0  0  0
    9.2672   43.5599   49.8609 N   0  0  0  0  0  0  0  0  0  0  0  0
    7.9153   43.6904   49.8220 C   0  0  0  0  0  0  0  0  0  0  0  0
    6.9261   42.6653   49.4386 C   0  0  0  0  0  0  0  0  0  0  0  0
    5.8760   42.3863   50.2880 C   0  0  0  0  0  3  0  0  0  0  0  0
    7.0849   42.0114   48.2187 C   0  0  0  0  0  3  0  0  0  0  0  0
    4.9726   41.4305   49.8989 C   0  0  0  0  0  3  0  0  0  0  0  0
    6.1366   41.0598   47.8919 C   0  0  0  0  0  3  0  0  0  0  0  0
    5.0867   40.7559   48.7029 C   0  0  0  0  0  3  0  0  0  0  0  0
  2  1  2  0
  3  2  1  0
  3  4  2  0
  5  3  1  0
  6  4  1  0
  7  5  2  0
  7  8  1  0
  8  6  2  0
  9  5  1  0
 10  9  1  0
 11 10  2  0
 12 10  1  0
 13 11  1  0
 14 12  2  0
 15 14  1  0
 15 13  2  0
 16  2  1  0
 16 17  1  0
 18 16  1  0
 19 17  1  0
 20 22  1  0
 20 21  1  0
 20 18  1  0
 21 19  1  0
 23 22  2  0
 24 22  1  0
 25 23  1  0
 26 25  1  0
 26 24  2  0
 27 26  1  0
 28 27  2  0
 29 27  1  0
 30 28  1  0
 31 29  2  0
 32 31  1  0
 32 30  2  0
M  RAD  8   4   2   6   2   8   2  11   2  12   2  13   2  15   2  17   3
M  RAD  8  18   3  19   3  20   2  21   3  28   2  29   2  30   2  31   2
M  RAD  1  32   2
M  END
>  <REMARK>  (1) 
 SMILES O=C(c1cccnc1Oc1cccnc1)N1CCCC(c2n[nH]c(-c3ccccc3)n2)C1
 SMILES IDX 1 1 2 2 3 3 4 4 8 5 5 6 7 7 6 8 9 9 10 10 11 11 15 12 12 13
 SMILES IDX 14 14 13 15 16 16 17 17 32 18 18 19 20 20 19 21 21 22 22 23
 SMILES IDX 31 24 23 25 24 26 25 28 26 29 30 30 27 31 29 32 28 33
 H PARENT 23 27

>  <TORSDO>  (1) 
F 6

$$$$
